#	Name: ASD01410730
#	Creating user name:	WinNT
#	Creation time:	15. 06. 2019 19:18

#	Modifying user name:	WinNT
#	Modification time:	15. 06. 2019 19:18

#	Program:	/corina/corina34_cracker 3.40 0067  02.08.2006

@<TRIPOS>MOLECULE
ASD01410730
 114  121    0    0    0
SMALL
NO_CHARGES


@<TRIPOS>ATOM
   1 N1             1.9743     1.8937    -2.1000 N.3     
   2 C2             1.5905    -1.8178    -1.4904 C.3     
   3 C3             1.4049    -0.4838    -2.2473 C.3     
   4 N4             2.4576    -0.5258    -3.2796 N.am    
   5 C5             2.5117    -1.9125    -3.7614 C.3     
   6 C6             1.9757    -2.8023    -2.6213 C.3     
   7 O7             2.6434    -1.7128    -0.5300 O.3     
   8 C8             1.6465    -2.0667    -4.9856 C.2     
   9 O9             1.0377    -1.1128    -5.4219 O.2     
  10 N10            1.5491    -3.2646    -5.5955 N.am    
  11 C11            1.6505     0.6968    -1.3161 C.3     
  12 C12            3.2508     1.7576    -2.8102 C.3     
  13 C13            3.2338     0.5039    -3.6508 C.2     
  14 O14            3.9151     0.4280    -4.6513 O.2     
  15 C15            3.4627     2.9738    -3.7141 C.3     
  16 C16            2.3228     3.0580    -4.7312 C.3     
  17 C17            0.6411    -3.4361    -6.7323 C.3     
  18 C18           -0.8266    -3.3015    -6.4179 C.2     
  19 N19           -1.2335    -3.1813    -5.1387 N.am    
  20 O20           -1.6416    -3.3012    -7.3161 O.2     
  21 S21           -2.8506    -3.1666    -4.7821 S.o2    
  22 C22           -3.4325    -4.8196    -5.2508 C.3     
  23 C23            1.1191    -2.9418    -8.0991 C.3     
  24 C24            1.0429    -4.4434    -7.8116 C.3     
  25 C25           -4.9343    -5.0943    -5.1517 C.3     
  26 C26           -4.2741    -4.9378    -6.5230 C.3     
  27 O27           -2.8968    -3.0032    -3.3713 O.2     
  28 O28           -3.3923    -2.1821    -5.6518 O.2     
  29 C29            0.0861    -2.3581    -9.0281 C.2     
  30 C30            0.2020    -1.1205    -9.4418 C.2     
  31 C31            2.6212    -2.5876     0.5061 C.ar    
  32 C32            3.6038    -2.5346     1.5222 C.ar    
  33 C33            1.6431    -3.5426     0.5994 C.ar    
  34 C34            1.6424    -4.4350     1.6801 C.ar    
  35 N35            2.5686    -4.3803     2.6223 N.ar    
  36 C36            3.5442    -3.4672     2.5872 C.ar    
  37 C37            0.5818    -5.4604     1.7690 C.2     
  38 C38            4.5236    -3.4195     3.5946 C.ar    
  39 C39            5.5173    -2.4682     3.5327 C.ar    
  40 C40            5.5625    -1.5499     2.4799 C.ar    
  41 C41            4.6291    -1.5783     1.4895 C.ar    
  42 Cl42           4.4801    -4.5527     4.9091 Cl      
  43 O43            6.4642    -2.4215     4.5060 O.3     
  44 C44            7.4686    -1.4121     4.3860 C.3     
  45 C45            3.4815     4.2449    -2.8627 C.3     
  46 N46            0.4650    -6.3468     2.7162 N.2     
  47 C47            8.4387    -1.5153     5.5646 C.3     
  48 N48            9.1609    -2.7926     5.4940 N.3     
  49 C49           10.2641    -2.8285     6.4650 C.3     
  50 C50           10.9503    -4.1955     6.3995 C.3     
  51 O51           11.3979    -4.4350     5.0625 O.3     
  52 C52           10.3490    -4.4078     4.0906 C.3     
  53 C53            9.6567    -3.0430     4.1328 C.3     
  54 C54           -0.5425    -7.1816     2.6319 C.2     
  55 C55           -1.3434    -7.0243     1.5700 C.2     
  56 S56           -0.7318    -5.6751     0.6148 S.3     
  57 C57           -0.7840    -8.2516     3.6651 C.3     
  58 C58           -1.7854    -7.7415     4.7033 C.3     
  59 C59           -1.3472    -9.5005     2.9840 C.3     
  60 C60            2.5986     4.1987    -5.7129 C.3     
  61 H61            1.2272     2.1203    -2.7393 H       
  62 H62            0.6605    -2.1219    -1.0099 H       
  63 H63            0.4159    -0.4293    -2.7023 H       
  64 H64            3.5407    -2.1858    -3.9951 H       
  65 H65            2.7513    -3.4874    -2.2791 H       
  66 H66            1.0991    -3.3577    -2.9547 H       
  67 H67            2.0803    -4.0131    -5.2818 H       
  68 H68            2.4812     0.4651    -0.6495 H       
  69 H69            0.7545     0.8833    -0.7241 H       
  70 H70            4.0639     1.6982    -2.0867 H       
  71 H71            4.4123     2.8746    -4.2399 H       
  72 H72            2.2531     2.1174    -5.2775 H       
  73 H73            1.3841     3.2461    -4.2101 H       
  74 H74           -0.5791    -3.1034    -4.4269 H       
  75 H75           -2.7542    -5.6404    -5.0176 H       
  76 H76            2.1091    -2.4890    -8.1525 H       
  77 H77            1.9829    -4.9782    -7.6761 H       
  78 H78            0.2457    -5.0085    -8.2946 H       
  79 H79           -5.2442    -6.0959    -4.8537 H       
  80 H80           -5.5728    -4.2817    -4.8049 H       
  81 H81           -4.4781    -4.0224    -7.0784 H       
  82 H82           -4.1496    -5.8365    -7.1272 H       
  83 H83           -0.7498    -2.9600    -9.3529 H       
  84 H84           -0.5384    -0.7021   -10.1076 H       
  85 H85            1.0378    -0.5186    -9.1171 H       
  86 H86            0.8751    -3.6073    -0.1572 H       
  87 H87            6.3498    -0.8113     2.4497 H       
  88 H88            4.6758    -0.8630     0.6816 H       
  89 H89            8.0144    -1.5518     3.4528 H       
  90 H90            6.9979    -0.4290     4.3879 H       
  91 H91            3.7347     5.0991    -3.4907 H       
  92 H92            2.4982     4.3993    -2.4185 H       
  93 H93            4.2251     4.1418    -2.0724 H       
  94 H94            9.1517    -0.6920     5.5215 H       
  95 H95            7.8810    -1.4645     6.4997 H       
  96 H96           10.9855    -2.0472     6.2254 H       
  97 H97            9.8710    -2.6663     7.4687 H       
  98 H98           11.8043    -4.2069     7.0767 H       
  99 H99           10.2432    -4.9720     6.6912 H       
 100 H100          10.7681    -4.5729     3.0981 H       
 101 H101           9.6244    -5.1906     4.3152 H       
 102 H102           8.8202    -3.0374     3.4340 H       
 103 H103          10.3683    -2.2652     3.8559 H       
 104 H104          -2.2157    -7.6185     1.3411 H       
 105 H105           0.1560    -8.4994     4.1582 H       
 106 H106          -2.7254    -7.4937     4.2102 H       
 107 H107          -1.9601    -8.5155     5.4506 H       
 108 H108          -1.3842    -6.8517     5.1886 H       
 109 H109          -0.6337    -9.8640     2.2444 H       
 110 H110          -1.5218   -10.2745     3.7313 H       
 111 H111          -2.2872    -9.2528     2.4909 H       
 112 H112           2.6684     5.1393    -5.1666 H       
 113 H113           3.5373     4.0107    -6.2340 H       
 114 H114           1.7865     4.2587    -6.4375 H       
@<TRIPOS>BOND
   1    1   11 1
   2    1   12 1
   3    1   61 1
   4    2    3 1
   5    2    7 1
   6    2    6 1
   7    2   62 1
   8    3    4 1
   9    3   11 1
  10    3   63 1
  11    4    5 1
  12    4   13 am
  13    5    6 1
  14    5    8 1
  15    5   64 1
  16    6   65 1
  17    6   66 1
  18    7   31 1
  19    8    9 2
  20    8   10 am
  21   10   17 1
  22   10   67 1
  23   11   68 1
  24   11   69 1
  25   12   13 1
  26   12   15 1
  27   12   70 1
  28   13   14 2
  29   15   16 1
  30   15   45 1
  31   15   71 1
  32   16   60 1
  33   16   72 1
  34   16   73 1
  35   17   18 1
  36   17   23 1
  37   17   24 1
  38   18   19 am
  39   18   20 2
  40   19   21 am
  41   19   74 1
  42   21   22 1
  43   21   27 2
  44   21   28 2
  45   22   25 1
  46   22   26 1
  47   22   75 1
  48   23   24 1
  49   23   29 1
  50   23   76 1
  51   24   77 1
  52   24   78 1
  53   25   26 1
  54   25   79 1
  55   25   80 1
  56   26   81 1
  57   26   82 1
  58   29   30 2
  59   29   83 1
  60   30   84 1
  61   30   85 1
  62   31   32 ar
  63   31   33 ar
  64   32   36 ar
  65   32   41 ar
  66   33   34 ar
  67   33   86 1
  68   34   35 ar
  69   34   37 1
  70   35   36 ar
  71   36   38 ar
  72   37   46 2
  73   37   56 1
  74   38   39 ar
  75   38   42 1
  76   39   40 ar
  77   39   43 1
  78   40   41 ar
  79   40   87 1
  80   41   88 1
  81   43   44 1
  82   44   47 1
  83   44   89 1
  84   44   90 1
  85   45   91 1
  86   45   92 1
  87   45   93 1
  88   46   54 1
  89   47   48 1
  90   47   94 1
  91   47   95 1
  92   48   49 1
  93   48   53 1
  94   49   50 1
  95   49   96 1
  96   49   97 1
  97   50   51 1
  98   50   98 1
  99   50   99 1
 100   51   52 1
 101   52   53 1
 102   52  100 1
 103   52  101 1
 104   53  102 1
 105   53  103 1
 106   54   55 2
 107   54   57 1
 108   55   56 1
 109   55  104 1
 110   57   58 1
 111   57   59 1
 112   57  105 1
 113   58  106 1
 114   58  107 1
 115   58  108 1
 116   59  109 1
 117   59  110 1
 118   59  111 1
 119   60  112 1
 120   60  113 1
 121   60  114 1

#	End of record

