#	Name: ASD03080012
#	Creating user name:	WinNT
#	Creation time:	15. 06. 2019 20:26

#	Modifying user name:	WinNT
#	Modification time:	15. 06. 2019 20:26

#	Program:	/corina/corina34_cracker 3.40 0067  02.08.2006

@<TRIPOS>MOLECULE
ASD03080012
  26   28    0    0    0
SMALL
NO_CHARGES


@<TRIPOS>ATOM
   1 O1            -0.0144     1.2085     0.0087 O.3     
   2 N2             0.0021    -0.0041     0.0020 N.2     
   3 C3             1.2349    -0.4422    -0.0121 C.2     
   4 N4             2.0457     0.6363    -0.0141 N.2     
   5 C5             1.2411     1.6828    -0.0008 C.2     
   6 C6             3.0155    -2.1956    -0.0374 C.ar    
   7 C7             1.6626    -1.8636    -0.0231 C.ar    
   8 C8             0.7149    -2.8901    -0.0188 C.ar    
   9 C9             1.1649    -4.1995    -0.0290 C.ar    
  10 C10            2.5252    -4.4470    -0.0430 C.ar    
  11 N11            3.3965    -3.4564    -0.0467 N.ar    
  12 C12            1.6453     3.1039     0.0026 C.ar    
  13 C13            0.6749     4.1097     0.0173 C.ar    
  14 C14            1.0624     5.4390     0.0203 C.ar    
  15 C15            2.4069     5.7696     0.0083 C.ar    
  16 C16            3.3702     4.7763    -0.0063 C.ar    
  17 C17            2.9982     3.4482    -0.0032 C.ar    
  18 F18            0.1278     6.4144     0.0345 F       
  19 F19           -0.6368     3.7861     0.0281 F       
  20 H20            3.7587    -1.4120    -0.0453 H       
  21 H21           -0.3420    -2.6679    -0.0075 H       
  22 H22            0.4611    -5.0187    -0.0257 H       
  23 H23            2.8799    -5.4670    -0.0506 H       
  24 H24            2.7052     6.8076     0.0099 H       
  25 H25            4.4170     5.0419    -0.0156 H       
  26 H26            3.7526     2.6754    -0.0101 H       
@<TRIPOS>BOND
   1    1    2 1
   2    1    5 1
   3    2    3 2
   4    3    4 1
   5    3    7 1
   6    4    5 2
   7    5   12 1
   8    6    7 ar
   9    6   11 ar
  10    6   20 1
  11    7    8 ar
  12    8    9 ar
  13    8   21 1
  14    9   10 ar
  15    9   22 1
  16   10   11 ar
  17   10   23 1
  18   12   13 ar
  19   12   17 ar
  20   13   14 ar
  21   13   19 1
  22   14   15 ar
  23   14   18 1
  24   15   16 ar
  25   15   24 1
  26   16   17 ar
  27   16   25 1
  28   17   26 1

#	End of record

