#	Name: ASD03090166
#	Creating user name:	WinNT
#	Creation time:	15. 06. 2019 20:28

#	Modifying user name:	WinNT
#	Modification time:	15. 06. 2019 20:28

#	Program:	/corina/corina34_cracker 3.40 0067  02.08.2006

@<TRIPOS>MOLECULE
ASD03090166
  47   50    0    0    0
SMALL
NO_CHARGES


@<TRIPOS>ATOM
   1 C1            -0.2820     1.1338    -0.8060 C.ar    
   2 N2             0.8177     1.5834    -1.3735 N.ar    
   3 C3             1.9759     0.9725    -1.2305 C.ar    
   4 C4             2.0735    -0.1873    -0.4613 C.ar    
   5 C5             0.9274    -0.6899     0.1591 C.ar    
   6 C6            -0.2754    -0.0097    -0.0157 C.ar    
   7 C7             3.3738    -0.8762    -0.3052 C.2     
   8 N8             6.8834    -1.0472    -0.4048 N.pl3   
   9 C9             7.3629     0.1620    -0.9189 C.ar    
  10 C10            6.6161     0.8642    -1.8557 C.ar    
  11 C11            7.0916     2.0582    -2.3620 C.ar    
  12 C12            8.3120     2.5547    -1.9366 C.ar    
  13 C13            9.0585     1.8561    -1.0024 C.ar    
  14 C14            8.5842     0.6652    -0.4888 C.ar    
  15 N15            4.5619    -0.3477    -0.5203 N.2     
  16 C16            5.5087    -1.2566    -0.2800 C.2     
  17 N17            4.9394    -2.3797     0.0923 N.2     
  18 N18            3.5529    -2.1568     0.0887 N.pl3   
  19 C19            2.5076    -3.1230     0.4350 C.3     
  20 C20            2.2336    -3.0576     1.9155 C.2     
  21 N21            1.3027    -3.8627     2.4648 N.am    
  22 F22            8.7755     3.7222    -2.4338 F       
  23 C23            1.0363    -3.7991     3.9039 C.3     
  24 O24            2.8506    -2.2803     2.6126 O.2     
  25 O25           -1.5121    -0.2751     0.4845 O.3     
  26 C26           -2.4971     0.4167    -0.3021 C.3     
  27 C27           -1.7136     1.6388    -0.8350 C.3     
  28 C28           10.3865     2.3991    -0.5412 C.3     
  29 F29           10.9477     1.5249     0.3958 F       
  30 F30           11.2463     2.5219    -1.6380 F       
  31 F31           10.1982     3.6546     0.0466 F       
  32 H32            2.8560     1.3721    -1.7124 H       
  33 H33            0.9728    -1.5858     0.7604 H       
  34 H34            7.5060    -1.7404    -0.1350 H       
  35 H35            5.6644     0.4769    -2.1884 H       
  36 H36            6.5111     2.6046    -3.0906 H       
  37 H37            9.1665     0.1209     0.2399 H       
  38 H38            1.5966    -2.8851    -0.1140 H       
  39 H39            2.8392    -4.1273     0.1710 H       
  40 H40            0.8092    -4.4844     1.9072 H       
  41 H41            0.7048    -2.7948     4.1680 H       
  42 H42            0.2586    -4.5180     4.1616 H       
  43 H43            1.9474    -4.0370     4.4530 H       
  44 H44           -2.8426    -0.2087    -1.1253 H       
  45 H45           -3.3337     0.7352     0.3198 H       
  46 H46           -1.8362     2.4977    -0.1752 H       
  47 H47           -2.0197     1.8841    -1.8520 H       
@<TRIPOS>BOND
   1    1    2 ar
   2    1    6 ar
   3    1   27 1
   4    2    3 ar
   5    3    4 ar
   6    3   32 1
   7    4    5 ar
   8    4    7 1
   9    5    6 ar
  10    5   33 1
  11    6   25 1
  12    7   15 2
  13    7   18 1
  14    8    9 1
  15    8   16 1
  16    8   34 1
  17    9   10 ar
  18    9   14 ar
  19   10   11 ar
  20   10   35 1
  21   11   12 ar
  22   11   36 1
  23   12   13 ar
  24   12   22 1
  25   13   14 ar
  26   13   28 1
  27   14   37 1
  28   15   16 1
  29   16   17 2
  30   17   18 1
  31   18   19 1
  32   19   20 1
  33   19   38 1
  34   19   39 1
  35   20   21 am
  36   20   24 2
  37   21   23 1
  38   21   40 1
  39   23   41 1
  40   23   42 1
  41   23   43 1
  42   25   26 1
  43   26   27 1
  44   26   44 1
  45   26   45 1
  46   27   46 1
  47   27   47 1
  48   28   29 1
  49   28   30 1
  50   28   31 1

#	End of record

