#	Name: ASD01840382
#	Creating user name:	WinNT
#	Creation time:	15. 06. 2019 19:37

#	Modifying user name:	WinNT
#	Modification time:	15. 06. 2019 19:37

#	Program:	/corina/corina34_cracker 3.40 0067  02.08.2006

@<TRIPOS>MOLECULE
ASD01840382
  47   50    0    0    0
SMALL
NO_CHARGES


@<TRIPOS>ATOM
   1 C1             0.2611     1.7552    -0.9980 C.ar    
   2 C2             0.3841     0.5320    -1.6195 C.ar    
   3 N3             1.4990    -0.1677    -1.4965 N.ar    
   4 N4             2.4999     0.2427    -0.8111 N.ar    
   5 C5             1.3546     2.2267    -0.2364 C.ar    
   6 C6             1.5104     3.4570     0.5171 C.2     
   7 C7             2.4928     1.4121    -0.1670 C.ar    
   8 S8             3.7250     2.1824     0.8223 S.3     
   9 C9             2.7118     3.5783     1.1344 C.2     
  10 C10           -0.9999     2.5697    -1.1313 C.3     
  11 C11           -0.7562    -0.0106    -2.4419 C.3     
  12 N12            0.5179     4.4243     0.5985 N.pl3   
  13 C13            3.1102     4.7236     1.9514 C.2     
  14 O14            2.3404     5.6527     2.1138 O.2     
  15 N15            4.3297     4.7507     2.5248 N.am    
  16 C16            4.7288     5.8982     3.3434 C.3     
  17 C17            5.3322     7.0058     2.4553 C.3     
  18 C18            6.7801     7.1815     2.9614 C.3     
  19 N19            7.1116     5.8843     3.6053 N.3     
  20 C20            5.8629     5.4977     4.3113 C.3     
  21 C21            8.1709     6.0280     4.5042 C.ar    
  22 C22            8.0549     6.8938     5.5842 C.ar    
  23 C23            9.1041     7.0331     6.4714 C.ar    
  24 C24           10.2692     6.3118     6.2855 C.ar    
  25 C25           10.3880     5.4490     5.2114 C.ar    
  26 C26            9.3407     5.3010     4.3234 C.ar    
  27 H27           -1.6441     2.3852    -0.2716 H       
  28 H28           -0.7456     3.6287    -1.1742 H       
  29 H29           -1.5220     2.2841    -2.0445 H       
  30 H30           -0.6493     0.3210    -3.4747 H       
  31 H31           -0.7433    -1.1000    -2.4068 H       
  32 H32           -1.7008     0.3547    -2.0389 H       
  33 H33           -0.4028     4.1923     0.4002 H       
  34 H34            0.7452     5.3322     0.8537 H       
  35 H35            4.9430     4.0104     2.3954 H       
  36 H36            3.8742     6.2827     3.9000 H       
  37 H37            5.3314     6.6958     1.4104 H       
  38 H38            4.7737     7.9341     2.5761 H       
  39 H39            7.4538     7.3746     2.1265 H       
  40 H40            6.8329     7.9915     3.6889 H       
  41 H41            5.7722     6.0442     5.2500 H       
  42 H42            5.8460     4.4231     4.4928 H       
  43 H43            7.1453     7.4577     5.7297 H       
  44 H44            9.0146     7.7064     7.3111 H       
  45 H45           11.0883     6.4229     6.9806 H       
  46 H46           11.2993     4.8871     5.0691 H       
  47 H47            9.4325     4.6236     3.4872 H       
@<TRIPOS>BOND
   1    1    2 ar
   2    1    5 ar
   3    1   10 1
   4    2   11 1
   5    2    3 ar
   6    3    4 ar
   7    4    7 ar
   8    5    7 ar
   9    5    6 1
  10    6    9 2
  11    6   12 1
  12    7    8 1
  13    8    9 1
  14    9   13 1
  15   10   27 1
  16   10   28 1
  17   10   29 1
  18   11   30 1
  19   11   31 1
  20   11   32 1
  21   12   33 1
  22   12   34 1
  23   13   14 2
  24   13   15 am
  25   15   16 1
  26   15   35 1
  27   16   17 1
  28   16   20 1
  29   16   36 1
  30   17   18 1
  31   17   37 1
  32   17   38 1
  33   18   19 1
  34   18   39 1
  35   18   40 1
  36   19   20 1
  37   19   21 1
  38   20   41 1
  39   20   42 1
  40   21   22 ar
  41   21   26 ar
  42   22   23 ar
  43   22   43 1
  44   23   24 ar
  45   23   44 1
  46   24   25 ar
  47   24   45 1
  48   25   26 ar
  49   25   46 1
  50   26   47 1

#	End of record

