#	Name: ASD03330556
#	Creating user name:	WinNT
#	Creation time:	15. 06. 2019 20:37

#	Modifying user name:	WinNT
#	Modification time:	15. 06. 2019 20:37

#	Program:	/corina/corina34_cracker 3.40 0067  02.08.2006

@<TRIPOS>MOLECULE
ASD03330556
  66   68    0    0    0
SMALL
NO_CHARGES


@<TRIPOS>ATOM
   1 C1            -0.0643     2.0111     1.7901 C.2     
   2 N2            -0.1545     0.7194     2.2080 N.pl3   
   3 C3             1.2109     2.2028     1.3543 C.2     
   4 N4             1.8748     1.0332     1.4930 N.2     
   5 C5             1.0611     0.1357     1.9994 C.2     
   6 C6             1.4042    -1.2712     2.2937 C.ar    
   7 C7             1.7682     3.4602     0.8259 C.2     
   8 O8             1.0674     4.4513     0.7497 O.2     
   9 C9             3.6087     4.7624    -0.0983 C.3     
  10 N10            3.0546     3.5121     0.4271 N.am    
  11 C11            3.2943     4.8718    -1.5917 C.3     
  12 C12            1.7829     4.7648    -1.8039 C.3     
  13 C13            3.7893     6.2197    -2.1196 C.3     
  14 C14            3.9964     3.7401    -2.3448 C.3     
  15 C15            5.1021     4.7736     0.1028 C.2     
  16 N16            5.7910     5.9247    -0.0274 N.am    
  17 O17            5.6842     3.7468     0.3819 O.2     
  18 C18            7.2509     5.9225     0.0949 C.3     
  19 C19           -1.3470     0.0950     2.7874 C.3     
  20 C20           -2.5641     0.4388     1.9229 C.3     
  21 C21           -3.1696     1.7597     2.3865 C.3     
  22 N22           -2.1328     2.6745     2.8685 N.3     
  23 C23           -1.1845     3.0188     1.7987 C.3     
  24 C24           -2.7280     3.8833     3.4536 C.3     
  25 C25            2.0933    -2.0587     1.3536 C.ar    
  26 N26            2.3812    -3.3166     1.6600 N.ar    
  27 C27            2.0285    -3.8272     2.8287 C.ar    
  28 N28            1.3789    -3.1168     3.7377 N.ar    
  29 C29            1.0583    -1.8535     3.5148 C.ar    
  30 O30            2.3411    -5.1158     3.1031 O.3     
  31 C31            1.9399    -5.6234     4.3772 C.3     
  32 O32            2.4563    -1.5414     0.1560 O.3     
  33 C33            3.1530    -2.4086    -0.7410 C.3     
  34 H34            3.1647     5.6066     0.4292 H       
  35 H35            3.6135     2.7217     0.4879 H       
  36 H36            1.2827     5.5711    -1.2673 H       
  37 H37            1.5589     4.8428    -2.8677 H       
  38 H38            1.4302     3.8045    -1.4277 H       
  39 H39            4.8345     6.3569    -1.8424 H       
  40 H40            3.6957     6.2413    -3.2054 H       
  41 H41            3.1905     7.0214    -1.6873 H       
  42 H42            3.6437     2.7797    -1.9687 H       
  43 H43            3.7724     3.8180    -3.4087 H       
  44 H44            5.0732     3.8162    -2.1937 H       
  45 H45            5.3202     6.7546    -0.2021 H       
  46 H46            7.6785     5.2720    -0.6680 H       
  47 H47            7.6282     6.9363    -0.0389 H       
  48 H48            7.5322     5.5576     1.0828 H       
  49 H49           -1.2144    -0.9865     2.8163 H       
  50 H50           -1.5005     0.4715     3.7987 H       
  51 H51           -2.2555     0.5273     0.8813 H       
  52 H52           -3.3082    -0.3526     2.0136 H       
  53 H53           -3.6965     2.2238     1.5528 H       
  54 H54           -3.8776     1.5654     3.1921 H       
  55 H55           -0.7780     4.0140     1.9784 H       
  56 H56           -1.6976     3.0016     0.8372 H       
  57 H57           -3.3658     3.6048     4.2925 H       
  58 H58           -1.9360     4.5454     3.8035 H       
  59 H59           -3.3238     4.3968     2.6990 H       
  60 H60            0.5283    -1.2827     4.2630 H       
  61 H61            2.4069    -5.0343     5.1665 H       
  62 H62            0.8557    -5.5592     4.4690 H       
  63 H63            2.2512    -6.6641     4.4681 H       
  64 H64            4.0789    -2.7456    -0.2748 H       
  65 H65            2.5277    -3.2709    -0.9719 H       
  66 H66            3.3840    -1.8707    -1.6604 H       
@<TRIPOS>BOND
   1    1    2 1
   2    1    3 2
   3    1   23 1
   4    2   19 1
   5    2    5 1
   6    3    4 1
   7    3    7 1
   8    4    5 2
   9    5    6 1
  10    6   25 ar
  11    6   29 ar
  12    7    8 2
  13    7   10 am
  14    9   10 1
  15    9   11 1
  16    9   15 1
  17    9   34 1
  18   10   35 1
  19   11   12 1
  20   11   13 1
  21   11   14 1
  22   12   36 1
  23   12   37 1
  24   12   38 1
  25   13   39 1
  26   13   40 1
  27   13   41 1
  28   14   42 1
  29   14   43 1
  30   14   44 1
  31   15   16 am
  32   15   17 2
  33   16   18 1
  34   16   45 1
  35   18   46 1
  36   18   47 1
  37   18   48 1
  38   19   20 1
  39   19   49 1
  40   19   50 1
  41   20   21 1
  42   20   51 1
  43   20   52 1
  44   21   22 1
  45   21   53 1
  46   21   54 1
  47   22   23 1
  48   22   24 1
  49   23   55 1
  50   23   56 1
  51   24   57 1
  52   24   58 1
  53   24   59 1
  54   25   26 ar
  55   25   32 1
  56   26   27 ar
  57   27   28 ar
  58   27   30 1
  59   28   29 ar
  60   29   60 1
  61   30   31 1
  62   31   61 1
  63   31   62 1
  64   31   63 1
  65   32   33 1
  66   33   64 1
  67   33   65 1
  68   33   66 1

#	End of record

