#	Name: ASD01890399
#	Creating user name:	WinNT
#	Creation time:	15. 06. 2019 19:50

#	Modifying user name:	WinNT
#	Modification time:	15. 06. 2019 19:50

#	Program:	/corina/corina34_cracker 3.40 0067  02.08.2006

@<TRIPOS>MOLECULE
ASD01890399
  28   29    0    0    0
SMALL
NO_CHARGES


@<TRIPOS>ATOM
   1 C1            -0.0177     1.4576     0.0101 C.2     
   2 C2             0.0021    -0.0041     0.0020 C.2     
   3 C3             1.1812    -0.6636    -0.0128 C.2     
   4 O4             1.0281     2.0806     0.0034 O.2     
   5 C5             1.2012    -2.1340    -0.0209 C.ar    
   6 C6             2.4204    -2.8205    -0.0362 C.ar    
   7 C7             2.4312    -4.1986    -0.0437 C.ar    
   8 C8             1.2387    -4.9043    -0.0367 C.ar    
   9 C9             0.0275    -4.2313    -0.0219 C.ar    
  10 C10            0.0010    -2.8535    -0.0075 C.ar    
  11 Cl11           1.2623    -6.6401    -0.0468 Cl      
  12 C12           -1.3083     2.1795     0.0201 C.ar    
  13 C13           -1.3305     3.5757     0.0278 C.ar    
  14 C14           -2.5371     4.2431     0.0372 C.ar    
  15 C15           -3.7253     3.5315     0.0395 C.ar    
  16 C16           -3.7098     2.1466     0.0319 C.ar    
  17 C17           -2.5097     1.4678     0.0162 C.ar    
  18 Br18          -5.3756     4.4546     0.0536 Br      
  19 H19           -0.9258    -0.5567     0.0079 H       
  20 H20            2.1091    -0.1110    -0.0187 H       
  21 H21            3.3506    -2.2718    -0.0425 H       
  22 H22            3.3715    -4.7299    -0.0556 H       
  23 H23           -0.8980    -4.7880    -0.0172 H       
  24 H24           -0.9437    -2.3303     0.0089 H       
  25 H25           -0.4046     4.1316     0.0267 H       
  26 H26           -2.5556     5.3229     0.0431 H       
  27 H27           -4.6397     1.5973     0.0337 H       
  28 H28           -2.4989     0.3879     0.0057 H       
@<TRIPOS>BOND
   1    1    2 1
   2    1    4 2
   3    1   12 1
   4    2    3 2
   5    2   19 1
   6    3    5 1
   7    3   20 1
   8    5    6 ar
   9    5   10 ar
  10    6    7 ar
  11    6   21 1
  12    7    8 ar
  13    7   22 1
  14    8    9 ar
  15    8   11 1
  16    9   10 ar
  17    9   23 1
  18   10   24 1
  19   12   13 ar
  20   12   17 ar
  21   13   14 ar
  22   13   25 1
  23   14   15 ar
  24   14   26 1
  25   15   16 ar
  26   15   18 1
  27   16   17 ar
  28   16   27 1
  29   17   28 1

#	End of record

