#	Name: ASD01940592
#	Creating user name:	WinNT
#	Creation time:	15. 06. 2019 20:12

#	Modifying user name:	WinNT
#	Modification time:	15. 06. 2019 20:12

#	Program:	/corina/corina34_cracker 3.40 0067  02.08.2006

@<TRIPOS>MOLECULE
ASD01940592
  55   58    0    0    0
SMALL
NO_CHARGES


@<TRIPOS>ATOM
   1 C1             0.3883     2.2171    -1.1760 C.ar    
   2 C2            -0.6210     2.1244    -2.1247 C.ar    
   3 C3            -0.6458     3.0061    -3.1982 C.ar    
   4 C4             0.3328     3.9735    -3.3215 C.ar    
   5 C5             1.3380     4.0674    -2.3783 C.ar    
   6 C6             1.3679     3.1894    -1.3031 C.ar    
   7 N7            -1.6097     1.1458    -2.0005 N.am    
   8 S8            -1.5594    -0.2077    -2.9533 S.o2    
   9 C9            -0.0341    -1.0546    -2.4565 C.3     
  10 O10           -2.6987    -0.9584    -2.5561 O.2     
  11 O11           -1.4405     0.2988    -4.2757 O.2     
  12 O12            2.3569     3.2832    -0.3761 O.3     
  13 C13            3.3532     4.1828    -0.5943 C.ar    
  14 C14            4.5215     3.7848    -1.2276 C.ar    
  15 C15            5.5366     4.6989    -1.4505 C.ar    
  16 C16            5.3909     6.0139    -1.0432 C.ar    
  17 C17            4.2249     6.4202    -0.4093 C.ar    
  18 C18            3.1995     5.5036    -0.1879 C.ar    
  19 N19            4.0775     7.7503     0.0025 N.pl3   
  20 C20            4.9854     8.7215    -0.4318 C.ar    
  21 C21            5.5425     8.6353    -1.7008 C.ar    
  22 C22            6.4390     9.5959    -2.1271 C.ar    
  23 C23            6.7831    10.6435    -1.2917 C.ar    
  24 C24            6.2311    10.7334    -0.0264 C.ar    
  25 C25            5.3280     9.7790     0.4044 C.ar    
  26 F26            4.7842     9.8700     1.6377 F       
  27 I27            8.1438    12.0967    -1.9440 I       
  28 N28            2.0161     5.9112     0.4487 N.am    
  29 S29            1.5757     5.2302     1.8925 S.o2    
  30 F30            6.6730     4.3066    -2.0669 F       
  31 O31            0.3737     5.9015     2.2444 O.2     
  32 O32            1.5866     3.8322     1.6384 O.2     
  33 C33            2.9133     5.6806     3.0321 C.3     
  34 C34            2.8026     5.1946     4.4786 C.3     
  35 C35            3.8227     4.5569     3.5333 C.3     
  36 H36            0.4075     1.5359    -0.3382 H       
  37 H37           -1.4304     2.9349    -3.9369 H       
  38 H38            0.3122     4.6575    -4.1570 H       
  39 H39            2.1018     4.8245    -2.4776 H       
  40 H40           -2.3259     1.2590    -1.3562 H       
  41 H41           -0.1201    -1.3794    -1.4196 H       
  42 H42            0.1250    -1.9221    -3.0970 H       
  43 H43            0.8093    -0.3711    -2.5544 H       
  44 H44            4.6393     2.7598    -1.5470 H       
  45 H45            6.1853     6.7242    -1.2186 H       
  46 H46            3.3458     7.9982     0.5891 H       
  47 H47            5.2754     7.8177    -2.3538 H       
  48 H48            6.8722     9.5288    -3.1141 H       
  49 H49            6.5023    11.5521     0.6237 H       
  50 H50            1.4566     6.5916     0.0427 H       
  51 H51            3.3664     6.6573     2.8626 H       
  52 H52            3.1833     5.8515     5.2607 H       
  53 H53            1.9261     4.6043     4.7455 H       
  54 H54            3.6172     3.5470     3.1783 H       
  55 H55            4.8744     4.7942     3.6935 H       
@<TRIPOS>BOND
   1    1    2 ar
   2    1    6 ar
   3    1   36 1
   4    2    3 ar
   5    2    7 1
   6    3    4 ar
   7    3   37 1
   8    4    5 ar
   9    4   38 1
  10    5    6 ar
  11    5   39 1
  12    6   12 1
  13    7    8 am
  14    7   40 1
  15    8    9 1
  16    8   10 2
  17    8   11 2
  18    9   41 1
  19    9   42 1
  20    9   43 1
  21   12   13 1
  22   13   14 ar
  23   13   18 ar
  24   14   15 ar
  25   14   44 1
  26   15   16 ar
  27   15   30 1
  28   16   17 ar
  29   16   45 1
  30   17   18 ar
  31   17   19 1
  32   18   28 1
  33   19   20 1
  34   19   46 1
  35   20   21 ar
  36   20   25 ar
  37   21   22 ar
  38   21   47 1
  39   22   23 ar
  40   22   48 1
  41   23   24 ar
  42   23   27 1
  43   24   25 ar
  44   24   49 1
  45   25   26 1
  46   28   29 am
  47   28   50 1
  48   29   31 2
  49   29   32 2
  50   29   33 1
  51   33   34 1
  52   33   35 1
  53   33   51 1
  54   34   35 1
  55   34   52 1
  56   34   53 1
  57   35   54 1
  58   35   55 1

#	End of record

