#	Name: ASD00841882
#	Creating user name:	WinNT
#	Creation time:	15. 06. 2019 18:43

#	Modifying user name:	WinNT
#	Modification time:	15. 06. 2019 18:43

#	Program:	/corina/corina34_cracker 3.40 0067  02.08.2006

@<TRIPOS>MOLECULE
ASD00841882
  98  103    0    0    0
SMALL
NO_CHARGES


@<TRIPOS>ATOM
   1 C1             1.0714     1.5490    -0.5412 C.ar    
   2 C2             1.3583     0.2050    -0.7294 C.ar    
   3 C3             1.2609    -0.6786     0.3359 C.ar    
   4 C4             0.8787    -0.2182     1.5808 C.ar    
   5 C5             0.5928     1.1221     1.7658 C.ar    
   6 C6             0.6896     2.0046     0.7061 C.ar    
   7 C7             1.5714    -2.1395     0.1347 C.3     
   8 C8             1.2694    -2.9241     1.3937 C.2     
   9 C9             0.7767    -2.6971    -1.0479 C.3     
  10 C10           -0.6907    -2.4240    -0.8405 C.2     
  11 N11           -1.5965    -2.9108    -1.7117 N.am    
  12 O12           -1.0567    -1.7661     0.1104 O.2     
  13 C13           -3.0207    -2.5632    -1.5931 C.3     
  14 C14           -3.5147    -2.0630    -2.9547 C.3     
  15 N15           -3.2034    -3.0647    -3.9831 N.3     
  16 C16           -1.7532    -3.2548    -4.1201 C.3     
  17 C17           -1.1861    -3.7989    -2.8099 C.3     
  18 C18           -3.8110    -2.7034    -5.2709 C.3     
  19 C19           -3.3642    -3.6993    -6.3448 C.3     
  20 C20           -4.0479    -3.3542    -7.6697 C.3     
  21 N21           -5.5054    -3.4115    -7.4994 N.3     
  22 C22           -5.9630    -2.4306    -6.5070 C.3     
  23 C23           -5.3365    -2.7482    -5.1474 C.3     
  24 C24           -6.1933    -3.2216    -8.7834 C.3     
  25 O25            0.1877    -3.0359     1.9308 O.2     
  26 N26            2.4250    -3.4730     1.8046 N.am    
  27 C27            3.0542    -2.3414    -0.0776 C.ar    
  28 C28            3.4915    -3.1507     0.9637 C.ar    
  29 C29            3.9310    -1.8932    -1.0396 C.ar    
  30 C30            5.2678    -2.2490    -0.9759 C.ar    
  31 C31            5.7168    -3.0558     0.0576 C.ar    
  32 C32            4.8370    -3.5059     1.0234 C.ar    
  33 Cl33           6.3774    -1.6869    -2.1869 Cl      
  34 F34            7.0206    -3.4038     0.1212 F       
  35 C35            2.2941    -6.0888     2.6501 C.ar    
  36 C36            1.0507    -6.4720     2.1681 C.ar    
  37 C37            3.3198    -7.0115     2.7302 C.ar    
  38 C38            3.1102    -8.3171     2.3303 C.ar    
  39 C39            1.8683    -8.7054     1.8474 C.ar    
  40 C40            0.8378    -7.7819     1.7665 C.ar    
  41 O41            1.6627    -9.9900     1.4546 O.3     
  42 O42            0.0423    -5.5643     2.0900 O.3     
  43 C43            2.7691   -10.8875     1.5660 C.3     
  44 C44           -1.2108    -6.0287     1.5841 C.3     
  45 C45           -2.2148    -4.8743     1.5707 C.3     
  46 C46           -7.6818    -3.5329    -8.6154 C.3     
  47 O47            1.7337    -0.2456    -1.9554 O.3     
  48 C48            2.2536     0.0404    -4.2981 C.3     
  49 C49            1.7036     0.6961    -3.0298 C.3     
  50 S50            2.5675    -4.4226     3.1538 S.o2    
  51 O51            3.9275    -4.3437     3.5581 O.2     
  52 O52            1.4827    -4.0772     4.0041 O.2     
  53 H53            1.1508     2.2396    -1.3677 H       
  54 H54            0.8028    -0.9056     2.4103 H       
  55 H55            0.2935     1.4800     2.7398 H       
  56 H56            0.4658     3.0509     0.8531 H       
  57 H57            1.1093    -2.2165    -1.9680 H       
  58 H58            0.9395    -3.7724    -1.1203 H       
  59 H59           -3.5896    -3.4451    -1.2986 H       
  60 H60           -3.1451    -1.7780    -0.8474 H       
  61 H61           -4.5925    -1.9053    -2.9151 H       
  62 H62           -3.0181    -1.1241    -3.1993 H       
  63 H63           -1.5535    -3.9613    -4.9257 H       
  64 H64           -1.2811    -2.2992    -4.3485 H       
  65 H65           -0.0982    -3.8332    -2.8681 H       
  66 H66           -1.5777    -4.7999    -2.6292 H       
  67 H67           -3.4967    -1.6985    -5.5528 H       
  68 H68           -2.2827    -3.6414    -6.4674 H       
  69 H69           -3.6434    -4.7090    -6.0434 H       
  70 H70           -3.7575    -2.3497    -7.9774 H       
  71 H71           -3.7430    -4.0701    -8.4330 H       
  72 H72           -5.6636    -1.4304    -6.8202 H       
  73 H73           -7.0491    -2.4757    -6.4259 H       
  74 H74           -5.6467    -3.7429    -4.8272 H       
  75 H75           -5.6641    -2.0108    -4.4146 H       
  76 H76           -6.0728    -2.1890    -9.1109 H       
  77 H77           -5.7638    -3.8915    -9.5283 H       
  78 H78            3.5766    -1.2649    -1.8434 H       
  79 H79            5.1934    -4.1341     1.8264 H       
  80 H80            4.2869    -6.7112     3.1057 H       
  81 H81            3.9136    -9.0362     2.3931 H       
  82 H82           -0.1294    -8.0822     1.3914 H       
  83 H83            3.0854   -10.9468     2.6074 H       
  84 H84            2.4704   -11.8771     1.2201 H       
  85 H85            3.5953   -10.5233     0.9554 H       
  86 H86           -1.0763    -6.4050     0.5699 H       
  87 H87           -1.5860    -6.8291     2.2218 H       
  88 H88           -2.3494    -4.4980     2.5848 H       
  89 H89           -1.8397    -4.0739     0.9330 H       
  90 H90           -3.1707    -5.2285     1.1848 H       
  91 H91           -7.8024    -4.5656    -8.2879 H       
  92 H92           -8.1113    -2.8630    -7.8705 H       
  93 H93           -8.1923    -3.3920    -9.5682 H       
  94 H94            3.2482    -0.3586    -4.0989 H       
  95 H95            1.5918    -0.7697    -4.6046 H       
  96 H96            2.3125     0.7823    -5.0945 H       
  97 H97            0.6765     1.0172    -3.2029 H       
  98 H98            2.3161     1.5603    -2.7728 H       
@<TRIPOS>BOND
   1    1    2 ar
   2    1    6 ar
   3    1   53 1
   4    2    3 ar
   5    2   47 1
   6    3    4 ar
   7    3    7 1
   8    4    5 ar
   9    4   54 1
  10    5    6 ar
  11    5   55 1
  12    6   56 1
  13    7    8 1
  14    7    9 1
  15    7   27 1
  16    8   25 2
  17    8   26 am
  18    9   10 1
  19    9   57 1
  20    9   58 1
  21   10   11 am
  22   10   12 2
  23   11   13 1
  24   11   17 1
  25   13   14 1
  26   13   59 1
  27   13   60 1
  28   14   15 1
  29   14   61 1
  30   14   62 1
  31   15   16 1
  32   15   18 1
  33   16   17 1
  34   16   63 1
  35   16   64 1
  36   17   65 1
  37   17   66 1
  38   18   19 1
  39   18   23 1
  40   18   67 1
  41   19   20 1
  42   19   68 1
  43   19   69 1
  44   20   21 1
  45   20   70 1
  46   20   71 1
  47   21   22 1
  48   21   24 1
  49   22   23 1
  50   22   72 1
  51   22   73 1
  52   23   74 1
  53   23   75 1
  54   24   46 1
  55   24   76 1
  56   24   77 1
  57   26   50 am
  58   26   28 1
  59   27   28 ar
  60   27   29 ar
  61   28   32 ar
  62   29   30 ar
  63   29   78 1
  64   30   31 ar
  65   30   33 1
  66   31   32 ar
  67   31   34 1
  68   32   79 1
  69   35   36 ar
  70   35   37 ar
  71   35   50 1
  72   36   42 1
  73   36   40 ar
  74   37   38 ar
  75   37   80 1
  76   38   39 ar
  77   38   81 1
  78   39   40 ar
  79   39   41 1
  80   40   82 1
  81   41   43 1
  82   42   44 1
  83   43   83 1
  84   43   84 1
  85   43   85 1
  86   44   45 1
  87   44   86 1
  88   44   87 1
  89   45   88 1
  90   45   89 1
  91   45   90 1
  92   46   91 1
  93   46   92 1
  94   46   93 1
  95   47   49 1
  96   48   49 1
  97   48   94 1
  98   48   95 1
  99   48   96 1
 100   49   97 1
 101   49   98 1
 102   50   51 2
 103   50   52 2

#	End of record

