#	Name: ASD01881576
#	Creating user name:	WinNT
#	Creation time:	15. 06. 2019 19:42

#	Modifying user name:	WinNT
#	Modification time:	15. 06. 2019 19:42

#	Program:	/corina/corina34_cracker 3.40 0067  02.08.2006

@<TRIPOS>MOLECULE
ASD01881576
  49   52    0    0    0
SMALL
NO_CHARGES


@<TRIPOS>ATOM
   1 C1            -0.0167     1.3781     0.0096 C.ar    
   2 C2             0.0021    -0.0041     0.0020 C.ar    
   3 C3             1.2084    -0.6789    -0.0132 C.ar    
   4 C4             2.3960     0.0285    -0.0212 C.ar    
   5 C5             2.3773     1.4107    -0.0145 C.ar    
   6 C6             1.1710     2.0855     0.0021 C.ar    
   7 C7             3.6720     2.1819    -0.0228 C.3     
   8 C8             3.7296     3.0684    -1.2685 C.3     
   9 C9             5.0441     3.8514    -1.2769 C.3     
  10 C10            5.1247     4.7261    -0.0242 C.3     
  11 C11            5.0670     3.8396     1.2215 C.3     
  12 C12            3.7526     3.0567     1.2299 C.3     
  13 C13            6.4194     5.4973    -0.0324 C.2     
  14 C14            7.6433     4.8271    -0.0469 C.2     
  15 C15            8.8044     5.5291    -0.0542 C.2     
  16 N16            8.8060     6.8843    -0.0479 N.am    
  17 C17            7.6533     7.5801    -0.0340 C.2     
  18 C18            6.4130     6.8899    -0.0317 C.2     
  19 C19            5.1769     7.6128    -0.0175 C.1     
  20 N20            4.1963     8.1863    -0.0062 N.1     
  21 O21            7.6748     8.7989    -0.0281 O.2     
  22 C22           10.0822     7.6037    -0.0558 C.3     
  23 C23           10.5138     7.8609    -1.5009 C.3     
  24 C24           11.7693     8.7065    -1.7234 C.3     
  25 C25           11.8070     7.1988    -1.9805 C.3     
  26 H26           -0.9592     1.9054     0.0170 H       
  27 H27           -0.9258    -0.5567     0.0083 H       
  28 H28            1.2231    -1.7588    -0.0184 H       
  29 H29            3.3386    -0.4987    -0.0324 H       
  30 H30            1.1563     3.1654     0.0069 H       
  31 H31            4.5100     1.4850    -0.0338 H       
  32 H32            3.6722     2.4453    -2.1609 H       
  33 H33            2.8916     3.7654    -1.2575 H       
  34 H34            5.8821     3.1544    -1.2878 H       
  35 H35            5.0851     4.4830    -2.1643 H       
  36 H36            4.2867     5.4231    -0.0132 H       
  37 H37            5.9050     3.1427     1.2105 H       
  38 H38            5.1245     4.4628     2.1139 H       
  39 H39            2.9146     3.7536     1.2409 H       
  40 H40            3.7115     2.4251     2.1173 H       
  41 H41            7.6664     3.7473    -0.0518 H       
  42 H42            9.7448     4.9981    -0.0650 H       
  43 H43            9.9663     8.5550     0.4636 H       
  44 H44           10.8402     7.0044     0.4486 H       
  45 H45            9.7032     7.9640    -2.2223 H       
  46 H46           11.7849     9.3656    -2.5914 H       
  47 H47           12.2879     9.0796    -0.8402 H       
  48 H48           12.3504     6.5799    -1.2665 H       
  49 H49           11.8474     6.8659    -3.0177 H       
@<TRIPOS>BOND
   1    1    2 ar
   2    1    6 ar
   3    1   26 1
   4    2    3 ar
   5    2   27 1
   6    3    4 ar
   7    3   28 1
   8    4    5 ar
   9    4   29 1
  10    5    6 ar
  11    5    7 1
  12    6   30 1
  13    7    8 1
  14    7   12 1
  15    7   31 1
  16    8    9 1
  17    8   32 1
  18    8   33 1
  19    9   10 1
  20    9   34 1
  21    9   35 1
  22   10   11 1
  23   10   13 1
  24   10   36 1
  25   11   12 1
  26   11   37 1
  27   11   38 1
  28   12   39 1
  29   12   40 1
  30   13   14 1
  31   13   18 2
  32   14   15 2
  33   14   41 1
  34   15   16 1
  35   15   42 1
  36   16   17 am
  37   16   22 1
  38   17   18 1
  39   17   21 2
  40   18   19 1
  41   19   20 3
  42   22   23 1
  43   22   43 1
  44   22   44 1
  45   23   24 1
  46   23   25 1
  47   23   45 1
  48   24   25 1
  49   24   46 1
  50   24   47 1
  51   25   48 1
  52   25   49 1

#	End of record

