#	Name: ASD03330809
#	Creating user name:	WinNT
#	Creation time:	15. 06. 2019 20:38

#	Modifying user name:	WinNT
#	Modification time:	15. 06. 2019 20:38

#	Program:	/corina/corina34_cracker 3.40 0067  02.08.2006

@<TRIPOS>MOLECULE
ASD03330809
  66   68    0    0    0
SMALL
NO_CHARGES


@<TRIPOS>ATOM
   1 C1             0.0709     1.1616     0.4243 C.2     
   2 N2             0.1280    -0.1898     0.4813 N.pl3   
   3 C3             1.3410     1.6252     0.5910 C.2     
   4 N4             2.1546     0.5558     0.7291 N.2     
   5 C5             1.4348    -0.5392     0.6587 C.2     
   6 C6             1.9538    -1.9214     0.7550 C.ar    
   7 C7             1.7535     3.0397     0.6153 C.2     
   8 O8             0.9231     3.9177     0.4785 O.2     
   9 C9             3.4610     4.7667     0.8133 C.3     
  10 N10            3.0509     3.3604     0.7891 N.am    
  11 C11            4.7418     4.9031     1.5956 C.2     
  12 C12           -1.0209    -1.0943     0.3826 C.3     
  13 C13           -1.8943    -0.6707    -0.8024 C.3     
  14 C14           -2.9046     0.3783    -0.3487 C.3     
  15 N15           -2.3387     1.2360     0.6947 N.3     
  16 C16           -1.1728     1.9819     0.1986 C.3     
  17 N17            5.1087     6.1046     2.0835 N.am    
  18 O18            5.4424     3.9316     1.7861 O.2     
  19 C19            6.3961     6.2560     2.7659 C.3     
  20 C20            3.6832     5.2578    -0.6186 C.3     
  21 C21            2.4115     5.0314    -1.4386 C.3     
  22 C22            4.0188     6.7504    -0.5996 C.3     
  23 C23            4.8416     4.4826    -1.2497 C.3     
  24 C24           -3.3556     2.1476     1.2357 C.3     
  25 C25            1.1647    -2.9287     1.3110 C.ar    
  26 C26            1.6545    -4.2157     1.3981 C.ar    
  27 C27            2.9250    -4.5082     0.9354 C.ar    
  28 C28            3.7126    -3.5137     0.3834 C.ar    
  29 C29            3.2320    -2.2241     0.2850 C.ar    
  30 C30            0.8037    -5.3049     1.9988 C.3     
  31 F31            5.3545    -5.2012     0.0829 F       
  32 F32            0.0439    -5.9115     0.9929 F       
  33 F33            1.6278    -6.2613     2.6017 F       
  34 F34           -0.0503    -4.7531     2.9597 F       
  35 F35            5.1796    -3.5462    -1.4822 F       
  36 C36            5.0958    -3.8409    -0.1172 C.3     
  37 F37            6.0375    -3.0793     0.5830 F       
  38 H38            2.6814     5.3644     1.2855 H       
  39 H39            3.7132     2.6602     0.8982 H       
  40 H40           -0.6692    -2.1146     0.2295 H       
  41 H41           -1.6045    -1.0434     1.3018 H       
  42 H42           -1.2634    -0.2513    -1.5861 H       
  43 H43           -2.4243    -1.5402    -1.1912 H       
  44 H44           -3.1894     0.9935    -1.2022 H       
  45 H45           -3.7903    -0.1230     0.0415 H       
  46 H46           -1.0889     2.9264     0.7361 H       
  47 H47           -1.2919     2.1773    -0.8671 H       
  48 H48            4.5203     6.8692     1.9828 H       
  49 H49            6.4263     5.5986     3.6348 H       
  50 H50            7.2030     5.9919     2.0823 H       
  51 H51            6.5171     7.2902     3.0884 H       
  52 H52            1.5862     5.5837    -0.9890 H       
  53 H53            2.5698     5.3813    -2.4587 H       
  54 H54            2.1724     3.9681    -1.4522 H       
  55 H55            4.9796     6.9005    -0.1073 H       
  56 H56            4.0723     7.1239    -1.6222 H       
  57 H57            3.2436     7.2902    -0.0557 H       
  58 H58            4.6025     3.4193    -1.2633 H       
  59 H59            4.9999     4.8325    -2.2698 H       
  60 H60            5.7476     4.6439    -0.6655 H       
  61 H61           -4.1723     1.5673     1.6651 H       
  62 H62           -2.9087     2.7730     2.0086 H       
  63 H63           -3.7405     2.7791     0.4349 H       
  64 H64            0.1728    -2.7015     1.6729 H       
  65 H65            3.3038    -5.5171     1.0058 H       
  66 H66            3.8477    -1.4485    -0.1461 H       
@<TRIPOS>BOND
   1    1    2 1
   2    1    3 2
   3    1   16 1
   4    2   12 1
   5    2    5 1
   6    3    4 1
   7    3    7 1
   8    4    5 2
   9    5    6 1
  10    6   25 ar
  11    6   29 ar
  12    7    8 2
  13    7   10 am
  14    9   10 1
  15    9   11 1
  16    9   20 1
  17    9   38 1
  18   10   39 1
  19   11   18 2
  20   11   17 am
  21   12   13 1
  22   12   40 1
  23   12   41 1
  24   13   14 1
  25   13   42 1
  26   13   43 1
  27   14   15 1
  28   14   44 1
  29   14   45 1
  30   15   16 1
  31   15   24 1
  32   16   46 1
  33   16   47 1
  34   17   19 1
  35   17   48 1
  36   19   49 1
  37   19   50 1
  38   19   51 1
  39   20   21 1
  40   20   22 1
  41   20   23 1
  42   21   52 1
  43   21   53 1
  44   21   54 1
  45   22   55 1
  46   22   56 1
  47   22   57 1
  48   23   58 1
  49   23   59 1
  50   23   60 1
  51   24   61 1
  52   24   62 1
  53   24   63 1
  54   25   26 ar
  55   25   64 1
  56   26   27 ar
  57   26   30 1
  58   27   28 ar
  59   27   65 1
  60   28   29 ar
  61   28   36 1
  62   29   66 1
  63   30   32 1
  64   30   33 1
  65   30   34 1
  66   31   36 1
  67   35   36 1
  68   36   37 1

#	End of record

