#	Name: ASD00431185
#	Creating user name:	WinNT
#	Creation time:	15. 06. 2019 18:35

#	Modifying user name:	WinNT
#	Modification time:	15. 06. 2019 18:35

#	Program:	/corina/corina34_cracker 3.40 0067  02.08.2006

@<TRIPOS>MOLECULE
ASD00431185
  48   50    0    0    0
SMALL
NO_CHARGES


@<TRIPOS>ATOM
   1 N1            -0.0710     1.2696     0.1509 N.am    
   2 C2            -0.0070    -0.0765     0.1273 C.2     
   3 O3             1.0712    -0.6325     0.0454 O.2     
   4 N4            -1.1382    -0.8062     0.1944 N.am    
   5 C5            -1.0686    -2.2693     0.1688 C.3     
   6 C6             1.1586     2.0627     0.0779 C.3     
   7 C7             1.5562     2.2536    -1.3872 C.3     
   8 O8            -0.1349     4.2003     0.5323 O.3     
   9 N9            -0.0168     5.2137     1.1883 N.2     
  10 C10            1.1123     5.1886     1.8539 C.2     
  11 N11            1.7273     4.0209     1.5505 N.2     
  12 C12            0.9267     3.4086     0.7149 C.2     
  13 S13            3.1389     6.1918     3.6515 S.3     
  14 C14            2.7996     7.7235     4.3305 C.2     
  15 N15            1.6581     8.1647     3.8985 N.2     
  16 C16            0.9980     7.3978     3.0594 C.2     
  17 C17            1.6183     6.2362     2.7627 C.2     
  18 O18            3.6062     8.3821     5.1961 O.3     
  19 C19            3.9697    10.3206     6.5330 C.ar    
  20 C20            3.2724     9.6553     5.5372 C.ar    
  21 C21            2.2261    10.3070     4.8901 C.ar    
  22 C22            1.9215    11.6025     5.2694 C.ar    
  23 C23            2.6642    12.2054     6.2758 C.ar    
  24 N24            3.6517    11.5562     6.8690 N.ar    
  25 O25            2.3736    13.4762     6.6548 O.3     
  26 C26            3.1731    14.0418     7.6954 C.3     
  27 C27            4.3831    14.7489     7.0817 C.3     
  28 C28            2.3398    15.0514     8.4873 C.3     
  29 H29           -0.9314     1.7132     0.2121 H       
  30 H30           -1.9983    -0.3626     0.2597 H       
  31 H31           -0.6002    -2.5946    -0.7601 H       
  32 H32           -0.4785    -2.6199     1.0155 H       
  33 H33           -2.0755    -2.6820     0.2319 H       
  34 H34            1.9579     1.5434     0.6066 H       
  35 H35            2.4710     2.8437    -1.4414 H       
  36 H36            1.7239     1.2801    -1.8479 H       
  37 H37            0.7569     2.7729    -1.9159 H       
  38 H38            0.0404     7.6735     2.6430 H       
  39 H39            4.7797     9.8203     7.0428 H       
  40 H40            1.6655     9.8132     4.1101 H       
  41 H41            1.1164    12.1381     4.7884 H       
  42 H42            3.5146    13.2501     8.3623 H       
  43 H43            4.0416    15.5406     6.4149 H       
  44 H44            4.9930    15.1803     7.8755 H       
  45 H45            4.9768    14.0296     6.5176 H       
  46 H46            1.4778    14.5476     8.9245 H       
  47 H47            2.9497    15.4828     9.2811 H       
  48 H48            1.9983    15.8431     7.8205 H       
@<TRIPOS>BOND
   1    1    2 am
   2    1    6 1
   3    1   29 1
   4    2    3 2
   5    2    4 am
   6    4    5 1
   7    4   30 1
   8    5   31 1
   9    5   32 1
  10    5   33 1
  11    6    7 1
  12    6   12 1
  13    6   34 1
  14    7   35 1
  15    7   36 1
  16    7   37 1
  17    8    9 1
  18    8   12 1
  19    9   10 2
  20   10   11 1
  21   10   17 1
  22   11   12 2
  23   13   14 1
  24   13   17 1
  25   14   15 2
  26   14   18 1
  27   15   16 1
  28   16   17 2
  29   16   38 1
  30   18   20 1
  31   19   20 ar
  32   19   24 ar
  33   19   39 1
  34   20   21 ar
  35   21   22 ar
  36   21   40 1
  37   22   23 ar
  38   22   41 1
  39   23   24 ar
  40   23   25 1
  41   25   26 1
  42   26   27 1
  43   26   28 1
  44   26   42 1
  45   27   43 1
  46   27   44 1
  47   27   45 1
  48   28   46 1
  49   28   47 1
  50   28   48 1

#	End of record

