#	Name: ASD01810853
#	Creating user name:	WinNT
#	Creation time:	15. 06. 2019 19:25

#	Modifying user name:	WinNT
#	Modification time:	15. 06. 2019 19:25

#	Program:	/corina/corina34_cracker 3.40 0067  02.08.2006

@<TRIPOS>MOLECULE
ASD01810853
  69   73    0    0    0
SMALL
NO_CHARGES


@<TRIPOS>ATOM
   1 C1             0.1131     0.9995    -0.2503 C.ar    
   2 C2             0.3612    -0.3710    -0.1515 C.ar    
   3 C3            -0.7608    -1.3330    -0.1955 C.2     
   4 N4            -1.9020    -1.0682     0.4709 N.am    
   5 O5            -0.6540    -2.3625    -0.8327 O.2     
   6 C6            -2.0051     0.1124     1.3394 C.3     
   7 C7             1.6707    -0.8295    -0.0117 C.ar    
   8 C8             2.7178     0.0788     0.0283 C.ar    
   9 C9             2.4602     1.4409    -0.0708 C.ar    
  10 C10            1.1619     1.8952    -0.2094 C.ar    
  11 N11            4.0328    -0.3757     0.1688 N.pl3   
  12 C12           -2.4697    -0.3364     2.7284 C.3     
  13 C13           -3.7692    -1.1335     2.5944 C.3     
  14 C14           -3.5195    -2.3801     1.7425 C.3     
  15 C15           -3.0687    -1.9514     0.3379 C.3     
  16 C16           -4.2475    -1.5476     3.9622 C.ar    
  17 C17           -5.4867    -1.1299     4.4141 C.ar    
  18 C18           -5.9309    -1.5057     5.6649 C.ar    
  19 C19           -5.1267    -2.3095     6.4754 C.ar    
  20 C20           -3.8772    -2.7274     6.0130 C.ar    
  21 C21           -3.4477    -2.3486     4.7580 C.ar    
  22 C22           -5.5812    -2.7030     7.7751 C.1     
  23 N23           -5.9417    -3.0152     8.8061 N.1     
  24 C24            3.5998     2.4259    -0.0266 C.3     
  25 C25            4.2783    -1.7098     0.4243 C.2     
  26 N26            3.3633    -2.6451     0.4847 N.2     
  27 N27            5.5116    -2.2518     0.6459 N.pl3   
  28 C28            5.3304    -3.6104     0.8613 C.ar    
  29 C29            3.9493    -3.8412     0.7538 C.ar    
  30 C30            6.1919    -4.6625     1.1326 C.ar    
  31 C31            5.6913    -5.9364     1.3006 C.ar    
  32 C32            4.3225    -6.1740     1.1994 C.ar    
  33 C33            3.4517    -5.1355     0.9246 C.ar    
  34 N34            3.8266    -7.4712     1.3714 N.pl3   
  35 C35            4.7463    -8.5751     1.6572 C.3     
  36 C36            3.9956    -9.6870     2.3927 C.3     
  37 C37            5.3098    -9.1223     0.3442 C.3     
  38 H38           -0.8993     1.3582    -0.3632 H       
  39 H39           -1.0306     0.5943     1.4180 H       
  40 H40           -2.7283     0.8121     0.9205 H       
  41 H41            1.8687    -1.8884     0.0655 H       
  42 H42            0.9678     2.9549    -0.2859 H       
  43 H43            4.7724     0.2465     0.0868 H       
  44 H44           -1.7032    -0.9639     3.1833 H       
  45 H45           -2.6426     0.5389     3.3546 H       
  46 H46           -4.5280    -0.5134     2.1170 H       
  47 H47           -2.7432    -2.9884     2.2066 H       
  48 H48           -4.4397    -2.9594     1.6669 H       
  49 H49           -3.8802    -1.4211    -0.1604 H       
  50 H50           -2.7943    -2.8323    -0.2425 H       
  51 H51           -6.1075    -0.5079     3.7863 H       
  52 H52           -6.8982    -1.1786     6.0166 H       
  53 H53           -3.2501    -3.3489     6.6350 H       
  54 H54           -2.4815    -2.6711     4.3991 H       
  55 H55            3.9639     2.6060    -1.0380 H       
  56 H56            3.2527     3.3639     0.4070 H       
  57 H57            4.4070     2.0205     0.5834 H       
  58 H58            6.3569    -1.7760     0.6512 H       
  59 H59            7.2542    -4.4845     1.2119 H       
  60 H60            6.3642    -6.7544     1.5115 H       
  61 H61            2.3909    -5.3233     0.8472 H       
  62 H62            2.8738    -7.6394     1.3015 H       
  63 H63            5.5640    -8.2144     2.2813 H       
  64 H64            3.1779   -10.0476     1.7687 H       
  65 H65            4.6799   -10.5083     2.6054 H       
  66 H66            3.5941    -9.2971     3.3281 H       
  67 H67            5.9941    -9.9436     0.5569 H       
  68 H68            4.4921    -9.4829    -0.2798 H       
  69 H69            5.8447    -8.3301    -0.1797 H       
@<TRIPOS>BOND
   1    1    2 ar
   2    1   10 ar
   3    1   38 1
   4    2    3 1
   5    2    7 ar
   6    3    4 am
   7    3    5 2
   8    4    6 1
   9    4   15 1
  10    6   12 1
  11    6   39 1
  12    6   40 1
  13    7    8 ar
  14    7   41 1
  15    8    9 ar
  16    8   11 1
  17    9   10 ar
  18    9   24 1
  19   10   42 1
  20   11   25 1
  21   11   43 1
  22   12   13 1
  23   12   44 1
  24   12   45 1
  25   13   14 1
  26   13   16 1
  27   13   46 1
  28   14   15 1
  29   14   47 1
  30   14   48 1
  31   15   49 1
  32   15   50 1
  33   16   17 ar
  34   16   21 ar
  35   17   18 ar
  36   17   51 1
  37   18   19 ar
  38   18   52 1
  39   19   20 ar
  40   19   22 1
  41   20   21 ar
  42   20   53 1
  43   21   54 1
  44   22   23 3
  45   24   55 1
  46   24   56 1
  47   24   57 1
  48   25   26 2
  49   25   27 1
  50   26   29 1
  51   27   28 1
  52   27   58 1
  53   28   29 ar
  54   28   30 ar
  55   29   33 ar
  56   30   31 ar
  57   30   59 1
  58   31   32 ar
  59   31   60 1
  60   32   33 ar
  61   32   34 1
  62   33   61 1
  63   34   35 1
  64   34   62 1
  65   35   36 1
  66   35   37 1
  67   35   63 1
  68   36   64 1
  69   36   65 1
  70   36   66 1
  71   37   67 1
  72   37   68 1
  73   37   69 1

#	End of record

