#	Name: ASD07930568
#	Creating user name:	WinNT
#	Creation time:	15. 06. 2019 21:12

#	Modifying user name:	WinNT
#	Modification time:	15. 06. 2019 21:12

#	Program:	/corina/corina34_cracker 3.40 0067  02.08.2006

@<TRIPOS>MOLECULE
ASD07930568
  49   51    0    0    0
SMALL
NO_CHARGES


@<TRIPOS>ATOM
   1 C1             1.3694     0.7526    -1.5473 C.3     
   2 N2             2.3133    -2.0773    -1.4376 N.2     
   3 N3             0.0354    -2.5823    -1.3054 N.pl3   
   4 C4            -0.8997    -2.7429    -0.1870 C.3     
   5 C5            -1.5452    -1.3872     0.1315 C.3     
   6 S6            -0.2179    -0.1886     0.4723 S.o2    
   7 N7             0.8028    -0.3916    -0.8290 N.am    
   8 C8             1.0893    -1.6980    -1.1989 C.2     
   9 C9            -0.1435    -3.2501     1.0425 C.3     
  10 C10           -1.9705    -3.7338    -0.5646 C.ar    
  11 C11           -1.6886    -4.7476    -1.4613 C.ar    
  12 C12           -2.6781    -5.6614    -1.8087 C.ar    
  13 C13           -3.9454    -5.5526    -1.2540 C.ar    
  14 C14           -4.2222    -4.5375    -0.3582 C.ar    
  15 C15           -3.2350    -3.6320    -0.0088 C.ar    
  16 O16           -0.6968     1.1434     0.3467 O.2     
  17 O17            0.5510    -0.5938     1.5965 O.2     
  18 F18           -3.5086    -2.6409     0.8676 F       
  19 N19           -2.3959    -6.6894    -2.7173 N.am    
  20 C20           -3.3925    -7.2518    -3.4293 C.2     
  21 O21           -4.5199    -6.8024    -3.3570 O.2     
  22 C22           -3.1150    -8.4143    -4.2975 C.ar    
  23 C23           -4.1531    -8.9924    -5.0329 C.ar    
  24 C24           -1.5881    -9.9283    -5.1348 C.ar    
  25 N25           -1.8793    -8.8972    -4.3760 N.ar    
  26 C26           -3.8782   -10.0832    -5.8438 C.ar    
  27 C27           -2.5728   -10.5599    -5.8922 C.ar    
  28 O28           -2.2599   -11.6253    -6.6727 O.3     
  29 C29           -0.8970   -12.0549    -6.6681 C.3     
  30 H30           -0.2586   -11.2416    -7.0131 H       
  31 H31           -0.6089   -12.3387    -5.6560 H       
  32 H32           -0.7841   -12.9120    -7.3319 H       
  33 F33           -5.4071    -8.4958    -4.9546 F       
  34 F34           -0.4538    -4.8504    -1.9998 F       
  35 H35            2.3184     1.0343    -1.0910 H       
  36 H36            1.5340     0.4815    -2.5902 H       
  37 H37            0.6774     1.5931    -1.4952 H       
  38 H38            3.0422    -1.4422    -1.3576 H       
  39 H39           -0.0844    -3.0999    -2.1170 H       
  40 H40           -2.1338    -1.0509    -0.7220 H       
  41 H41           -2.1877    -1.4827     1.0068 H       
  42 H42            0.6913    -2.5827     1.2566 H       
  43 H43           -0.8174    -3.2753     1.8988 H       
  44 H44            0.2345    -4.2538     0.8481 H       
  45 H45           -4.7153    -6.2608    -1.5227 H       
  46 H46           -5.2086    -4.4531     0.0733 H       
  47 H47           -1.4833    -6.9965    -2.8340 H       
  48 H48           -0.5719   -10.2920    -5.1724 H       
  49 H49           -4.6595   -10.5517    -6.4239 H       
@<TRIPOS>BOND
   1    1    7 1
   2    1   35 1
   3    1   36 1
   4    1   37 1
   5    2    8 2
   6    2   38 1
   7    3    4 1
   8    3    8 1
   9    3   39 1
  10    4    5 1
  11    4    9 1
  12    4   10 1
  13    5    6 1
  14    5   40 1
  15    5   41 1
  16    6    7 am
  17    6   16 2
  18    6   17 2
  19    7    8 1
  20    9   42 1
  21    9   43 1
  22    9   44 1
  23   10   11 ar
  24   10   15 ar
  25   11   12 ar
  26   11   34 1
  27   12   13 ar
  28   12   19 1
  29   13   14 ar
  30   13   45 1
  31   14   15 ar
  32   14   46 1
  33   15   18 1
  34   19   20 am
  35   19   47 1
  36   20   21 2
  37   20   22 1
  38   22   23 ar
  39   22   25 ar
  40   23   26 ar
  41   23   33 1
  42   24   25 ar
  43   24   27 ar
  44   24   48 1
  45   26   27 ar
  46   26   49 1
  47   27   28 1
  48   28   29 1
  49   29   30 1
  50   29   31 1
  51   29   32 1

#	End of record

