#	Name: ASD01918127
#	Creating user name:	WinNT
#	Creation time:	15. 06. 2019 20:10

#	Modifying user name:	WinNT
#	Modification time:	15. 06. 2019 20:10

#	Program:	/corina/corina34_cracker 3.40 0067  02.08.2006

@<TRIPOS>MOLECULE
ASD01918127
  39   42    0    0    0
SMALL
NO_CHARGES


@<TRIPOS>ATOM
   1 N1             4.8400    -0.3875    -2.1363 N.ar    
   2 C2             5.3035     0.3033    -3.1567 C.ar    
   3 C3             5.1815     1.6940    -3.1901 C.ar    
   4 C4             4.5570     2.3446    -2.1200 C.ar    
   5 C5             4.0842     1.5720    -1.0669 C.ar    
   6 C6             4.2465     0.1938    -1.1118 C.ar    
   7 O7             3.4711     2.1581    -0.0050 O.3     
   8 C8             3.4400     3.5172     0.0442 C.2     
   9 N9             2.1705     5.5217    -0.0221 N.pl3   
  10 C10            2.2527     4.1618    -0.0655 C.2     
  11 C11            4.6350     4.2288     0.2133 C.2     
  12 C12            4.5978     5.6167     0.2635 C.2     
  13 C13            3.2991     6.2833     0.1362 C.2     
  14 C14            5.8325     6.3982     0.4405 C.2     
  15 N15            5.7773     7.7440     0.4869 N.am    
  16 O16            6.9026     5.8294     0.5450 O.2     
  17 C17            1.1143     6.3895    -0.1091 C.2     
  18 C18            1.6159     7.6388    -0.0086 C.2     
  19 N19            2.9416     7.5547     0.1444 N.2     
  20 C20            5.6875     2.4423    -4.3012 C.1     
  21 C21            6.9295     8.4799     0.7599 C.ar    
  22 N22            8.0938     7.8591     0.8653 N.ar    
  23 C23            6.8450     9.8589     0.9131 C.ar    
  24 C24            7.9959    10.5783     1.1835 C.ar    
  25 C25            9.1980     9.8894     1.2919 C.ar    
  26 C26            9.2082     8.5166     1.1223 C.ar    
  27 N27            6.0890     3.0359    -5.1827 N.1     
  28 F28           10.3446    10.5537     1.5549 F       
  29 H29            5.7833    -0.2109    -3.9764 H       
  30 H30            4.4460     3.4188    -2.1129 H       
  31 H31            3.8810    -0.4115    -0.2955 H       
  32 H32            1.3493     3.5834    -0.1909 H       
  33 H33            5.5746     3.7042     0.3041 H       
  34 H34            4.9360     8.2006     0.3302 H       
  35 H35            0.0753     6.1241    -0.2379 H       
  36 H36            1.0418     8.5530    -0.0402 H       
  37 H37            5.8939    10.3622     0.8220 H       
  38 H38            7.9607    11.6507     1.3072 H       
  39 H39           10.1401     7.9764     1.2012 H       
@<TRIPOS>BOND
   1    1    2 ar
   2    1    6 ar
   3    2    3 ar
   4    2   29 1
   5    3    4 ar
   6    3   20 1
   7    4    5 ar
   8    4   30 1
   9    5    6 ar
  10    5    7 1
  11    6   31 1
  12    7    8 1
  13    8   11 1
  14    8   10 2
  15    9   10 1
  16    9   17 1
  17    9   13 1
  18   10   32 1
  19   11   12 2
  20   11   33 1
  21   12   13 1
  22   12   14 1
  23   13   19 2
  24   14   15 am
  25   14   16 2
  26   15   21 1
  27   15   34 1
  28   17   18 2
  29   17   35 1
  30   18   19 1
  31   18   36 1
  32   20   27 3
  33   21   23 ar
  34   21   22 ar
  35   22   26 ar
  36   23   24 ar
  37   23   37 1
  38   24   25 ar
  39   24   38 1
  40   25   26 ar
  41   25   28 1
  42   26   39 1

#	End of record

