#	Name: ASD02198541
#	Creating user name:	WinNT
#	Creation time:	15. 06. 2019 20:19

#	Modifying user name:	WinNT
#	Modification time:	15. 06. 2019 20:19

#	Program:	/corina/corina34_cracker 3.40 0067  02.08.2006

@<TRIPOS>MOLECULE
ASD02198541
  50   53    0    0    0
SMALL
NO_CHARGES


@<TRIPOS>ATOM
   1 C1            -0.1298     0.5587    -2.6692 C.2     
   2 C2             0.1312    -0.7067    -2.2542 C.2     
   3 N3             1.1818    -0.9672    -1.4446 N.pl3   
   4 N4             1.9859    -0.0629    -1.0217 N.2     
   5 C5             1.8475     1.2028    -1.3477 C.2     
   6 C6             0.7325     1.5899    -2.2265 C.2     
   7 C7             1.4025    -2.2903    -1.0480 C.ar    
   8 C8             0.5693    -4.3662    -0.1833 C.ar    
   9 C9             1.8391    -4.9077    -0.2635 C.ar    
  10 C10            2.8926    -4.1422    -0.7296 C.ar    
  11 C11            2.6783    -2.8358    -1.1219 C.ar    
  12 C12            2.7958     2.2201    -0.8401 C.2     
  13 C13            3.8615     1.9955     0.0226 C.2     
  14 N14            4.4676     3.1982     0.2280 N.pl3   
  15 N15            3.7751     4.1658    -0.5088 N.2     
  16 C16            2.7892     3.5934    -1.1464 C.2     
  17 C17            4.2612     0.6987     0.6068 C.ar    
  18 C18            5.5619     0.2223     0.4326 C.ar    
  19 O19            0.5588     2.7526    -2.5604 O.2     
  20 C20            3.3414    -0.0532     1.3403 C.ar    
  21 C21            3.7212    -1.2633     1.8829 C.ar    
  22 C22            5.0103    -1.7322     1.7017 C.ar    
  23 C23            5.9284    -0.9894     0.9807 C.ar    
  24 C24            0.3479    -3.0601    -0.5740 C.ar    
  25 F25           -0.2822    -6.5588     0.1348 F       
  26 F26           -0.7667    -4.9551     1.6881 F       
  27 C27           -0.5755    -5.2042     0.3248 C.3     
  28 F28           -1.7406    -4.8765    -0.3770 F       
  29 C29            5.6400     3.4372     1.0734 C.3     
  30 C30            6.7741     4.0115     0.2220 C.3     
  31 C31            5.2779     4.4316     2.1783 C.3     
  32 H32           -0.9654     0.7712    -3.3195 H       
  33 H33           -0.5087    -1.5156    -2.5745 H       
  34 H34            2.0087    -5.9305     0.0388 H       
  35 H35            3.8832    -4.5681    -0.7907 H       
  36 H36            3.5012    -2.2387    -1.4861 H       
  37 H37            2.0836     4.0916    -1.7947 H       
  38 H38            6.2794     0.8009    -0.1302 H       
  39 H39            2.3350     0.3118     1.4828 H       
  40 H40            3.0109    -1.8458     2.4508 H       
  41 H41            5.3026    -2.6801     2.1290 H       
  42 H42            6.9329    -1.3614     0.8426 H       
  43 H43           -0.6440    -2.6376    -0.5108 H       
  44 H44            5.9623     2.4974     1.5217 H       
  45 H45            6.4518     4.9513    -0.2263 H       
  46 H46            7.6464     4.1893     0.8510 H       
  47 H47            7.0321     3.3031    -0.5652 H       
  48 H48            6.1501     4.6094     2.8073 H       
  49 H49            4.9555     5.3714     1.7300 H       
  50 H50            4.4699     4.0224     2.7848 H       
@<TRIPOS>BOND
   1    1    2 2
   2    1    6 1
   3    1   32 1
   4    2    3 1
   5    2   33 1
   6    3    4 1
   7    3    7 1
   8    4    5 2
   9    5    6 1
  10    5   12 1
  11    6   19 2
  12    7   24 ar
  13    7   11 ar
  14    8    9 ar
  15    8   27 1
  16    8   24 ar
  17    9   10 ar
  18    9   34 1
  19   10   11 ar
  20   10   35 1
  21   11   36 1
  22   12   13 2
  23   12   16 1
  24   13   14 1
  25   13   17 1
  26   14   15 1
  27   14   29 1
  28   15   16 2
  29   16   37 1
  30   17   20 ar
  31   17   18 ar
  32   18   23 ar
  33   18   38 1
  34   20   21 ar
  35   20   39 1
  36   21   22 ar
  37   21   40 1
  38   22   23 ar
  39   22   41 1
  40   23   42 1
  41   24   43 1
  42   25   27 1
  43   26   27 1
  44   27   28 1
  45   29   30 1
  46   29   31 1
  47   29   44 1
  48   30   45 1
  49   30   46 1
  50   30   47 1
  51   31   48 1
  52   31   49 1
  53   31   50 1

#	End of record

