#	Name: ASD03730334
#	Creating user name:	WinNT
#	Creation time:	15. 06. 2019 20:44

#	Modifying user name:	WinNT
#	Modification time:	15. 06. 2019 20:44

#	Program:	/corina/corina34_cracker 3.40 0067  02.08.2006

@<TRIPOS>MOLECULE
ASD03730334
  64   69    0    0    0
SMALL
NO_CHARGES


@<TRIPOS>ATOM
   1 C1             1.5573    -1.2864    -2.4137 C.2     
   2 C2             0.7041    -1.1969    -1.2096 C.ar    
   3 C3             1.2056    -0.6325    -0.0354 C.ar    
   4 C4             0.4041    -0.5515     1.0843 C.ar    
   5 C5            -0.8942    -1.0286     1.0455 C.ar    
   6 C6            -1.3974    -1.5891    -0.1148 C.ar    
   7 C7            -0.6081    -1.6709    -1.2436 C.ar    
   8 O8             2.6651    -0.7862    -2.4121 O.2     
   9 N9             1.1089    -1.9275    -3.5111 N.am    
  10 C10            1.9544    -2.0163    -4.7043 C.3     
  11 C11            1.2140    -2.7890    -5.7977 C.3     
  12 C12            2.0969    -2.8817    -7.0437 C.3     
  13 C13            1.3565    -3.6544    -8.1372 C.3     
  14 C14            2.2395    -3.7471    -9.3832 C.3     
  15 C15            2.6196    -0.1133     0.0088 C.3     
  16 O16            0.0928    -1.7703     6.5327 O.3     
  17 C17            0.0950    -1.6641     7.9686 C.3     
  18 O18            1.4935    -1.6023     8.3051 O.3     
  19 C19            2.1096    -1.0652     7.2111 C.ar    
  20 C20            1.2482    -1.1698     6.1214 C.ar    
  21 C21            3.3557    -0.4852     7.0546 C.ar    
  22 C22            3.7588    -0.0048     5.8123 C.ar    
  23 C23            2.8928    -0.1223     4.7294 C.ar    
  24 C24            1.6474    -0.6946     4.8835 C.ar    
  25 O25            4.9220     0.6087     5.4504 O.3     
  26 C26            3.6136     0.4527     3.5395 C.3     
  27 C27            5.0688     0.5419     4.0188 C.3     
  28 N28            2.9248     0.3575     1.3621 N.am    
  29 C29            3.4778    -0.4129     2.3201 C.2     
  30 C30            3.0735     1.7932     3.1379 C.ar    
  31 C31            2.9244     2.9944     3.7945 C.ar    
  32 C32            2.3780     4.0812     3.1354 C.ar    
  33 C33            1.9815     3.9580     1.8161 C.ar    
  34 C34            2.1280     2.7567     1.1544 C.ar    
  35 C35            2.6774     1.6574     1.8099 C.ar    
  36 O36            3.8025    -1.5770     2.2171 O.2     
  37 H37            0.7909    -0.1151     1.9933 H       
  38 H38           -1.5174    -0.9635     1.9252 H       
  39 H39           -2.4115    -1.9596    -0.1385 H       
  40 H40           -1.0034    -2.1050    -2.1501 H       
  41 H41            0.2264    -2.3301    -3.5110 H       
  42 H42            2.1853    -1.0127    -5.0615 H       
  43 H43            2.8801    -2.5354    -4.4558 H       
  44 H44            0.9831    -3.7926    -5.4405 H       
  45 H45            0.2883    -2.2699    -6.0461 H       
  46 H46            2.3278    -1.8781    -7.4009 H       
  47 H47            3.0226    -3.4008    -6.7953 H       
  48 H48            1.1256    -4.6580    -7.7800 H       
  49 H49            0.4308    -3.1353    -8.3856 H       
  50 H50            3.1651    -4.2663    -9.1348 H       
  51 H51            1.7120    -4.2976   -10.1622 H       
  52 H52            2.4703    -2.7435    -9.7404 H       
  53 H53            3.3090    -0.9131    -0.2617 H       
  54 H54            2.7260     0.7118    -0.6955 H       
  55 H55           -0.4159    -0.7551     8.2861 H       
  56 H56           -0.3687    -2.5421     8.4182 H       
  57 H57            4.0201    -0.4047     7.9022 H       
  58 H58            0.9819    -0.7725     4.0364 H       
  59 H59            5.5478     1.4433     3.6364 H       
  60 H60            5.6274    -0.3477     3.7280 H       
  61 H61            3.2345     3.0882     4.8247 H       
  62 H62            2.2617     5.0237     3.6497 H       
  63 H63            1.5549     4.8064     1.3017 H       
  64 H64            1.8155     2.6681     0.1244 H       
@<TRIPOS>BOND
   1    1    2 1
   2    1    8 2
   3    1    9 am
   4    2    3 ar
   5    2    7 ar
   6    3    4 ar
   7    3   15 1
   8    4    5 ar
   9    4   37 1
  10    5    6 ar
  11    5   38 1
  12    6    7 ar
  13    6   39 1
  14    7   40 1
  15    9   10 1
  16    9   41 1
  17   10   11 1
  18   10   42 1
  19   10   43 1
  20   11   12 1
  21   11   44 1
  22   11   45 1
  23   12   13 1
  24   12   46 1
  25   12   47 1
  26   13   14 1
  27   13   48 1
  28   13   49 1
  29   14   50 1
  30   14   51 1
  31   14   52 1
  32   15   28 1
  33   15   53 1
  34   15   54 1
  35   16   17 1
  36   16   20 1
  37   17   18 1
  38   17   55 1
  39   17   56 1
  40   18   19 1
  41   19   20 ar
  42   19   21 ar
  43   20   24 ar
  44   21   22 ar
  45   21   57 1
  46   22   23 ar
  47   22   25 1
  48   23   24 ar
  49   23   26 1
  50   24   58 1
  51   25   27 1
  52   26   27 1
  53   26   29 1
  54   26   30 1
  55   27   59 1
  56   27   60 1
  57   28   29 am
  58   28   35 1
  59   29   36 2
  60   30   31 ar
  61   30   35 ar
  62   31   32 ar
  63   31   61 1
  64   32   33 ar
  65   32   62 1
  66   33   34 ar
  67   33   63 1
  68   34   35 ar
  69   34   64 1

#	End of record

