#	Name: ASD01882651
#	Creating user name:	WinNT
#	Creation time:	15. 06. 2019 19:45

#	Modifying user name:	WinNT
#	Modification time:	15. 06. 2019 19:45

#	Program:	/corina/corina34_cracker 3.40 0067  02.08.2006

@<TRIPOS>MOLECULE
ASD01882651
  57   61    0    0    0
SMALL
NO_CHARGES


@<TRIPOS>ATOM
   1 C1            -0.2603     1.2741    -1.2205 C.2     
   2 C2             0.0216    -0.0953    -1.0792 C.2     
   3 C3             0.0300    -0.6486     0.1724 C.2     
   4 C4            -0.2436     0.1630     1.2950 C.2     
   5 C5            -0.5113     1.4738     1.1363 C.2     
   6 N6            -0.5222     2.0352    -0.1072 N.pl3   
   7 N7            -0.6302     3.2723    -1.8674 N.2     
   8 N8            -0.3368     2.0844    -2.2652 N.2     
   9 C9            -0.7533     3.2986    -0.5665 C.2     
  10 C10            0.3105    -0.9439    -2.2906 C.3     
  11 F11           -0.8286    -1.6847    -2.6234 F       
  12 F12            0.6607    -0.1191    -3.3649 F       
  13 F13            1.3676    -1.8156    -2.0080 F       
  14 N14            0.3060    -2.0025     0.3377 N.pl3   
  15 C15            1.6527    -2.4579     0.7148 C.3     
  16 C16            1.5296    -3.3961     1.9201 C.3     
  17 N17            0.5764    -4.4689     1.6062 N.3     
  18 C18           -0.7702    -3.9324     1.3677 C.3     
  19 C19           -0.7428    -3.0157     0.1457 C.3     
  20 C20            0.5591    -5.4343     2.6154 C.ar    
  21 C21           -0.0715    -5.1668     3.8239 C.ar    
  22 C22           -0.0872    -6.1237     4.8195 C.ar    
  23 C23            0.5239    -7.3472     4.6145 C.ar    
  24 C24            1.1526    -7.6168     3.4126 C.ar    
  25 C25            1.1674    -6.6662     2.4108 C.ar    
  26 C26            2.8975    -4.0047     2.2353 C.3     
  27 C27            1.0296    -2.6074     3.1321 C.3     
  28 C28           -1.0872     4.5049     0.2729 C.3     
  29 C29            0.2047     5.2153     0.6816 C.3     
  30 C30            0.0743     6.5356     1.4436 C.3     
  31 C31            0.5374     5.2734     2.1738 C.3     
  32 H32           -0.2385    -0.2689     2.2849 H       
  33 H33           -0.7197     2.0858     2.0015 H       
  34 H34            2.1058    -2.9922    -0.1203 H       
  35 H35            2.2686    -1.5988     0.9809 H       
  36 H36           -1.4635    -4.7548     1.1916 H       
  37 H37           -1.0943    -3.3630     2.2388 H       
  38 H38           -1.7099    -2.5252     0.0358 H       
  39 H39           -0.5244    -3.6046    -0.7451 H       
  40 H40           -0.5487    -4.2113     3.9848 H       
  41 H41           -0.5770    -5.9162     5.7594 H       
  42 H42            0.5105    -8.0936     5.3948 H       
  43 H43            1.6289    -8.5733     3.2557 H       
  44 H44            1.6547    -6.8791     1.4708 H       
  45 H45            3.6354    -3.2085     2.3339 H       
  46 H46            2.8398    -4.5644     3.1688 H       
  47 H47            3.1919    -4.6748     1.4275 H       
  48 H48            0.0461    -2.1912     2.9141 H       
  49 H49            0.9604    -3.2710     3.9940 H       
  50 H50            1.7261    -1.7982     3.3515 H       
  51 H51           -1.7105     5.1879    -0.3043 H       
  52 H52           -1.6259     4.1882     1.1660 H       
  53 H53            1.0363     5.1170    -0.0163 H       
  54 H54            0.8202     7.3058     1.2473 H       
  55 H55           -0.9320     6.8981     1.6537 H       
  56 H56           -0.1642     4.8055     2.8644 H       
  57 H57            1.5879     5.2132     2.4580 H       
@<TRIPOS>BOND
   1    1    2 1
   2    1    6 1
   3    1    8 2
   4    2    3 2
   5    2   10 1
   6    3    4 1
   7    3   14 1
   8    4    5 2
   9    4   32 1
  10    5    6 1
  11    5   33 1
  12    6    9 1
  13    7    8 1
  14    7    9 2
  15    9   28 1
  16   10   11 1
  17   10   12 1
  18   10   13 1
  19   14   15 1
  20   14   19 1
  21   15   16 1
  22   15   34 1
  23   15   35 1
  24   16   17 1
  25   16   26 1
  26   16   27 1
  27   17   18 1
  28   17   20 1
  29   18   19 1
  30   18   36 1
  31   18   37 1
  32   19   38 1
  33   19   39 1
  34   20   21 ar
  35   20   25 ar
  36   21   22 ar
  37   21   40 1
  38   22   23 ar
  39   22   41 1
  40   23   24 ar
  41   23   42 1
  42   24   25 ar
  43   24   43 1
  44   25   44 1
  45   26   45 1
  46   26   46 1
  47   26   47 1
  48   27   48 1
  49   27   49 1
  50   27   50 1
  51   28   29 1
  52   28   51 1
  53   28   52 1
  54   29   30 1
  55   29   31 1
  56   29   53 1
  57   30   31 1
  58   30   54 1
  59   30   55 1
  60   31   56 1
  61   31   57 1

#	End of record

