#	Name: ASD01917288
#	Creating user name:	WinNT
#	Creation time:	15. 06. 2019 20:09

#	Modifying user name:	WinNT
#	Modification time:	15. 06. 2019 20:09

#	Program:	/corina/corina34_cracker 3.40 0067  02.08.2006

@<TRIPOS>MOLECULE
ASD01917288
  38   40    0    0    0
SMALL
NO_CHARGES


@<TRIPOS>ATOM
   1 C1            -0.0180     1.4743     0.0101 C.2     
   2 C2             0.0021    -0.0041     0.0020 C.ar    
   3 C3             1.2185    -0.6884    -0.0133 C.ar    
   4 C4             1.2301    -2.0689    -0.0208 C.ar    
   5 C5             0.0380    -2.7738    -0.0138 C.ar    
   6 C6            -1.1702    -2.1007     0.0014 C.ar    
   7 C7            -1.1951    -0.7211     0.0154 C.ar    
   8 O8             1.0263     2.0963     0.0035 O.2     
   9 N9            -1.1942     2.1322     0.0193 N.am    
  10 Cl10           2.7415    -2.9227    -0.0399 Cl      
  11 C11           -1.2141     3.5971     0.0274 C.3     
  12 C12           -0.4908     4.1901     1.2492 C.3     
  13 C13           -0.3553     5.7025     1.0628 C.3     
  14 C14           -1.7287     6.3351     0.8299 C.3     
  15 C15           -2.3987     5.6498    -0.3739 C.3     
  16 C16           -1.3372     5.5376    -1.4925 C.3     
  17 C17           -0.5655     4.2082    -1.2361 C.3     
  18 C18           -2.6537     4.1757     0.0378 C.3     
  19 N19           -3.6136     6.3479    -0.8150 N.3     
  20 H20            2.1485    -0.1392    -0.0195 H       
  21 H21            0.0518    -3.8537    -0.0204 H       
  22 H22           -2.0964    -2.6563     0.0065 H       
  23 H23           -2.1394    -0.1972     0.0317 H       
  24 H24           -2.0276     1.6359     0.0206 H       
  25 H25           -1.0682     3.9840     2.1504 H       
  26 H26            0.4995     3.7436     1.3389 H       
  27 H27            0.0952     6.1370     1.9552 H       
  28 H28            0.2850     5.9042     0.2041 H       
  29 H29           -2.3474     6.2004     1.7171 H       
  30 H30           -1.6101     7.3989     0.6244 H       
  31 H31           -1.8228     5.5054    -2.4679 H       
  32 H32           -0.6502     6.3824    -1.4431 H       
  33 H33            0.4889     4.4152    -1.0533 H       
  34 H34           -0.6732     3.5264    -2.0797 H       
  35 H35           -3.2872     3.6605    -0.6842 H       
  36 H36           -3.0860     4.1301     1.0374 H       
  37 H37           -3.4077     7.2993    -1.0806 H       
  38 H38           -4.0625     5.8509    -1.5697 H       
@<TRIPOS>BOND
   1    1    2 1
   2    1    8 2
   3    1    9 am
   4    2    3 ar
   5    2    7 ar
   6    3    4 ar
   7    3   20 1
   8    4    5 ar
   9    4   10 1
  10    5    6 ar
  11    5   21 1
  12    6    7 ar
  13    6   22 1
  14    7   23 1
  15    9   11 1
  16    9   24 1
  17   11   12 1
  18   11   17 1
  19   11   18 1
  20   12   13 1
  21   12   25 1
  22   12   26 1
  23   13   14 1
  24   13   27 1
  25   13   28 1
  26   14   15 1
  27   14   29 1
  28   14   30 1
  29   15   16 1
  30   15   18 1
  31   15   19 1
  32   16   17 1
  33   16   31 1
  34   16   32 1
  35   17   33 1
  36   17   34 1
  37   18   35 1
  38   18   36 1
  39   19   37 1
  40   19   38 1

#	End of record

