#	Name: ASD03091090
#	Creating user name:	WinNT
#	Creation time:	15. 06. 2019 20:30

#	Modifying user name:	WinNT
#	Modification time:	15. 06. 2019 20:30

#	Program:	/corina/corina34_cracker 3.40 0067  02.08.2006

@<TRIPOS>MOLECULE
ASD03091090
  42   44    0    0    0
SMALL
NO_CHARGES


@<TRIPOS>ATOM
   1 C1            -0.0405     1.4283    -0.5160 C.2     
   2 C2            -0.0088    -0.0265    -0.2534 C.ar    
   3 C3             1.2136    -0.6874    -0.1185 C.ar    
   4 C4             1.2406    -2.0450     0.1266 C.ar    
   5 C5             0.0601    -2.7555     0.2399 C.ar    
   6 C6            -1.1620    -2.1070     0.1073 C.ar    
   7 C7            -1.1999    -0.7419    -0.1339 C.ar    
   8 O8             0.5261     1.8823    -1.4909 O.2     
   9 N9            -0.7022     2.2502     0.3224 N.am    
  10 N10           -2.3523    -2.8295     0.2222 N.pl3   
  11 N11           -3.3504    -5.2913     2.4512 N.3     
  12 C12           -2.1908    -4.5168     1.9890 C.3     
  13 C13           -2.3123    -4.2706     0.4824 C.3     
  14 C14           -3.6068    -4.9202    -0.0225 C.3     
  15 C15           -4.7905    -4.3047     0.7342 C.3     
  16 C16           -4.6007    -4.5505     2.2337 C.3     
  17 C17           -3.5545    -6.4214     0.2887 C.3     
  18 C18           -3.3993    -6.6079     1.8006 C.3     
  19 N19            2.4807     0.0682    -0.2389 N.pl3   
  20 O20            3.5445    -0.5248    -0.2523 O.2     
  21 O21            2.4595     1.2830    -0.3246 O.2     
  22 C22           -0.7335     3.6915     0.0622 C.3     
  23 H23            2.1873    -2.5545     0.2299 H       
  24 H24            0.0876    -3.8179     0.4318 H       
  25 H25           -2.1485    -0.2353    -0.2332 H       
  26 H26           -1.1576     1.8874     1.0982 H       
  27 H27           -3.2052    -2.3769     0.1296 H       
  28 H28           -2.1598    -3.5611     2.5123 H       
  29 H29           -1.2765    -5.0738     2.1939 H       
  30 H30           -1.4566    -4.7106    -0.0297 H       
  31 H31           -3.7179    -4.7513    -1.0936 H       
  32 H32           -4.8291    -3.2324     0.5420 H       
  33 H33           -5.7183    -4.7707     0.4023 H       
  34 H34           -5.4394    -5.1324     2.6159 H       
  35 H35           -4.5528    -3.5948     2.7557 H       
  36 H36           -4.4773    -6.8959    -0.0450 H       
  37 H37           -2.7042    -6.8712    -0.2240 H       
  38 H38           -2.4766    -7.1502     2.0073 H       
  39 H39           -4.2478    -7.1729     2.1863 H       
  40 H40            0.2840     4.0824     0.0589 H       
  41 H41           -1.1967     3.8757    -0.9071 H       
  42 H42           -1.3112     4.1889     0.8413 H       
@<TRIPOS>BOND
   1    1    2 1
   2    1    8 2
   3    1    9 am
   4    2    3 ar
   5    2    7 ar
   6    3    4 ar
   7    3   19 1
   8    4    5 ar
   9    4   23 1
  10    5    6 ar
  11    5   24 1
  12    6    7 ar
  13    6   10 1
  14    7   25 1
  15    9   22 1
  16    9   26 1
  17   10   13 1
  18   10   27 1
  19   11   12 1
  20   11   16 1
  21   11   18 1
  22   12   13 1
  23   12   28 1
  24   12   29 1
  25   13   14 1
  26   13   30 1
  27   14   15 1
  28   14   17 1
  29   14   31 1
  30   15   16 1
  31   15   32 1
  32   15   33 1
  33   16   34 1
  34   16   35 1
  35   17   18 1
  36   17   36 1
  37   17   37 1
  38   18   38 1
  39   18   39 1
  40   19   20 2
  41   19   21 2
  42   22   40 1
  43   22   41 1
  44   22   42 1

#	End of record

