#	Name: ASD01882187
#	Creating user name:	WinNT
#	Creation time:	15. 06. 2019 19:44

#	Modifying user name:	WinNT
#	Modification time:	15. 06. 2019 19:44

#	Program:	/corina/corina34_cracker 3.40 0067  02.08.2006

@<TRIPOS>MOLECULE
ASD01882187
  13   13    0    0    0
SMALL
NO_CHARGES


@<TRIPOS>ATOM
   1 N1            -0.0168     1.3865     0.0097 N.pl3   
   2 C2             0.0021    -0.0041     0.0020 C.ar    
   3 C3             1.2204    -0.6775    -0.0132 C.ar    
   4 C4             1.2237    -2.0619    -0.0207 C.ar    
   5 C5             0.0039    -2.7276    -0.0126 C.ar    
   6 C6            -1.1655    -1.9954     0.0025 C.ar    
   7 N7            -1.1386    -0.6757     0.0148 N.ar    
   8 I8             3.0265    -3.1290    -0.0443 I       
   9 Cl9            2.7145     0.2064    -0.0233 Cl      
  10 H10            0.8166     1.8829     0.0044 H       
  11 H11           -0.8633     1.8600     0.0163 H       
  12 H12           -0.0284    -3.8071    -0.0185 H       
  13 H13           -2.1156    -2.5090     0.0088 H       
@<TRIPOS>BOND
   1    1    2 1
   2    1   10 1
   3    1   11 1
   4    2    3 ar
   5    2    7 ar
   6    3    4 ar
   7    3    9 1
   8    4    5 ar
   9    4    8 1
  10    5    6 ar
  11    5   12 1
  12    6    7 ar
  13    6   13 1

#	End of record

