#	Name: ASD00890008
#	Creating user name:	WinNT
#	Creation time:	15. 06. 2019 18:53

#	Modifying user name:	WinNT
#	Modification time:	15. 06. 2019 18:53

#	Program:	/corina/corina34_cracker 3.40 0067  02.08.2006

@<TRIPOS>MOLECULE
ASD00890008
  56   60    0    0    0
SMALL
NO_CHARGES


@<TRIPOS>ATOM
   1 C1             0.6095     0.6044    -0.6594 C.ar    
   2 C2             0.7112    -0.7710    -0.7672 C.ar    
   3 C3             1.9514    -1.3763    -0.7608 C.ar    
   4 C4             3.1023    -0.5996    -0.6454 C.ar    
   5 C5             2.9942     0.7849    -0.5371 C.ar    
   6 C6             1.7487     1.3801    -0.5446 C.ar    
   7 S7             1.6101     3.1313    -0.4076 S.o2    
   8 O8             0.3095     3.3923     0.1018 O.2     
   9 O9             2.7986     3.5793     0.2294 O.2     
  10 N10            1.6426     3.7473    -1.9445 N.am    
  11 C11            4.4391    -1.2453    -0.6374 C.2     
  12 C12            4.6888    -2.5831    -0.7351 C.2     
  13 N13            6.0287    -2.7526    -0.6882 N.pl3   
  14 N14            6.6241    -1.4920    -0.5585 N.2     
  15 C15            5.6809    -0.5874    -0.5337 C.2     
  16 C16            0.6665     3.3793    -2.8606 C.ar    
  17 C17           -0.6410     3.1667    -2.4407 C.ar    
  18 C18           -1.6091     2.8012    -3.3530 C.ar    
  19 C19           -1.2880     2.6430    -4.6923 C.ar    
  20 C20            0.0021     2.8491    -5.1279 C.ar    
  21 C21            0.9938     3.2256    -4.2173 C.ar    
  22 C22            2.3756     3.4482    -4.6762 C.2     
  23 O23            2.6873     3.2891    -5.9776 O.3     
  24 O24            3.2346     3.7754    -3.8813 O.2     
  25 C25            6.7038    -3.9756    -0.7565 C.ar    
  26 C26            6.3365    -5.0188     0.0647 C.ar    
  27 C27            7.0015    -6.2404     0.0044 C.ar    
  28 C28            8.0303    -6.4383    -0.8648 C.ar    
  29 C29            8.4360    -5.3993    -1.7199 C.ar    
  30 C30            7.7633    -4.1536    -1.6713 C.ar    
  31 C31            9.4949    -5.5747    -2.6276 C.ar    
  32 C32            9.8618    -4.5472    -3.4412 C.ar    
  33 C33            9.2028    -3.3205    -3.3888 C.ar    
  34 C34            8.1693    -3.1169    -2.5262 C.ar    
  35 C35            5.2022    -4.8355     1.0398 C.3     
  36 H36           -0.3627     1.0745    -0.6693 H       
  37 H37           -0.1816    -1.3722    -0.8563 H       
  38 H38            2.0297    -2.4502    -0.8447 H       
  39 H39            3.8832     1.3916    -0.4474 H       
  40 H40            2.3436     4.3652    -2.2046 H       
  41 H41            3.9498    -3.3647    -0.8322 H       
  42 H42            5.8276     0.4787    -0.4424 H       
  43 H43           -0.8995     3.2875    -1.3991 H       
  44 H44           -2.6237     2.6368    -3.0215 H       
  45 H45           -2.0537     2.3562    -5.3978 H       
  46 H46            0.2466     2.7241    -6.1724 H       
  47 H47            3.6071     3.4463    -6.2312 H       
  48 H48            6.6965    -7.0440     0.6582 H       
  49 H49            8.5346    -7.3928    -0.8970 H       
  50 H50           10.0148    -6.5199    -2.6789 H       
  51 H51           10.6759    -4.6845    -4.1375 H       
  52 H52            9.5135    -2.5211    -4.0452 H       
  53 H53            7.6676    -2.1610    -2.4963 H       
  54 H54            4.2745    -5.1872     0.5883 H       
  55 H55            5.4053    -5.4076     1.9451 H       
  56 H56            5.1064    -3.7793     1.2913 H       
@<TRIPOS>BOND
   1    1    2 ar
   2    1    6 ar
   3    1   36 1
   4    2    3 ar
   5    2   37 1
   6    3    4 ar
   7    3   38 1
   8    4    5 ar
   9    4   11 1
  10    5    6 ar
  11    5   39 1
  12    6    7 1
  13    7    8 2
  14    7    9 2
  15    7   10 am
  16   10   16 1
  17   10   40 1
  18   11   12 2
  19   11   15 1
  20   12   13 1
  21   12   41 1
  22   13   14 1
  23   13   25 1
  24   14   15 2
  25   15   42 1
  26   16   17 ar
  27   16   21 ar
  28   17   18 ar
  29   17   43 1
  30   18   19 ar
  31   18   44 1
  32   19   20 ar
  33   19   45 1
  34   20   21 ar
  35   20   46 1
  36   21   22 1
  37   22   23 1
  38   22   24 2
  39   23   47 1
  40   25   26 ar
  41   25   30 ar
  42   26   27 ar
  43   26   35 1
  44   27   28 ar
  45   27   48 1
  46   28   29 ar
  47   28   49 1
  48   29   30 ar
  49   29   31 ar
  50   30   34 ar
  51   31   32 ar
  52   31   50 1
  53   32   33 ar
  54   32   51 1
  55   33   34 ar
  56   33   52 1
  57   34   53 1
  58   35   54 1
  59   35   55 1
  60   35   56 1

#	End of record

