#	Name: ASD07300701
#	Creating user name:	WinNT
#	Creation time:	15. 06. 2019 21:10

#	Modifying user name:	WinNT
#	Modification time:	15. 06. 2019 21:10

#	Program:	/corina/corina34_cracker 3.40 0067  02.08.2006

@<TRIPOS>MOLECULE
ASD07300701
  48   51    0    0    0
SMALL
NO_CHARGES


@<TRIPOS>ATOM
   1 C1            -0.0178     1.4606     0.0101 C.2     
   2 C2             0.0021    -0.0041     0.0020 C.2     
   3 N3             1.1864     2.1258     0.0021 N.pl3   
   4 N4             1.1643    -0.6258    -0.0124 N.2     
   5 C5             2.3153     0.0547    -0.0198 C.2     
   6 C6             2.3501     1.3990    -0.0125 C.2     
   7 N7            -0.9937     2.3442     0.0294 N.2     
   8 C8            -0.4738     3.5832     0.0281 C.2     
   9 C9             0.9145     3.4615     0.0119 C.2     
  10 C10           -1.2342     4.8433     0.0457 C.2     
  11 O11           -0.6466     5.9084     0.0421 O.2     
  12 N12           -2.5816     4.8171     0.0658 N.am    
  13 N13           -1.1812    -0.7240     0.0099 N.pl3   
  14 C14           -1.1726    -2.1955     0.0019 C.3     
  15 C15           -2.0827    -2.6904     1.1318 C.3     
  16 O16           -3.3617    -2.0624     1.0153 O.3     
  17 C17           -3.3302    -0.6400     1.1557 C.3     
  18 C18           -2.4839    -0.0401     0.0327 C.3     
  19 N19            2.9320     6.4423    -0.4668 N.pl3   
  20 N20            3.6700     5.7669     0.5120 N.2     
  21 C21            3.0627     4.6479     0.8011 C.2     
  22 C22            1.8978     4.5632     0.0084 C.2     
  23 C23            1.8491     5.6998    -0.7700 C.2     
  24 C24            3.2751     7.7386    -1.0567 C.3     
  25 C25            3.4544     8.7737     0.0556 C.3     
  26 O26            3.7890    10.0382    -0.5198 O.3     
  27 C27            3.9793    11.0809     0.4387 C.3     
  28 H28            3.2463    -0.4926    -0.0312 H       
  29 H29            3.3013     1.9104    -0.0188 H       
  30 H30           -3.0502     3.9677     0.0686 H       
  31 H31           -3.0827     5.6475     0.0773 H       
  32 H32           -1.5450    -2.5596    -0.9556 H       
  33 H33           -0.1572    -2.5576     0.1632 H       
  34 H34           -2.2000    -3.7716     1.0577 H       
  35 H35           -1.6389    -2.4367     2.0945 H       
  36 H36           -4.3449    -0.2460     1.0988 H       
  37 H37           -2.8909    -0.3788     2.1184 H       
  38 H38           -2.3364     1.0245     0.2143 H       
  39 H39           -2.9906    -0.1835    -0.9217 H       
  40 H40            3.3940     3.9147     1.5215 H       
  41 H41            1.0837     5.9495    -1.4899 H       
  42 H42            4.2033     7.6469    -1.6207 H       
  43 H43            2.4744     8.0574    -1.7240 H       
  44 H44            2.5262     8.8654     0.6197 H       
  45 H45            4.2551     8.4549     0.7230 H       
  46 H46            3.0620    11.2204     1.0107 H       
  47 H47            4.7909    10.8099     1.1140 H       
  48 H48            4.2302    12.0075    -0.0775 H       
@<TRIPOS>BOND
   1    1    2 1
   2    1    3 1
   3    1    7 2
   4    2    4 2
   5    2   13 1
   6    3    6 1
   7    3    9 1
   8    4    5 1
   9    5    6 2
  10    5   28 1
  11    6   29 1
  12    7    8 1
  13    8    9 2
  14    8   10 1
  15    9   22 1
  16   10   11 2
  17   10   12 am
  18   12   30 1
  19   12   31 1
  20   13   14 1
  21   13   18 1
  22   14   15 1
  23   14   32 1
  24   14   33 1
  25   15   16 1
  26   15   34 1
  27   15   35 1
  28   16   17 1
  29   17   18 1
  30   17   36 1
  31   17   37 1
  32   18   38 1
  33   18   39 1
  34   19   20 1
  35   19   23 1
  36   19   24 1
  37   20   21 2
  38   21   22 1
  39   21   40 1
  40   22   23 2
  41   23   41 1
  42   24   25 1
  43   24   42 1
  44   24   43 1
  45   25   26 1
  46   25   44 1
  47   25   45 1
  48   26   27 1
  49   27   46 1
  50   27   47 1
  51   27   48 1

#	End of record

