#	Name: ASD00330004
#	Creating user name:	WinNT
#	Creation time:	15. 06. 2019 18:35

#	Modifying user name:	WinNT
#	Modification time:	15. 06. 2019 18:35

#	Program:	/corina/corina34_cracker 3.40 0067  02.08.2006

@<TRIPOS>MOLECULE
ASD00330004
  20   21    0    0    0
SMALL
NO_CHARGES


@<TRIPOS>ATOM
   1 C1            -0.0169     1.3986     0.0097 C.ar    
   2 C2             0.0021    -0.0041     0.0020 C.ar    
   3 C3            -1.1599    -0.7190     0.0097 C.ar    
   4 C4            -2.3924    -0.0442     0.0255 C.ar    
   5 C5            -2.4116     1.3734     0.0334 C.ar    
   6 C6            -1.1978     2.0815     0.0304 C.ar    
   7 C7            -3.6080    -0.7495     0.0332 C.ar    
   8 C8            -4.7843    -0.0648     0.0482 C.ar    
   9 C9            -4.8032     1.3287     0.0560 C.ar    
  10 C10           -3.6459     2.0453     0.0488 C.ar    
  11 O11            1.1559     2.0858     0.0022 O.3     
  12 O12            1.1931    -0.6591    -0.0137 O.3     
  13 H13           -1.1326    -1.7986     0.0033 H       
  14 H14           -1.1998     3.1615     0.0362 H       
  15 H15           -3.6088    -1.8295     0.0270 H       
  16 H16           -5.7168    -0.6094     0.0537 H       
  17 H17           -5.7502     1.8478     0.0675 H       
  18 H18           -3.6761     3.1248     0.0554 H       
  19 H19            1.4868     2.2894    -0.8833 H       
  20 H20            1.5468    -0.8534     0.8650 H       
@<TRIPOS>BOND
   1    1    2 ar
   2    1   11 1
   3    1    6 ar
   4    2    3 ar
   5    2   12 1
   6    3    4 ar
   7    3   13 1
   8    4    5 ar
   9    4    7 ar
  10    5    6 ar
  11    5   10 ar
  12    6   14 1
  13    7    8 ar
  14    7   15 1
  15    8    9 ar
  16    8   16 1
  17    9   10 ar
  18    9   17 1
  19   10   18 1
  20   11   19 1
  21   12   20 1

#	End of record

