#	Name: ASD03092179
#	Creating user name:	WinNT
#	Creation time:	15. 06. 2019 20:32

#	Modifying user name:	WinNT
#	Modification time:	15. 06. 2019 20:32

#	Program:	/corina/corina34_cracker 3.40 0067  02.08.2006

@<TRIPOS>MOLECULE
ASD03092179
  49   52    0    0    0
SMALL
NO_CHARGES


@<TRIPOS>ATOM
   1 N1            -0.0650     1.2638    -0.3082 N.pl3   
   2 C2            -0.2398     0.0013     0.1759 C.2     
   3 C3            -1.5826    -0.1955     0.3303 C.2     
   4 C4            -2.2359     0.9768    -0.0703 C.2     
   5 N5            -1.3297     1.8495    -0.4464 N.2     
   6 C6             0.8286    -0.9762     0.4779 C.ar    
   7 C7             0.6049    -2.0347     1.3658 C.ar    
   8 C8             1.6292    -2.9230     1.6187 C.ar    
   9 N9             2.8055    -2.7843     1.0372 N.ar    
  10 C10            3.0583    -1.8011     0.1943 C.ar    
  11 C11            2.0893    -0.8715    -0.1206 C.ar    
  12 C12            1.2181     1.8973    -0.6221 C.3     
  13 N13           -3.6204     1.1847    -0.0656 N.pl3   
  14 C14           -4.1397     2.4454    -0.3808 C.ar    
  15 C15           -5.4182     2.5571    -0.9105 C.ar    
  16 C16           -5.9325     3.8018    -1.2218 C.ar    
  17 C17           -5.1742     4.9407    -1.0068 C.ar    
  18 C18           -3.8909     4.8321    -0.4755 C.ar    
  19 C19           -3.3784     3.5855    -0.1585 C.ar    
  20 O20           -3.3583     6.0838    -0.3619 O.3     
  21 O21           -5.4448     6.2619    -1.2257 O.3     
  22 C22           -4.4766     6.9869    -0.4446 C.3     
  23 F23           -4.9810     7.2626     0.8308 F       
  24 F24           -4.1066     8.1692    -1.0945 F       
  25 C25            1.5034     1.7573    -2.1187 C.3     
  26 C26            2.8337     2.3895    -2.4378 C.2     
  27 N27            3.2951     2.3858    -3.7041 N.am    
  28 C28            4.5883     3.0003    -4.0143 C.3     
  29 O29            3.4890     2.9016    -1.5551 O.2     
  30 C30            2.5035     1.7672    -4.7704 C.3     
  31 H31           -2.0561    -1.0948     0.6955 H       
  32 H32           -0.3551    -2.1539     1.8458 H       
  33 H33            1.4663    -3.7431     2.3024 H       
  34 H34            4.0358    -1.7260    -0.2587 H       
  35 H35            2.3032    -0.0693    -0.8113 H       
  36 H36            1.1759     2.9539    -0.3576 H       
  37 H37            2.0116     1.4119    -0.0540 H       
  38 H38           -4.2197     0.4550     0.1561 H       
  39 H39           -6.0114     1.6706    -1.0798 H       
  40 H40           -6.9272     3.8864    -1.6337 H       
  41 H41           -2.3840     3.4992     0.2539 H       
  42 H42            1.5296     0.7010    -2.3864 H       
  43 H43            0.7183     2.2567    -2.6866 H       
  44 H44            5.3774     2.2545    -3.9179 H       
  45 H45            4.5731     3.3834    -5.0346 H       
  46 H46            4.7766     3.8201    -3.3211 H       
  47 H47            1.8388     2.5119    -5.2082 H       
  48 H48            3.1709     1.3788    -5.5397 H       
  49 H49            1.9119     0.9506    -4.3566 H       
@<TRIPOS>BOND
   1    1    2 1
   2    1   12 1
   3    1    5 1
   4    2    3 2
   5    2    6 1
   6    3    4 1
   7    3   31 1
   8    4    5 2
   9    4   13 1
  10    6    7 ar
  11    6   11 ar
  12    7    8 ar
  13    7   32 1
  14    8    9 ar
  15    8   33 1
  16    9   10 ar
  17   10   11 ar
  18   10   34 1
  19   11   35 1
  20   12   25 1
  21   12   36 1
  22   12   37 1
  23   13   14 1
  24   13   38 1
  25   14   15 ar
  26   14   19 ar
  27   15   16 ar
  28   15   39 1
  29   16   17 ar
  30   16   40 1
  31   17   18 ar
  32   17   21 1
  33   18   19 ar
  34   18   20 1
  35   19   41 1
  36   20   22 1
  37   21   22 1
  38   22   23 1
  39   22   24 1
  40   25   26 1
  41   25   42 1
  42   25   43 1
  43   26   27 am
  44   26   29 2
  45   27   28 1
  46   27   30 1
  47   28   44 1
  48   28   45 1
  49   28   46 1
  50   30   47 1
  51   30   48 1
  52   30   49 1

#	End of record

