#	Name: ASD02030313
#	Creating user name:	WinNT
#	Creation time:	15. 06. 2019 20:15

#	Modifying user name:	WinNT
#	Modification time:	15. 06. 2019 20:15

#	Program:	/corina/corina34_cracker 3.40 0067  02.08.2006

@<TRIPOS>MOLECULE
ASD02030313
  52   55    0    0    0
SMALL
NO_CHARGES


@<TRIPOS>ATOM
   1 N1            -0.6689     3.0372    -1.4180 N.am    
   2 C2            -0.2449     1.6961    -1.8442 C.3     
   3 C3            -0.4863     0.7158    -0.6896 C.3     
   4 N4            -1.8577     0.9013    -0.1950 N.am    
   5 C5            -2.2817     2.2423     0.2311 C.3     
   6 C6            -2.0386     3.2215    -0.9182 C.3     
   7 C7             0.1848     4.0782    -1.4793 C.2     
   8 C8             1.5871     3.8608    -1.8938 C.2     
   9 N9             2.4049     4.7764    -2.3667 N.2     
  10 N10            2.2537     2.6928    -1.8484 N.2     
  11 C11            3.4619     2.9167    -2.2987 C.2     
  12 N12            3.5417     4.2246    -2.6189 N.pl3   
  13 C13            4.6701     4.8735    -3.1382 C.ar    
  14 O14           -0.1982     5.1960    -1.1936 O.2     
  15 C15           -2.7115    -0.1398    -0.1337 C.2     
  16 C16           -2.2724    -1.4847    -0.5737 C.ar    
  17 O17           -3.8413     0.0246     0.2823 O.2     
  18 C18           -3.2178    -2.4142    -0.9969 C.ar    
  19 C19            4.6206     6.2304    -3.4267 C.ar    
  20 C20            5.7355     6.8676    -3.9389 C.ar    
  21 C21            6.8992     6.1535    -4.1641 C.ar    
  22 C22            6.9502     4.8016    -3.8778 C.ar    
  23 C23            5.8416     4.1614    -3.3598 C.ar    
  24 Cl24           5.6753     8.5645    -4.3003 Cl      
  25 N25           -0.9798    -1.7901    -0.5656 N.ar    
  26 C26           -0.5481    -2.9760    -0.9499 C.ar    
  27 C27           -1.4409    -3.9539    -1.3805 C.ar    
  28 C28           -2.7950    -3.6703    -1.4071 C.ar    
  29 O29            0.7813    -3.2457    -0.9257 O.3     
  30 C30            1.6469    -2.2021    -0.4746 C.3     
  31 C31           -3.0316     2.9432    -2.0485 C.3     
  32 H32           -0.8259     1.3877    -2.7133 H       
  33 H33            0.8154     1.7105    -2.0962 H       
  34 H34           -0.3609    -0.3067    -1.0456 H       
  35 H35            0.2225     0.9155     0.1141 H       
  36 H36           -3.3421     2.2279     0.4832 H       
  37 H37           -1.7007     2.5507     1.1003 H       
  38 H38           -2.1644     4.2435    -0.5609 H       
  39 H39            4.2528     2.1874    -2.3935 H       
  40 H40           -4.2676    -2.1609    -1.0057 H       
  41 H41            3.7121     6.7876    -3.2516 H       
  42 H42            7.7690     6.6529    -4.5647 H       
  43 H43            7.8596     4.2467    -4.0553 H       
  44 H44            5.8827     3.1057    -3.1361 H       
  45 H45           -1.0800    -4.9224    -1.6940 H       
  46 H46           -3.5076    -4.4118    -1.7370 H       
  47 H47            2.6800    -2.5485    -0.5046 H       
  48 H48            1.5362    -1.3327    -1.1226 H       
  49 H49            1.3848    -1.9291     0.5476 H       
  50 H50           -4.0489     3.0663    -1.6770 H       
  51 H51           -2.8563     3.6421    -2.8663 H       
  52 H52           -2.8968     1.9228    -2.4075 H       
@<TRIPOS>BOND
   1    1    2 1
   2    1    7 am
   3    1    6 1
   4    2    3 1
   5    2   32 1
   6    2   33 1
   7    3    4 1
   8    3   34 1
   9    3   35 1
  10    4    5 1
  11    4   15 am
  12    5    6 1
  13    5   36 1
  14    5   37 1
  15    6   31 1
  16    6   38 1
  17    7    8 1
  18    7   14 2
  19    8    9 2
  20    8   10 1
  21    9   12 1
  22   10   11 2
  23   11   12 1
  24   11   39 1
  25   12   13 1
  26   13   19 ar
  27   13   23 ar
  28   15   16 1
  29   15   17 2
  30   16   25 ar
  31   16   18 ar
  32   18   28 ar
  33   18   40 1
  34   19   20 ar
  35   19   41 1
  36   20   21 ar
  37   20   24 1
  38   21   22 ar
  39   21   42 1
  40   22   23 ar
  41   22   43 1
  42   23   44 1
  43   25   26 ar
  44   26   27 ar
  45   26   29 1
  46   27   28 ar
  47   27   45 1
  48   28   46 1
  49   29   30 1
  50   30   47 1
  51   30   48 1
  52   30   49 1
  53   31   50 1
  54   31   51 1
  55   31   52 1

#	End of record

