#	Name: ASD01811018
#	Creating user name:	WinNT
#	Creation time:	15. 06. 2019 19:25

#	Modifying user name:	WinNT
#	Modification time:	15. 06. 2019 19:25

#	Program:	/corina/corina34_cracker 3.40 0067  02.08.2006

@<TRIPOS>MOLECULE
ASD01811018
  50   52    0    0    0
SMALL
NO_CHARGES


@<TRIPOS>ATOM
   1 C1            -0.0179     1.4668     0.0101 C.2     
   2 C2             0.0021    -0.0041     0.0020 C.2     
   3 N3            -1.1558    -0.6938     0.0094 N.am    
   4 O4             1.0634    -0.5977    -0.0113 O.2     
   5 C5            -1.1360    -2.1586     0.0013 C.3     
   6 C6            -2.4310    -2.6913     0.6208 C.3     
   7 C7            -2.4313    -4.2203     0.5542 C.3     
   8 N8            -2.3240    -4.6506    -0.8457 N.3     
   9 C9            -1.0660    -4.1907    -1.4476 C.3     
  10 C10           -1.0249    -2.6609    -1.4409 C.3     
  11 C11           -2.4603    -6.1087    -0.9601 C.3     
  12 C12           -2.5936    -6.4943    -2.4347 C.3     
  13 C13           -2.7356    -8.0131    -2.5539 C.3     
  14 N14           -2.8633    -8.3823    -3.9659 N.am    
  15 C15           -1.7663    -8.6571    -4.7048 C.2     
  16 C16           -4.1263    -8.4614    -4.5695 C.ar    
  17 C17           -4.2572    -9.1167    -5.7933 C.ar    
  18 C18           -1.9149    -8.9979    -6.1657 C.3     
  19 O19           -3.1592    -9.6641    -6.3797 O.3     
  20 O20           -0.6661    -8.6294    -4.1949 O.2     
  21 C21           -5.2368    -7.8983    -3.9638 C.ar    
  22 C22           -5.4979    -9.2031    -6.3994 C.ar    
  23 C23           -6.6038    -8.6383    -5.7891 C.ar    
  24 C24           -6.4740    -7.9887    -4.5759 C.ar    
  25 C25            1.1247     2.1474     0.0029 C.2     
  26 H26           -0.9604     1.9940     0.0174 H       
  27 H27           -2.0023    -0.2203     0.0200 H       
  28 H28           -0.2827    -2.5145     0.5787 H       
  29 H29           -2.4948    -2.3723     1.6611 H       
  30 H30           -3.2858    -2.3028     0.0672 H       
  31 H31           -1.5840    -4.6085     1.1195 H       
  32 H32           -3.3584    -4.6022     0.9816 H       
  33 H33           -0.2251    -4.5792    -0.8730 H       
  34 H34           -1.0015    -4.5512    -2.4743 H       
  35 H35           -1.8577    -2.2719    -2.0268 H       
  36 H36           -0.0843    -2.3202    -1.8735 H       
  37 H37           -1.5788    -6.5904    -0.5369 H       
  38 H38           -3.3479    -6.4344    -0.4177 H       
  39 H39           -3.4751    -6.0127    -2.8579 H       
  40 H40           -1.7060    -6.1687    -2.9771 H       
  41 H41           -1.8541    -8.4947    -2.1307 H       
  42 H42           -3.6232    -8.3387    -2.0115 H       
  43 H43           -1.8864    -8.0824    -6.7566 H       
  44 H44           -1.0977    -9.6516    -6.4708 H       
  45 H45           -5.1373    -7.3903    -3.0159 H       
  46 H46           -5.6030    -9.7101    -7.3472 H       
  47 H47           -7.5722    -8.7054    -6.2624 H       
  48 H48           -7.3412    -7.5502    -4.1045 H       
  49 H49            1.1101     3.2272     0.0088 H       
  50 H50            2.0672     1.6202    -0.0090 H       
@<TRIPOS>BOND
   1    1    2 1
   2    1   25 2
   3    1   26 1
   4    2    3 am
   5    2    4 2
   6    3    5 1
   7    3   27 1
   8    5    6 1
   9    5   10 1
  10    5   28 1
  11    6    7 1
  12    6   29 1
  13    6   30 1
  14    7    8 1
  15    7   31 1
  16    7   32 1
  17    8    9 1
  18    8   11 1
  19    9   10 1
  20    9   33 1
  21    9   34 1
  22   10   35 1
  23   10   36 1
  24   11   12 1
  25   11   37 1
  26   11   38 1
  27   12   13 1
  28   12   39 1
  29   12   40 1
  30   13   14 1
  31   13   41 1
  32   13   42 1
  33   14   15 am
  34   14   16 1
  35   15   18 1
  36   15   20 2
  37   16   17 ar
  38   16   21 ar
  39   17   22 ar
  40   17   19 1
  41   18   19 1
  42   18   43 1
  43   18   44 1
  44   21   24 ar
  45   21   45 1
  46   22   23 ar
  47   22   46 1
  48   23   24 ar
  49   23   47 1
  50   24   48 1
  51   25   49 1
  52   25   50 1

#	End of record

