#	Name: ASD01918619
#	Creating user name:	WinNT
#	Creation time:	15. 06. 2019 20:11

#	Modifying user name:	WinNT
#	Modification time:	15. 06. 2019 20:11

#	Program:	/corina/corina34_cracker 3.40 0067  02.08.2006

@<TRIPOS>MOLECULE
ASD01918619
  40   43    0    0    0
SMALL
NO_CHARGES


@<TRIPOS>ATOM
   1 H1             0.0021    -0.0041     0.0020 H       
   2 C2            -0.0127     1.0858     0.0080 C.3     
   3 C3            -0.3019     1.7686    -1.3352 C.3     
   4 C4             0.7141     2.8490    -0.9355 C.3     
   5 C5             1.3591     1.8109    -0.0012 C.3     
   6 H6             2.2176     1.2643    -0.3917 H       
   7 N7             1.4683     2.2893     1.3915 N.am    
   8 C8             0.2407     2.2856     1.9355 C.2     
   9 O9            -0.0048     2.7593     3.0279 O.2     
  10 N10           -0.6854     1.6999     1.1655 N.am    
  11 C11           -2.1274     1.6898     1.4240 C.3     
  12 C12            2.6430     2.6778     2.0310 C.ar    
  13 C13            3.8308     2.7347     1.3081 C.ar    
  14 C14            4.9919     3.1208     1.9469 C.ar    
  15 C15            4.9265     3.4429     3.3108 C.ar    
  16 C16            3.6965     3.3614     3.9674 C.ar    
  17 N17            2.6123     2.9930     3.3172 N.ar    
  18 C18            6.1030     3.8487     4.0191 C.1     
  19 C19            7.0676     4.1813     4.5998 C.1     
  20 C20            8.2442     4.5871     5.3081 C.ar    
  21 C21            9.4700     4.6712     4.6426 C.ar    
  22 C22           10.5999     5.0631     5.3301 C.ar    
  23 C23           10.5228     5.3725     6.6761 C.ar    
  24 C24            9.3109     5.2913     7.3442 C.ar    
  25 F25            9.2439     5.5951     8.6589 F       
  26 C26            8.1705     4.9062     6.6665 C.ar    
  27 H27            0.0073     1.1789    -2.1982 H       
  28 H28           -1.3222     2.1421    -1.4223 H       
  29 H29            1.3631     3.1596    -1.7543 H       
  30 H30            0.2676     3.6914    -0.4071 H       
  31 H31           -2.3848     0.8090     2.0123 H       
  32 H32           -2.4040     2.5885     1.9752 H       
  33 H33           -2.6661     1.6642     0.4768 H       
  34 H34            3.8440     2.4792     0.2588 H       
  35 H35            5.9276     3.1733     1.4102 H       
  36 H36            3.6333     3.6068     5.0172 H       
  37 H37            9.5327     4.4295     3.5919 H       
  38 H38           11.5474     5.1282     4.8161 H       
  39 H39           11.4109     5.6784     7.2091 H       
  40 H40            7.2255     4.8477     7.1861 H       
@<TRIPOS>BOND
   1    1    2 1
   2    2    5 1
   3    2   10 1
   4    2    3 1
   5    3    4 1
   6    3   27 1
   7    3   28 1
   8    4    5 1
   9    4   29 1
  10    4   30 1
  11    5    6 1
  12    5    7 1
  13    7    8 am
  14    7   12 1
  15    8    9 2
  16    8   10 am
  17   10   11 1
  18   11   31 1
  19   11   32 1
  20   11   33 1
  21   12   17 ar
  22   12   13 ar
  23   13   14 ar
  24   13   34 1
  25   14   15 ar
  26   14   35 1
  27   15   16 ar
  28   15   18 1
  29   16   17 ar
  30   16   36 1
  31   18   19 3
  32   19   20 1
  33   20   26 ar
  34   20   21 ar
  35   21   22 ar
  36   21   37 1
  37   22   23 ar
  38   22   38 1
  39   23   24 ar
  40   23   39 1
  41   24   25 1
  42   24   26 ar
  43   26   40 1

#	End of record

