#	Name: ASD01900647
#	Creating user name:	WinNT
#	Creation time:	15. 06. 2019 19:52

#	Modifying user name:	WinNT
#	Modification time:	15. 06. 2019 19:52

#	Program:	/corina/corina34_cracker 3.40 0067  02.08.2006

@<TRIPOS>MOLECULE
ASD01900647
  50   54    0    0    0
SMALL
NO_CHARGES


@<TRIPOS>ATOM
   1 C1            -0.0186     1.4183     0.1362 C.ar    
   2 C2            -0.0086     0.0185     0.1253 C.ar    
   3 C3             1.2004    -0.6775     0.0650 C.ar    
   4 C4             2.3944     0.0227     0.0150 C.ar    
   5 C5             2.3659     1.4260     0.0307 C.ar    
   6 O6             3.5722    -0.6342    -0.0554 O.3     
   7 C7             4.7413    -0.0181     0.1912 C.2     
   8 C8             4.8674     1.3293     0.2213 C.2     
   9 C9             3.6621     2.1483    -0.0102 C.2     
  10 C10            5.9385    -0.8460     0.4391 C.ar    
  11 N11            7.1076    -0.2480     0.6856 N.ar    
  12 C12            8.2093    -0.9179     0.9145 C.ar    
  13 C13            8.1979    -2.3238     0.9081 C.ar    
  14 C14            6.9748    -2.9983     0.6501 C.ar    
  15 C15            5.8246    -2.2273     0.4168 C.ar    
  16 C16            9.3582    -3.0749     1.1484 C.ar    
  17 C17            9.2941    -4.4357     1.1308 C.ar    
  18 C18            8.0938    -5.0967     0.8772 C.ar    
  19 C19            6.9466    -4.4013     0.6403 C.ar    
  20 C20            1.1580     2.1127     0.0892 C.ar    
  21 C21           -1.2444    -0.7033     0.1769 C.1     
  22 C22           -2.2575    -1.2949     0.2191 C.1     
  23 C23           -3.4932    -2.0167     0.2706 C.ar    
  24 C24           -3.4905    -3.4132     0.2602 C.ar    
  25 C25           -4.7069    -1.3263     0.3374 C.ar    
  26 C26           -5.8948    -2.0253     0.3868 C.ar    
  27 C27           -5.8900    -3.4083     0.3711 C.ar    
  28 C28           -4.6895    -4.1035     0.3102 C.ar    
  29 O29           -4.6919    -5.4624     0.2946 O.3     
  30 C30           -5.9650    -6.1096     0.3431 C.3     
  31 N31            3.7318     3.4375    -0.2397 N.2     
  32 O32            2.5670     4.1560    -0.6030 O.3     
  33 H33           -0.9575     1.9504     0.1772 H       
  34 H34            1.2045    -1.7575     0.0577 H       
  35 H35            5.8245     1.7925     0.4105 H       
  36 H36            9.1304    -0.3883     1.1085 H       
  37 H37            4.8743    -2.6999     0.2166 H       
  38 H38           10.2964    -2.5776     1.3458 H       
  39 H39           10.1886    -5.0118     1.3160 H       
  40 H40            8.0727    -6.1765     0.8687 H       
  41 H41            6.0228    -4.9257     0.4450 H       
  42 H42            1.1494     3.1926     0.0976 H       
  43 H43           -2.5562    -3.9529     0.2129 H       
  44 H44           -4.7144    -0.2464     0.3506 H       
  45 H45           -6.8320    -1.4910     0.4384 H       
  46 H46           -6.8235    -3.9499     0.4107 H       
  47 H47           -6.4818    -5.8264     1.2600 H       
  48 H48           -6.5600    -5.8058    -0.5181 H       
  49 H49           -5.8241    -7.1903     0.3244 H       
  50 H50            2.7172     5.0996    -0.7516 H       
@<TRIPOS>BOND
   1    1    2 ar
   2    1   20 ar
   3    1   33 1
   4    2    3 ar
   5    2   21 1
   6    3    4 ar
   7    3   34 1
   8    4    5 ar
   9    4    6 1
  10    5   20 ar
  11    5    9 1
  12    6    7 1
  13    7    8 2
  14    7   10 1
  15    8    9 1
  16    8   35 1
  17    9   31 2
  18   10   11 ar
  19   10   15 ar
  20   11   12 ar
  21   12   13 ar
  22   12   36 1
  23   13   14 ar
  24   13   16 ar
  25   14   15 ar
  26   14   19 ar
  27   15   37 1
  28   16   17 ar
  29   16   38 1
  30   17   18 ar
  31   17   39 1
  32   18   19 ar
  33   18   40 1
  34   19   41 1
  35   20   42 1
  36   21   22 3
  37   22   23 1
  38   23   24 ar
  39   23   25 ar
  40   24   28 ar
  41   24   43 1
  42   25   26 ar
  43   25   44 1
  44   26   27 ar
  45   26   45 1
  46   27   28 ar
  47   27   46 1
  48   28   29 1
  49   29   30 1
  50   30   47 1
  51   30   48 1
  52   30   49 1
  53   31   32 1
  54   32   50 1

#	End of record

