#	Name: ASD08710117
#	Creating user name:	WinNT
#	Creation time:	15. 06. 2019 21:19

#	Modifying user name:	WinNT
#	Modification time:	15. 06. 2019 21:19

#	Program:	/corina/corina34_cracker 3.40 0067  02.08.2006

@<TRIPOS>MOLECULE
ASD08710117
  35   36    0    0    0
SMALL
NO_CHARGES


@<TRIPOS>ATOM
   1 N1            -0.0179     1.4666     0.0101 N.am    
   2 C2             0.0021    -0.0041     0.0020 C.3     
   3 C3             0.9085    -0.4723    -1.1414 C.3     
   4 N4             2.2251     0.1660    -1.0110 N.3     
   5 C5             2.1249     1.6258    -1.1417 C.3     
   6 C6             1.2683     2.1800     0.0017 C.3     
   7 S7            -1.4505     2.2971     0.0215 S.o2    
   8 O8            -1.1734     3.5825    -0.5173 O.2     
   9 O9            -2.4270     1.4202    -0.5231 O.2     
  10 C10           -1.8936     2.5496     1.7080 C.ar    
  11 C11           -2.1929     1.4666     2.5137 C.ar    
  12 C12           -2.5406     1.6646     3.8366 C.ar    
  13 C13           -2.5886     2.9457     4.3545 C.ar    
  14 C14           -2.2886     4.0282     3.5493 C.ar    
  15 C15           -1.9366     3.8298     2.2271 C.ar    
  16 C16           -2.3414     5.4246     4.1136 C.3     
  17 F17           -2.7151     5.3693     5.4607 F       
  18 F18           -1.0802     6.0200     4.0036 F       
  19 F19           -3.2779     6.1806     3.4005 F       
  20 C20           -2.1406     0.0703     1.9493 C.3     
  21 H21            0.3920    -0.3702     0.9518 H       
  22 H22           -1.0081    -0.3831    -0.1529 H       
  23 H23            1.0231    -1.5553    -1.0945 H       
  24 H24            0.4625    -0.1944    -2.0963 H       
  25 H25            2.6663    -0.0896    -0.1404 H       
  26 H26            3.1216     2.0644    -1.0951 H       
  27 H27            1.6619     1.8745    -2.0966 H       
  28 H28            1.0953     3.2449    -0.1535 H       
  29 H29            1.7799     2.0238     0.9514 H       
  30 H30           -2.7751     0.8187     4.4658 H       
  31 H31           -2.8610     3.1004     5.3880 H       
  32 H32           -1.6985     4.6755     1.5989 H       
  33 H33           -1.1391    -0.3386     2.0835 H       
  34 H34           -2.8627    -0.5592     2.4693 H       
  35 H35           -2.3820     0.0986     0.8867 H       
@<TRIPOS>BOND
   1    1    2 1
   2    1    6 1
   3    1    7 am
   4    2    3 1
   5    2   21 1
   6    2   22 1
   7    3    4 1
   8    3   23 1
   9    3   24 1
  10    4    5 1
  11    4   25 1
  12    5    6 1
  13    5   26 1
  14    5   27 1
  15    6   28 1
  16    6   29 1
  17    7    8 2
  18    7    9 2
  19    7   10 1
  20   10   11 ar
  21   10   15 ar
  22   11   12 ar
  23   11   20 1
  24   12   13 ar
  25   12   30 1
  26   13   14 ar
  27   13   31 1
  28   14   15 ar
  29   14   16 1
  30   15   32 1
  31   16   17 1
  32   16   18 1
  33   16   19 1
  34   20   33 1
  35   20   34 1
  36   20   35 1

#	End of record

