#	Name: ASD01208046
#	Creating user name:	WinNT
#	Creation time:	15. 06. 2019 19:09

#	Modifying user name:	WinNT
#	Modification time:	15. 06. 2019 19:09

#	Program:	/corina/corina34_cracker 3.40 0067  02.08.2006

@<TRIPOS>MOLECULE
ASD01208046
  61   64    0    0    0
SMALL
NO_CHARGES


@<TRIPOS>ATOM
   1 C1             0.7249     1.9899    -1.3143 C.ar    
   2 C2             0.7948     0.6079    -1.2149 C.ar    
   3 C3            -0.3360    -0.1263    -0.8850 C.ar    
   4 C4            -1.5397     0.5186    -0.6540 C.ar    
   5 C5            -1.6144     1.9089    -0.7529 C.ar    
   6 C6            -0.4734     2.6435    -1.0788 C.ar    
   7 C7            -2.8963     2.6014    -0.5073 C.2     
   8 C8            -3.1009     3.9496    -0.5724 C.2     
   9 N9            -4.0834     1.9988    -0.1812 N.pl3   
  10 C10           -5.0406     2.9729    -0.0341 C.2     
  11 C11           -4.4446     4.1917    -0.2742 C.2     
  12 O12            1.8351     2.7039    -1.6376 O.3     
  13 C13            1.6638     4.1054    -1.8579 C.3     
  14 C14            2.7778     4.6177    -2.7729 C.3     
  15 O15            4.0364     4.4907    -2.1082 O.3     
  16 C16            1.7238     4.8432    -0.5189 C.3     
  17 O17           -0.2621    -1.4798    -0.7890 O.3     
  18 C18           -0.8761    -2.2210    -1.7462 C.ar    
  19 C19           -0.9570    -3.6041    -1.6081 C.ar    
  20 C20           -1.4273    -1.5973    -2.8583 C.ar    
  21 C21           -2.0514    -2.3457    -3.8321 C.ar    
  22 C22           -2.1302    -3.7342    -3.7012 C.ar    
  23 C23           -1.5800    -4.3594    -2.5786 C.ar    
  24 C24           -2.7987    -4.5387    -4.7426 C.2     
  25 N25           -3.8327    -4.0204    -5.4344 N.am    
  26 O26           -2.4164    -5.6690    -4.9764 O.2     
  27 C27           -6.4526     2.7534     0.3136 C.2     
  28 C28            5.1500     4.9437    -2.8807 C.3     
  29 N29           -7.3532     3.6881     0.4506 N.2     
  30 C30           -8.5685     3.3025     0.7649 C.2     
  31 C31           -8.7436     1.9849     0.9094 C.2     
  32 S32           -7.2024     1.1860     0.6047 S.3     
  33 F33           -0.4241    -4.2064    -0.5225 F       
  34 C34           -4.4138    -4.7674    -6.5527 C.3     
  35 C35           -4.3756    -2.7099    -5.0681 C.3     
  36 H36            1.7317     0.1018    -1.3951 H       
  37 H37           -2.4193    -0.0534    -0.3980 H       
  38 H38           -0.5268     3.7194    -1.1564 H       
  39 H39           -2.3573     4.6956    -0.8112 H       
  40 H40           -4.2239     1.0451    -0.0729 H       
  41 H41           -4.9273     5.1571    -0.2385 H       
  42 H42            0.6966     4.2837    -2.3280 H       
  43 H43            2.7915     4.0318    -3.6919 H       
  44 H44            2.5978     5.6657    -3.0128 H       
  45 H45            1.5931     5.9122    -0.6870 H       
  46 H46            0.9301     4.4782     0.1329 H       
  47 H47            2.6909     4.6649    -0.0488 H       
  48 H48           -1.3668    -0.5238    -2.9595 H       
  49 H49           -2.4797    -1.8592    -4.6959 H       
  50 H50           -1.6389    -5.4327    -2.4738 H       
  51 H51            5.0192     5.9984    -3.1228 H       
  52 H52            6.0674     4.8138    -2.3065 H       
  53 H53            5.2129     4.3645    -3.8019 H       
  54 H54           -9.3766     4.0063     0.8988 H       
  55 H55           -9.6711     1.4940     1.1647 H       
  56 H56           -5.2168    -5.4060    -6.1848 H       
  57 H57           -4.8130    -4.0687    -7.2879 H       
  58 H58           -3.6437    -5.3832    -7.0174 H       
  59 H59           -3.8921    -2.3581    -4.1568 H       
  60 H60           -4.1896    -2.0011    -5.8750 H       
  61 H61           -5.4492    -2.7955    -4.9000 H       
@<TRIPOS>BOND
   1    1    2 ar
   2    1   12 1
   3    1    6 ar
   4    2    3 ar
   5    2   36 1
   6    3    4 ar
   7    3   17 1
   8    4    5 ar
   9    4   37 1
  10    5    6 ar
  11    5    7 1
  12    6   38 1
  13    7    8 2
  14    7    9 1
  15    8   11 1
  16    8   39 1
  17    9   10 1
  18    9   40 1
  19   10   11 2
  20   10   27 1
  21   11   41 1
  22   12   13 1
  23   13   14 1
  24   13   16 1
  25   13   42 1
  26   14   15 1
  27   14   43 1
  28   14   44 1
  29   15   28 1
  30   16   45 1
  31   16   46 1
  32   16   47 1
  33   17   18 1
  34   18   19 ar
  35   18   20 ar
  36   19   33 1
  37   19   23 ar
  38   20   21 ar
  39   20   48 1
  40   21   22 ar
  41   21   49 1
  42   22   23 ar
  43   22   24 1
  44   23   50 1
  45   24   25 am
  46   24   26 2
  47   25   34 1
  48   25   35 1
  49   27   29 2
  50   27   32 1
  51   28   51 1
  52   28   52 1
  53   28   53 1
  54   29   30 1
  55   30   31 2
  56   30   54 1
  57   31   32 1
  58   31   55 1
  59   34   56 1
  60   34   57 1
  61   34   58 1
  62   35   59 1
  63   35   60 1
  64   35   61 1

#	End of record

