#	Name: ASD03331469
#	Creating user name:	WinNT
#	Creation time:	15. 06. 2019 20:39

#	Modifying user name:	WinNT
#	Modification time:	15. 06. 2019 20:39

#	Program:	/corina/corina34_cracker 3.40 0067  02.08.2006

@<TRIPOS>MOLECULE
ASD03331469
  59   61    0    0    0
SMALL
NO_CHARGES


@<TRIPOS>ATOM
   1 C1            -0.0835     1.1774     0.6069 C.ar    
   2 C2            -0.0726    -0.2914     0.4284 C.2     
   3 N3            -1.1590    -1.1059     0.4842 N.pl3   
   4 C4            -0.7296    -2.3768     0.2730 C.2     
   5 C5             0.6137    -2.3222     0.0877 C.2     
   6 N6             0.9886    -1.0270     0.1835 N.2     
   7 C7             1.5027    -3.4679    -0.1758 C.2     
   8 N8             2.8256    -3.2703    -0.3411 N.am    
   9 C9             0.5923     2.0160    -0.2876 C.ar    
  10 O10            1.0425    -4.5916    -0.2439 O.2     
  11 C11            3.7092    -4.4091    -0.6030 C.3     
  12 C12            3.7164    -4.7149    -2.1021 C.3     
  13 C13            5.1076    -4.0740    -0.1520 C.2     
  14 C14            4.1079    -3.4555    -2.8777 C.3     
  15 C15           -2.5622    -0.7546     0.7204 C.3     
  16 C16           -3.4332    -1.9383     0.2802 C.3     
  17 N17           -2.9221    -3.1808     0.8761 N.3     
  18 C18           -1.6410    -3.5769     0.2640 C.3     
  19 N19            5.9431    -5.0565     0.2393 N.am    
  20 C20            4.7271    -5.8266    -2.3910 C.3     
  21 C21            2.3213    -5.1684    -2.5368 C.3     
  22 C22            0.5554     3.3816    -0.0824 C.ar    
  23 N23           -0.1040     3.8951     0.9378 N.ar    
  24 C24           -0.7536     3.1403     1.8033 C.ar    
  25 C25           -0.7744     1.7674     1.6711 C.ar    
  26 O26            5.4811    -2.9202    -0.1412 O.2     
  27 C27            7.2622    -4.7232     0.7824 C.3     
  28 Cl28           1.4636     1.3500    -1.6333 Cl      
  29 C29           -4.8741    -1.7085     0.7405 C.3     
  30 C30           -3.9120    -4.2610     0.7711 C.3     
  31 H31            3.1926    -2.3741    -0.2868 H       
  32 H32            3.3502    -5.2809    -0.0561 H       
  33 H33            5.1018    -3.1324    -2.5680 H       
  34 H34            4.1130    -3.6734    -3.9457 H       
  35 H35            3.3879    -2.6635    -2.6719 H       
  36 H36           -2.7184    -0.5575     1.7810 H       
  37 H37           -2.8227     0.1299     0.1392 H       
  38 H38           -3.4097    -2.0211    -0.8064 H       
  39 H39           -1.8086    -3.9044    -0.7621 H       
  40 H40           -1.1915    -4.3852     0.8406 H       
  41 H41            5.6709    -5.9842     0.1614 H       
  42 H42            4.4174    -6.7401    -1.8834 H       
  43 H43            4.7731    -6.0056    -3.4652 H       
  44 H44            5.7108    -5.5261    -2.0302 H       
  45 H45            1.6012    -4.3764    -2.3310 H       
  46 H46            2.3264    -5.3863    -3.6048 H       
  47 H47            2.0423    -6.0656    -1.9842 H       
  48 H48            1.0736     4.0374    -0.7664 H       
  49 H49           -1.2803     3.6042     2.6242 H       
  50 H50           -1.3087     1.1563     2.3835 H       
  51 H51            7.7908    -5.6406     1.0417 H       
  52 H52            7.8343    -4.1731     0.0353 H       
  53 H53            7.1432    -4.1080     1.6743 H       
  54 H54           -5.2559    -0.7901     0.2945 H       
  55 H55           -5.4937    -2.5490     0.4281 H       
  56 H56           -4.8991    -1.6225     1.8268 H       
  57 H57           -4.1393    -4.4447    -0.2790 H       
  58 H58           -3.5083    -5.1687     1.2196 H       
  59 H59           -4.8230    -3.9712     1.2947 H       
@<TRIPOS>BOND
   1    1    2 1
   2    1    9 ar
   3    1   25 ar
   4    2    3 1
   5    2    6 2
   6    3    4 1
   7    3   15 1
   8    4    5 2
   9    4   18 1
  10    5    6 1
  11    5    7 1
  12    7    8 am
  13    7   10 2
  14    8   11 1
  15    8   31 1
  16    9   22 ar
  17    9   28 1
  18   11   12 1
  19   11   13 1
  20   11   32 1
  21   12   14 1
  22   12   20 1
  23   12   21 1
  24   13   19 am
  25   13   26 2
  26   14   33 1
  27   14   34 1
  28   14   35 1
  29   15   16 1
  30   15   36 1
  31   15   37 1
  32   16   17 1
  33   16   29 1
  34   16   38 1
  35   17   18 1
  36   17   30 1
  37   18   39 1
  38   18   40 1
  39   19   27 1
  40   19   41 1
  41   20   42 1
  42   20   43 1
  43   20   44 1
  44   21   45 1
  45   21   46 1
  46   21   47 1
  47   22   23 ar
  48   22   48 1
  49   23   24 ar
  50   24   25 ar
  51   24   49 1
  52   25   50 1
  53   27   51 1
  54   27   52 1
  55   27   53 1
  56   29   54 1
  57   29   55 1
  58   29   56 1
  59   30   57 1
  60   30   58 1
  61   30   59 1

#	End of record

