#	Name: ASD01510069
#	Creating user name:	WinNT
#	Creation time:	15. 06. 2019 19:21

#	Modifying user name:	WinNT
#	Modification time:	15. 06. 2019 19:21

#	Program:	/corina/corina34_cracker 3.40 0067  02.08.2006

@<TRIPOS>MOLECULE
ASD01510069
  33   34    0    0    0
SMALL
NO_CHARGES


@<TRIPOS>ATOM
   1 C1            -0.0178     1.4648     0.0101 C.3     
   2 N2             0.0021    -0.0041     0.0020 N.3     
   3 C3             0.7064    -0.5277     1.1807 C.3     
   4 C4             0.6362    -2.0566     1.1762 C.3     
   5 N5             1.2373    -2.5683    -0.0634 N.3     
   6 C6             0.5329    -2.0447    -1.2421 C.3     
   7 C7             0.6031    -0.5158    -1.2375 C.3     
   8 C8             1.2560    -3.9522    -0.0710 C.ar    
   9 N9             1.7654    -4.5864    -1.1169 N.ar    
  10 C10            1.7985    -5.9081    -1.1558 C.ar    
  11 C11            2.3801    -6.6216    -2.3491 C.3     
  12 C12            1.2923    -6.6290    -0.0857 C.ar    
  13 C13            0.7669    -5.9339     0.9922 C.ar    
  14 N14            0.7691    -4.6114     0.9701 N.ar    
  15 C15            0.2051    -6.6760     2.1775 C.3     
  16 H16            1.0047     1.8421     0.0024 H       
  17 H17           -0.5450     1.8259    -0.8730 H       
  18 H18           -0.5280     1.8163     0.9069 H       
  19 H19            1.7492    -0.2115     1.1515 H       
  20 H20            0.2352    -0.1447     2.0859 H       
  21 H21            1.1828    -2.4483     2.0340 H       
  22 H22           -0.4053    -2.3729     1.2329 H       
  23 H23            1.0041    -2.4277    -2.1472 H       
  24 H24           -0.5098    -2.3609    -1.2128 H       
  25 H25            0.0565    -0.1241    -2.0954 H       
  26 H26            1.6447    -0.1994    -1.2942 H       
  27 H27            3.4464    -6.7835    -2.1915 H       
  28 H28            1.8816    -7.5825    -2.4764 H       
  29 H29            2.2329    -6.0147    -3.2425 H       
  30 H30            1.3067    -7.7089    -0.0918 H       
  31 H31            0.9958    -6.8451     2.9084 H       
  32 H32           -0.5899    -6.0852     2.6324 H       
  33 H33           -0.1970    -7.6343     1.8488 H       
@<TRIPOS>BOND
   1    1    2 1
   2    1   16 1
   3    1   17 1
   4    1   18 1
   5    2    3 1
   6    2    7 1
   7    3    4 1
   8    3   19 1
   9    3   20 1
  10    4    5 1
  11    4   21 1
  12    4   22 1
  13    5    6 1
  14    5    8 1
  15    6    7 1
  16    6   23 1
  17    6   24 1
  18    7   25 1
  19    7   26 1
  20    8    9 ar
  21    8   14 ar
  22    9   10 ar
  23   10   11 1
  24   10   12 ar
  25   11   27 1
  26   11   28 1
  27   11   29 1
  28   12   13 ar
  29   12   30 1
  30   13   14 ar
  31   13   15 1
  32   15   31 1
  33   15   32 1
  34   15   33 1

#	End of record

