#	Name: ASD02198100
#	Creating user name:	WinNT
#	Creation time:	15. 06. 2019 20:18

#	Modifying user name:	WinNT
#	Modification time:	15. 06. 2019 20:18

#	Program:	/corina/corina34_cracker 3.40 0067  02.08.2006

@<TRIPOS>MOLECULE
ASD02198100
  51   54    0    0    0
SMALL
NO_CHARGES


@<TRIPOS>ATOM
   1 C1            -0.1292     1.4046    -0.5003 C.2     
   2 C2             0.0004     0.0329    -0.4485 C.2     
   3 C3            -1.1055    -0.8475    -0.2191 C.1     
   4 S4             1.3781     2.1471    -0.7895 S.3     
   5 C5             2.2047     0.5985    -0.8437 C.2     
   6 C6             1.3042    -0.4194    -0.6402 C.2     
   7 C7             3.5858     0.4256    -1.0627 C.2     
   8 C8             4.4329     1.5902    -1.3935 C.ar    
   9 O9             4.0820    -0.6854    -0.9792 O.2     
  10 N10            1.6574    -1.7601    -0.6263 N.pl3   
  11 N11           -1.3165     2.0829    -0.3452 N.pl3   
  12 N12           -1.9827    -1.5459    -0.0371 N.1     
  13 C13            5.2712     2.1453    -0.4251 C.ar    
  14 C14           -1.3213     3.4792    -0.2891 C.ar    
  15 C15           -2.3703     4.1956    -0.8511 C.ar    
  16 C16            6.0615     3.2354    -0.7414 C.ar    
  17 C17            6.0224     3.7787    -2.0192 C.ar    
  18 C18            5.1957     3.2352    -2.9829 C.ar    
  19 C19            4.4029     2.1389    -2.6820 C.ar    
  20 C20           -2.3700     5.5744    -0.7923 C.ar    
  21 C21           -1.3281     6.2477    -0.1757 C.ar    
  22 C22           -0.2819     5.5372     0.3849 C.ar    
  23 C23           -0.2806     4.1549     0.3335 C.ar    
  24 O24            6.8785     3.7771     0.2011 O.3     
  25 C25            7.6675     4.9015    -0.1930 C.3     
  26 O26            3.5905     1.6055    -3.6302 O.3     
  27 C27            3.6027     2.2248    -4.9180 C.3     
  28 C28           -1.0982     7.7319     0.0156 C.3     
  29 C29           -0.0327     7.8358     1.1272 C.3     
  30 C30            0.7210     6.4959     0.9905 C.3     
  31 H31            2.5817    -2.0197    -0.7649 H       
  32 H32            0.9801    -2.4385    -0.4780 H       
  33 H33           -2.1500     1.5918    -0.2749 H       
  34 H34            5.3023     1.7246     0.5692 H       
  35 H35           -3.1842     3.6747    -1.3334 H       
  36 H36            6.6413     4.6304    -2.2602 H       
  37 H37            5.1700     3.6628    -3.9743 H       
  38 H38           -3.1858     6.1311    -1.2293 H       
  39 H39            0.5362     3.6003     0.7713 H       
  40 H40            8.3206     4.6159    -1.0177 H       
  41 H41            7.0117     5.7114    -0.5126 H       
  42 H42            8.2720     5.2348     0.6506 H       
  43 H43            3.2971     3.2668    -4.8230 H       
  44 H44            4.6089     2.1778    -5.3343 H       
  45 H45            2.9112     1.7023    -5.5790 H       
  46 H46           -0.7275     8.1791    -0.9067 H       
  47 H47           -2.0209     8.2201     0.3293 H       
  48 H48            0.6363     8.6769     0.9452 H       
  49 H49           -0.5022     7.9179     2.1075 H       
  50 H50            1.0407     6.1401     1.9699 H       
  51 H51            1.5805     6.6111     0.3301 H       
@<TRIPOS>BOND
   1    1    2 2
   2    1    4 1
   3    1   11 1
   4    2    3 1
   5    2    6 1
   6    3   12 3
   7    4    5 1
   8    5    6 2
   9    5    7 1
  10    6   10 1
  11    7    8 1
  12    7    9 2
  13    8   13 ar
  14    8   19 ar
  15   10   31 1
  16   10   32 1
  17   11   14 1
  18   11   33 1
  19   13   16 ar
  20   13   34 1
  21   14   15 ar
  22   14   23 ar
  23   15   20 ar
  24   15   35 1
  25   16   17 ar
  26   16   24 1
  27   17   18 ar
  28   17   36 1
  29   18   19 ar
  30   18   37 1
  31   19   26 1
  32   20   21 ar
  33   20   38 1
  34   21   22 ar
  35   21   28 1
  36   22   23 ar
  37   22   30 1
  38   23   39 1
  39   24   25 1
  40   25   40 1
  41   25   41 1
  42   25   42 1
  43   26   27 1
  44   27   43 1
  45   27   44 1
  46   27   45 1
  47   28   29 1
  48   28   46 1
  49   28   47 1
  50   29   30 1
  51   29   48 1
  52   29   49 1
  53   30   50 1
  54   30   51 1

#	End of record

