#	Name: ASD00310293
#	Creating user name:	WinNT
#	Creation time:	15. 06. 2019 18:34

#	Modifying user name:	WinNT
#	Modification time:	15. 06. 2019 18:34

#	Program:	/corina/corina34_cracker 3.40 0067  02.08.2006

@<TRIPOS>MOLECULE
ASD00310293
  41   44    0    0    0
SMALL
NO_CHARGES


@<TRIPOS>ATOM
   1 N1            -0.0163     1.3500     0.0095 N.pl3   
   2 C2             0.0021    -0.0041     0.0020 C.2     
   3 C3             1.2921    -0.4483    -0.0127 C.2     
   4 C4             2.1475     0.7539    -0.0144 C.ar    
   5 C5             3.5230     0.9583    -0.0264 C.ar    
   6 C6             4.0239     2.2538    -0.0243 C.ar    
   7 C7             3.1465     3.3436    -0.0100 C.ar    
   8 C8             1.7850     3.1436     0.0019 C.ar    
   9 C9             1.2694     1.8502    -0.0001 C.ar    
  10 C10            1.7402    -1.8455    -0.0240 C.2     
  11 O11            2.9286    -2.1027    -0.0364 O.2     
  12 O12            0.8342    -2.8441    -0.0208 O.3     
  13 Cl13           3.7801     4.9599    -0.0068 Cl      
  14 C14            5.4899     2.4821    -0.0365 C.ar    
  15 C15            6.0532     3.3600    -0.9605 C.ar    
  16 C16            7.4175     3.5686    -0.9674 C.ar    
  17 C17            8.2253     2.9080    -0.0595 C.ar    
  18 C18            7.6715     2.0354     0.8599 C.ar    
  19 C19            6.3078     1.8237     0.8796 C.ar    
  20 N20           10.3762     2.7769     1.1948 N.3     
  21 C21            9.7144     3.1394    -0.0723 C.3     
  22 C22           10.5035     2.0069    -0.7440 C.3     
  23 C23           11.5019     2.2603     0.3942 C.3     
  24 C24            1.3494    -4.2016    -0.0326 C.3     
  25 H25           -0.8206     1.8922     0.0163 H       
  26 H26           -0.8729    -0.6372     0.0073 H       
  27 H27            4.1975     0.1150    -0.0370 H       
  28 H28            1.1155     3.9910     0.0128 H       
  29 H29            5.4234     3.8761    -1.6701 H       
  30 H30            7.8552     4.2485    -1.6833 H       
  31 H31            8.3069     1.5222     1.5665 H       
  32 H32            5.8760     1.1456     1.6007 H       
  33 H33           10.6471     3.6012     1.7099 H       
  34 H34            9.9835     4.1316    -0.4345 H       
  35 H35           10.0136     1.0342    -0.6996 H       
  36 H36           10.8840     2.2548    -1.7349 H       
  37 H37           12.2489     3.0175     0.1560 H       
  38 H38           11.9398     1.3479     0.7989 H       
  39 H39            1.9504    -4.3544    -0.9290 H       
  40 H40            1.9669    -4.3635     0.8509 H       
  41 H41            0.5175    -4.9060    -0.0285 H       
@<TRIPOS>BOND
   1    1    2 1
   2    1    9 1
   3    1   25 1
   4    2    3 2
   5    2   26 1
   6    3    4 1
   7    3   10 1
   8    4    5 ar
   9    4    9 ar
  10    5    6 ar
  11    5   27 1
  12    6    7 ar
  13    6   14 1
  14    7    8 ar
  15    7   13 1
  16    8    9 ar
  17    8   28 1
  18   10   11 2
  19   10   12 1
  20   12   24 1
  21   14   15 ar
  22   14   19 ar
  23   15   16 ar
  24   15   29 1
  25   16   17 ar
  26   16   30 1
  27   17   18 ar
  28   17   21 1
  29   18   19 ar
  30   18   31 1
  31   19   32 1
  32   20   21 1
  33   20   23 1
  34   20   33 1
  35   21   22 1
  36   21   34 1
  37   22   23 1
  38   22   35 1
  39   22   36 1
  40   23   37 1
  41   23   38 1
  42   24   39 1
  43   24   40 1
  44   24   41 1

#	End of record

