#	Name: ASD01152140
#	Creating user name:	WinNT
#	Creation time:	15. 06. 2019 19:05

#	Modifying user name:	WinNT
#	Modification time:	15. 06. 2019 19:05

#	Program:	/corina/corina34_cracker 3.40 0067  02.08.2006

@<TRIPOS>MOLECULE
ASD01152140
  66   69    0    0    0
SMALL
NO_CHARGES


@<TRIPOS>ATOM
   1 N1            -0.0186     1.3532     0.0025 N.pl3   
   2 C2            -0.0039     0.0022     0.1542 C.2     
   3 N3            -1.2384    -0.4541     0.1191 N.2     
   4 C4            -2.0954     0.5561    -0.0532 C.2     
   5 C5            -1.3573     1.7308    -0.1271 C.2     
   6 N6            -3.4786     0.4511    -0.1385 N.am    
   7 N7             1.1245    -0.7677     0.3182 N.3     
   8 C8             1.1369    -1.4087     1.6399 C.3     
   9 C9             1.2403    -1.7667    -0.7526 C.3     
  10 C10           -1.8568     3.0366    -0.3048 C.2     
  11 O11           -1.0058     4.0839    -0.3562 O.3     
  12 O12           -3.0559     3.2205    -0.4119 O.2     
  13 C13           -1.5813     5.3792    -0.5383 C.3     
  14 C14           -2.5349     5.6809     0.6195 C.3     
  15 C15           -0.4705     6.4308    -0.5713 C.3     
  16 C16           -2.3547     5.4127    -1.8580 C.3     
  17 C17            1.0943     2.2038    -0.0144 C.ar    
  18 C18            1.9963     2.1484    -1.0687 C.ar    
  19 C19            3.0926     2.9883    -1.0825 C.ar    
  20 C20            3.2928     3.8833    -0.0476 C.ar    
  21 C21            2.3967     3.9406     1.0039 C.ar    
  22 C22            1.2948     3.1079     1.0202 C.ar    
  23 C23           -4.0698    -0.7565    -0.0452 C.2     
  24 O24           -3.3929    -1.7542     0.1135 O.2     
  25 C25           -5.5365    -0.8678    -0.1357 C.2     
  26 C26           -6.4489     0.1960    -0.3188 C.2     
  27 N27           -7.6535    -0.3045    -0.3472 N.2     
  28 N28           -7.5723    -1.6922    -0.1862 N.pl3   
  29 C29           -6.2763    -2.0316    -0.0633 C.2     
  30 C30           -5.7328    -3.4241     0.1285 C.3     
  31 F31           -5.4791    -4.0018    -1.1201 F       
  32 F32           -4.5446    -3.3636     0.8645 F       
  33 F33           -6.6702    -4.1995     0.8193 F       
  34 C34           -8.6574    -2.5793    -0.1630 C.ar    
  35 C35           -9.8632    -2.1883     0.4035 C.ar    
  36 C36          -10.9308    -3.0641     0.4252 C.ar    
  37 C37          -10.7995    -4.3305    -0.1171 C.ar    
  38 C38           -9.5985    -4.7227    -0.6819 C.ar    
  39 C39           -8.5299    -3.8484    -0.7115 C.ar    
  40 Cl40         -12.1433    -5.4291    -0.0883 Cl      
  41 H41           -4.0185     1.2469    -0.2651 H       
  42 H42            0.2598    -2.0479     1.7420 H       
  43 H43            2.0394    -2.0111     1.7430 H       
  44 H44            1.1206    -0.6429     2.4153 H       
  45 H45            1.2115    -1.2667    -1.7207 H       
  46 H46            2.1835    -2.3031    -0.6486 H       
  47 H47            0.4119    -2.4717    -0.6829 H       
  48 H48           -1.9839     5.6570     1.5597 H       
  49 H49           -2.9739     6.6688     0.4806 H       
  50 H50           -3.3263     4.9317     0.6430 H       
  51 H51            0.2089     6.2159    -1.3962 H       
  52 H52           -0.9095     7.4188    -0.7102 H       
  53 H53            0.0805     6.4069     0.3689 H       
  54 H54           -3.1461     4.6635    -1.8345 H       
  55 H55           -2.7937     6.4007    -1.9969 H       
  56 H56           -1.6753     5.1978    -2.6829 H       
  57 H57            1.8409     1.4491    -1.8769 H       
  58 H58            3.7945     2.9457    -1.9023 H       
  59 H59            4.1511     4.5388    -0.0605 H       
  60 H60            2.5559     4.6404     1.8109 H       
  61 H61            0.5952     3.1531     1.8417 H       
  62 H62           -6.1936     1.2407    -0.4179 H       
  63 H63           -9.9661    -1.2002     0.8272 H       
  64 H64          -11.8688    -2.7605     0.8661 H       
  65 H65           -9.4982    -5.7118    -1.1038 H       
  66 H66           -7.5928    -4.1549    -1.1524 H       
@<TRIPOS>BOND
   1    1    2 1
   2    1   17 1
   3    1    5 1
   4    2    3 2
   5    2    7 1
   6    3    4 1
   7    4    5 2
   8    4    6 1
   9    5   10 1
  10    6   23 am
  11    6   41 1
  12    7    8 1
  13    7    9 1
  14    8   42 1
  15    8   43 1
  16    8   44 1
  17    9   45 1
  18    9   46 1
  19    9   47 1
  20   10   11 1
  21   10   12 2
  22   11   13 1
  23   13   14 1
  24   13   15 1
  25   13   16 1
  26   14   48 1
  27   14   49 1
  28   14   50 1
  29   15   51 1
  30   15   52 1
  31   15   53 1
  32   16   54 1
  33   16   55 1
  34   16   56 1
  35   17   18 ar
  36   17   22 ar
  37   18   19 ar
  38   18   57 1
  39   19   20 ar
  40   19   58 1
  41   20   21 ar
  42   20   59 1
  43   21   22 ar
  44   21   60 1
  45   22   61 1
  46   23   24 2
  47   23   25 1
  48   25   26 1
  49   25   29 2
  50   26   27 2
  51   26   62 1
  52   27   28 1
  53   28   29 1
  54   28   34 1
  55   29   30 1
  56   30   31 1
  57   30   32 1
  58   30   33 1
  59   34   35 ar
  60   34   39 ar
  61   35   36 ar
  62   35   63 1
  63   36   37 ar
  64   36   64 1
  65   37   38 ar
  66   37   40 1
  67   38   39 ar
  68   38   65 1
  69   39   66 1

#	End of record

