#	Name: ASD03740220
#	Creating user name:	WinNT
#	Creation time:	15. 06. 2019 20:46

#	Modifying user name:	WinNT
#	Modification time:	15. 06. 2019 20:46

#	Program:	/corina/corina34_cracker 3.40 0067  02.08.2006

@<TRIPOS>MOLECULE
ASD03740220
  57   60    0    0    0
SMALL
NO_CHARGES


@<TRIPOS>ATOM
   1 C1            -0.0163     1.3475     0.0095 C.2     
   2 C2             0.0021    -0.0041     0.0020 C.2     
   3 C3             1.3475    -0.4011    -0.0130 C.2     
   4 C4             2.0989     0.7577    -0.0139 C.2     
   5 O5             1.2448     1.8024    -0.0001 O.3     
   6 C6            -1.2553     2.2053     0.0202 C.3     
   7 C7            -1.6675     2.4877     1.4663 C.3     
   8 C8             3.5101     0.8354    -0.0270 C.2     
   9 C9             4.1259     2.0519    -0.0263 C.2     
  10 C10            5.5659     2.3411    -0.0385 C.2     
  11 N11            5.8707     3.6210    -0.0353 N.2     
  12 C12            4.9232     4.5287    -0.0221 C.2     
  13 S13            3.3767     3.6619    -0.0184 S.3     
  14 O14            6.4140     1.4622    -0.0503 O.2     
  15 N15            5.0962     5.8886    -0.0172 N.pl3   
  16 C16            6.4471     6.4552    -0.0279 C.3     
  17 C17            6.4065     7.8398    -0.6213 C.2     
  18 O18            5.3528     8.3073    -0.9983 O.2     
  19 N19            7.5411     8.5586    -0.7331 N.am    
  20 S20            7.4965    10.0801    -1.3853 S.o2    
  21 C21            6.9722     6.5285     1.3828 C.ar    
  22 C22            8.2930     6.2158     1.6453 C.ar    
  23 C23            8.7757     6.2831     2.9385 C.ar    
  24 C24            7.9360     6.6639     3.9714 C.ar    
  25 C25            6.6134     6.9768     3.7073 C.ar    
  26 C26            6.1342     6.9139     2.4126 C.ar    
  27 O27            8.8261    10.5785    -1.3324 O.2     
  28 O28            6.7521     9.9781    -2.5914 O.2     
  29 C29            6.5443    11.0865    -0.2966 C.ar    
  30 C30            7.1642    11.7688     0.7335 C.ar    
  31 C31            6.4171    12.5583     1.5876 C.ar    
  32 C32            5.0503    12.6658     1.4114 C.ar    
  33 C33            4.4305    11.9842     0.3808 C.ar    
  34 C34            5.1782    11.1981    -0.4760 C.ar    
  35 N35            4.2502    13.5104     2.3266 N.pl3   
  36 O36            4.7963    14.1107     3.2349 O.2     
  37 O37            3.0459    13.6051     2.1714 O.2     
  38 F38            8.4067     6.7296     5.2360 F       
  39 H39           -0.8585    -0.6566     0.0067 H       
  40 H40            1.7221    -1.4140    -0.0217 H       
  41 H41           -1.0500     3.1466    -0.4895 H       
  42 H42           -2.0631     1.6832    -0.4925 H       
  43 H43           -2.5637     3.1081     1.4740 H       
  44 H44           -1.8729     1.5464     1.9760 H       
  45 H45           -0.8597     3.0099     1.9790 H       
  46 H46            4.1007    -0.0687    -0.0375 H       
  47 H47            4.3241     6.4757    -0.0068 H       
  48 H48            7.1019     5.8222    -0.6268 H       
  49 H49            8.3838     8.1847    -0.4316 H       
  50 H50            8.9477     5.9184     0.8395 H       
  51 H51            9.8075     6.0384     3.1433 H       
  52 H52            5.9574     7.2740     4.5122 H       
  53 H53            5.1036     7.1619     2.2057 H       
  54 H54            8.2321    11.6849     0.8711 H       
  55 H55            6.9013    13.0909     2.3928 H       
  56 H56            3.3626    12.0678     0.2434 H       
  57 H57            4.6945    10.6685    -1.2834 H       
@<TRIPOS>BOND
   1    1    2 2
   2    1    5 1
   3    1    6 1
   4    2    3 1
   5    2   39 1
   6    3    4 2
   7    3   40 1
   8    4    5 1
   9    4    8 1
  10    6    7 1
  11    6   41 1
  12    6   42 1
  13    7   43 1
  14    7   44 1
  15    7   45 1
  16    8    9 2
  17    8   46 1
  18    9   10 1
  19    9   13 1
  20   10   11 1
  21   10   14 2
  22   11   12 2
  23   12   13 1
  24   12   15 1
  25   15   16 1
  26   15   47 1
  27   16   17 1
  28   16   21 1
  29   16   48 1
  30   17   18 2
  31   17   19 am
  32   19   20 am
  33   19   49 1
  34   20   27 2
  35   20   28 2
  36   20   29 1
  37   21   22 ar
  38   21   26 ar
  39   22   23 ar
  40   22   50 1
  41   23   24 ar
  42   23   51 1
  43   24   25 ar
  44   24   38 1
  45   25   26 ar
  46   25   52 1
  47   26   53 1
  48   29   30 ar
  49   29   34 ar
  50   30   31 ar
  51   30   54 1
  52   31   32 ar
  53   31   55 1
  54   32   33 ar
  55   32   35 1
  56   33   34 ar
  57   33   56 1
  58   34   57 1
  59   35   36 2
  60   35   37 2

#	End of record

