#	Name: ASD01230273
#	Creating user name:	WinNT
#	Creation time:	15. 06. 2019 19:12

#	Modifying user name:	WinNT
#	Modification time:	15. 06. 2019 19:12

#	Program:	/corina/corina34_cracker 3.40 0067  02.08.2006

@<TRIPOS>MOLECULE
ASD01230273
  37   39    0    0    0
SMALL
NO_CHARGES


@<TRIPOS>ATOM
   1 C1             0.2079     1.1133    -0.3954 C.ar    
   2 C2             0.0341    -0.1991    -0.8579 C.ar    
   3 C3             1.0809    -0.8156    -1.5427 C.ar    
   4 C4             2.2529    -0.1008    -1.7372 C.ar    
   5 C5             2.3503     1.1888    -1.2523 C.ar    
   6 N6             1.3464     1.7527    -0.6067 N.ar    
   7 N7            -0.8236     1.7476     0.2836 N.pl3   
   8 C8            -1.2406    -0.9191    -0.6224 C.ar    
   9 C9            -1.7919    -0.9632     0.6574 C.ar    
  10 C10           -2.9777    -1.6332     0.8731 C.ar    
  11 C11           -3.6227    -2.2635    -0.1827 C.ar    
  12 C12           -3.0759    -2.2217    -1.4584 C.ar    
  13 C13           -1.8933    -1.5484    -1.6815 C.ar    
  14 O14           -4.7909    -2.9229     0.0329 O.3     
  15 C15           -4.7302    -4.2462     0.3354 C.ar    
  16 C16           -3.5002    -4.8605     0.5230 C.ar    
  17 C17           -3.4412    -6.2058     0.8308 C.ar    
  18 C18           -4.6064    -6.9403     0.9517 C.ar    
  19 C19           -5.8334    -6.3306     0.7653 C.ar    
  20 C20           -5.8982    -4.9843     0.4629 C.ar    
  21 C21            3.4112    -0.7260    -2.4711 C.3     
  22 H22            0.9812    -1.8255    -1.9123 H       
  23 H23            3.2635     1.7452    -1.4036 H       
  24 H24           -1.6613     1.2830     0.4368 H       
  25 H25           -0.7067     2.6553     0.6048 H       
  26 H26           -1.2905    -0.4735     1.4791 H       
  27 H27           -3.4050    -1.6680     1.8643 H       
  28 H28           -3.5795    -2.7135    -2.2775 H       
  29 H29           -1.4710    -1.5122    -2.6749 H       
  30 H30           -2.5897    -4.2874     0.4280 H       
  31 H31           -2.4841    -6.6844     0.9769 H       
  32 H32           -4.5581    -7.9922     1.1918 H       
  33 H33           -6.7420    -6.9067     0.8599 H       
  34 H34           -6.8569    -4.5077     0.3214 H       
  35 H35            3.3224    -0.5152    -3.5368 H       
  36 H36            4.3462    -0.3108    -2.0952 H       
  37 H37            3.4026    -1.8043    -2.3121 H       
@<TRIPOS>BOND
   1    1    2 ar
   2    1    6 ar
   3    1    7 1
   4    2    3 ar
   5    2    8 1
   6    3    4 ar
   7    3   22 1
   8    4    5 ar
   9    4   21 1
  10    5    6 ar
  11    5   23 1
  12    7   24 1
  13    7   25 1
  14    8    9 ar
  15    8   13 ar
  16    9   10 ar
  17    9   26 1
  18   10   11 ar
  19   10   27 1
  20   11   12 ar
  21   11   14 1
  22   12   13 ar
  23   12   28 1
  24   13   29 1
  25   14   15 1
  26   15   16 ar
  27   15   20 ar
  28   16   17 ar
  29   16   30 1
  30   17   18 ar
  31   17   31 1
  32   18   19 ar
  33   18   32 1
  34   19   20 ar
  35   19   33 1
  36   20   34 1
  37   21   35 1
  38   21   36 1
  39   21   37 1

#	End of record

