#	Name: ASD01410402
#	Creating user name:	WinNT
#	Creation time:	15. 06. 2019 19:17

#	Modifying user name:	WinNT
#	Modification time:	15. 06. 2019 19:17

#	Program:	/corina/corina34_cracker 3.40 0067  02.08.2006

@<TRIPOS>MOLECULE
ASD01410402
  39   42    0    0    0
SMALL
NO_CHARGES


@<TRIPOS>ATOM
   1 S1            -0.0142     1.7569    -0.1055 S.3     
   2 C2            -0.0017     0.0028     0.1470 C.2     
   3 N3             1.2728    -0.3524     0.3459 N.am    
   4 C4             2.2181     0.5724     0.3233 C.2     
   5 C5             1.7424     1.9379     0.0727 C.2     
   6 S6            -1.3608    -1.0383     0.1387 S.2     
   7 O7             3.3939     0.3107     0.4977 O.2     
   8 N8             1.6037    -1.6940     0.5768 N.am    
   9 S9             1.9635    -2.6891    -0.6971 S.o2    
  10 O10            2.3981    -3.9196    -0.1347 O.2     
  11 O11            0.8734    -2.5908    -1.6034 O.2     
  12 C12            3.3593    -1.9980    -1.5208 C.ar    
  13 C13            4.6371    -2.3633    -1.1405 C.ar    
  14 C14            5.7322    -1.8210    -1.7867 C.ar    
  15 C15            5.5495    -0.9138    -2.8136 C.ar    
  16 C16            4.2717    -0.5492    -3.1945 C.ar    
  17 C17            3.1765    -1.0947    -2.5511 C.ar    
  18 C18            2.4768     3.0769    -0.0055 C.2     
  19 O19           -0.2944     7.9232    -0.2744 O.3     
  20 C20           -1.3592     7.5768     0.6303 C.3     
  21 O21           -1.4133     6.1397     0.5623 O.3     
  22 C22           -0.1507     5.7433     0.2265 C.ar    
  23 C23            0.5385     6.8428    -0.2890 C.ar    
  24 C24            0.4766     4.5172     0.3202 C.ar    
  25 C25            1.8045     4.3787    -0.1028 C.ar    
  26 C26            2.4887     5.4858    -0.6184 C.ar    
  27 C27            1.8551     6.7058    -0.7079 C.ar    
  28 H28            1.6220    -2.0400     1.4828 H       
  29 H29            4.7799    -3.0721    -0.3382 H       
  30 H30            6.7305    -2.1059    -1.4891 H       
  31 H31            6.4051    -0.4896    -3.3180 H       
  32 H32            4.1289     0.1599    -3.9965 H       
  33 H33            2.1781    -0.8126    -2.8512 H       
  34 H34            3.5556     3.0256     0.0040 H       
  35 H35           -1.1227     7.9035     1.6430 H       
  36 H36           -2.3015     8.0116     0.2970 H       
  37 H37           -0.0557     3.6663     0.7190 H       
  38 H38            3.5129     5.3836    -0.9454 H       
  39 H39            2.3844     7.5589    -1.1059 H       
@<TRIPOS>BOND
   1    1    2 1
   2    1    5 1
   3    2    3 am
   4    2    6 2
   5    3    4 am
   6    3    8 1
   7    4    5 1
   8    4    7 2
   9    5   18 2
  10    8    9 am
  11    8   28 1
  12    9   10 2
  13    9   11 2
  14    9   12 1
  15   12   13 ar
  16   12   17 ar
  17   13   14 ar
  18   13   29 1
  19   14   15 ar
  20   14   30 1
  21   15   16 ar
  22   15   31 1
  23   16   17 ar
  24   16   32 1
  25   17   33 1
  26   18   25 1
  27   18   34 1
  28   19   20 1
  29   19   23 1
  30   20   21 1
  31   20   35 1
  32   20   36 1
  33   21   22 1
  34   22   23 ar
  35   22   24 ar
  36   23   27 ar
  37   24   25 ar
  38   24   37 1
  39   25   26 ar
  40   26   27 ar
  41   26   38 1
  42   27   39 1

#	End of record

