#	Name: ASD02038621
#	Creating user name:	WinNT
#	Creation time:	15. 06. 2019 20:17

#	Modifying user name:	WinNT
#	Modification time:	15. 06. 2019 20:17

#	Program:	/corina/corina34_cracker 3.40 0067  02.08.2006

@<TRIPOS>MOLECULE
ASD02038621
  46   47    0    0    0
SMALL
NO_CHARGES


@<TRIPOS>ATOM
   1 C1             0.0245     2.0467    -0.9851 C.ar    
   2 C2            -0.0212     0.6708    -0.8541 C.ar    
   3 C3             1.1490    -0.0516    -0.7280 C.ar    
   4 C4             2.3729     0.6054    -0.7328 C.ar    
   5 C5             2.4152     1.9876    -0.8645 C.ar    
   6 C6             1.2412     2.7039    -0.9902 C.ar    
   7 N7             3.5584    -0.1222    -0.6050 N.pl3   
   8 C8             4.8483     0.5724    -0.6102 C.3     
   9 C9             5.9777    -0.4483    -0.4566 C.3     
  10 N10            7.2676     0.2462    -0.4619 N.am    
  11 C11            8.4114    -0.4558    -0.3386 C.2     
  12 C12            9.7383     0.2587    -0.3440 C.3     
  13 O13           10.7932    -0.6946    -0.2005 O.3     
  14 C14           12.0644    -0.2114    -0.1862 C.ar    
  15 C15           13.1354    -1.0821    -0.0500 C.ar    
  16 C16           12.2893     1.1514    -0.3134 C.ar    
  17 C17           13.5799     1.6429    -0.2994 C.ar    
  18 C18           14.6524     0.7725    -0.1574 C.ar    
  19 C19           14.4266    -0.5922    -0.0353 C.ar    
  20 N20           15.9604     1.2697    -0.1431 N.am    
  21 S21           16.5358     2.0478     1.2007 S.o2    
  22 O22           17.8737     2.3873     0.8631 O.2     
  23 O23           15.5685     3.0550     1.4635 O.2     
  24 C24           16.5087     0.7842     2.5018 C.3     
  25 O25            8.3729    -1.6625    -0.2232 O.2     
  26 H26           -0.8919     2.6088    -1.0881 H       
  27 H27           -0.9731     0.1607    -0.8501 H       
  28 H28            1.1126    -1.1261    -0.6254 H       
  29 H29            3.3651     2.5014    -0.8683 H       
  30 H30            1.2734     3.7785    -1.0930 H       
  31 H31            3.5276    -1.0873    -0.5127 H       
  32 H32            4.9685     1.1084    -1.5517 H       
  33 H33            4.8831     1.2802     0.2179 H       
  34 H34            5.8575    -0.9843     0.4848 H       
  35 H35            5.9428    -1.1562    -1.2848 H       
  36 H36            7.2984     1.2114    -0.5541 H       
  37 H37            9.8585     0.7947    -1.2854 H       
  38 H38            9.7732     0.9665     0.4842 H       
  39 H39           12.9595    -2.1434     0.0450 H       
  40 H40           11.4550     1.8282    -0.4239 H       
  41 H41           13.7548     2.7040    -0.3992 H       
  42 H42           15.2602    -1.2699     0.0752 H       
  43 H43           16.5300     1.1585    -0.9203 H       
  44 H44           17.0733    -0.0883     2.1728 H       
  45 H45           16.9587     1.1872     3.4091 H       
  46 H46           15.4779     0.4943     2.7054 H       
@<TRIPOS>BOND
   1    1    2 ar
   2    1    6 ar
   3    1   26 1
   4    2    3 ar
   5    2   27 1
   6    3    4 ar
   7    3   28 1
   8    4    5 ar
   9    4    7 1
  10    5    6 ar
  11    5   29 1
  12    6   30 1
  13    7    8 1
  14    7   31 1
  15    8    9 1
  16    8   32 1
  17    8   33 1
  18    9   10 1
  19    9   34 1
  20    9   35 1
  21   10   11 am
  22   10   36 1
  23   11   12 1
  24   11   25 2
  25   12   13 1
  26   12   37 1
  27   12   38 1
  28   13   14 1
  29   14   15 ar
  30   14   16 ar
  31   15   19 ar
  32   15   39 1
  33   16   17 ar
  34   16   40 1
  35   17   18 ar
  36   17   41 1
  37   18   19 ar
  38   18   20 1
  39   19   42 1
  40   20   21 am
  41   20   43 1
  42   21   22 2
  43   21   23 2
  44   21   24 1
  45   24   44 1
  46   24   45 1
  47   24   46 1

#	End of record

