#	Name: ASD01810612
#	Creating user name:	WinNT
#	Creation time:	15. 06. 2019 19:24

#	Modifying user name:	WinNT
#	Modification time:	15. 06. 2019 19:24

#	Program:	/corina/corina34_cracker 3.40 0067  02.08.2006

@<TRIPOS>MOLECULE
ASD01810612
  18   17    0    0    0
SMALL
NO_CHARGES


@<TRIPOS>ATOM
   1 Cl1            0.0000     0.0000     0.0000 Cl      
   2 H2             0.0000     1.3700     0.0000 H       
   3 N3             5.9172     8.1982     5.7963 N.3     
   4 N4             5.9369     6.7444     5.7883 N.3     
   5 C5             7.2163     8.7173     5.7867 C.ar    
   6 C6             7.4292    10.0554     5.4807 C.ar    
   7 C7             8.7139    10.5652     5.4726 C.ar    
   8 C8             9.7873     9.7451     5.7680 C.ar    
   9 C9             9.5803     8.4122     6.0728 C.ar    
  10 C10            8.2971     7.8964     6.0890 C.ar    
  11 F11            8.0946     6.5957     6.3926 F       
  12 Br12           5.9628    11.1784     5.0751 Br      
  13 H13            5.3788     8.5568     5.0219 H       
  14 H14            5.0000     6.3700     5.7952 H       
  15 H15            6.4604     6.3942     5.0000 H       
  16 H16            8.8797    11.6055     5.2347 H       
  17 H17           10.7899    10.1464     5.7605 H       
  18 H18           10.4210     7.7744     6.3023 H       
@<TRIPOS>BOND
   1    1    2 1
   2    3    4 1
   3    3    5 1
   4    3   13 1
   5    4   14 1
   6    4   15 1
   7    5    6 ar
   8    5   10 ar
   9    6    7 ar
  10    6   12 1
  11    7    8 ar
  12    7   16 1
  13    8    9 ar
  14    8   17 1
  15    9   10 ar
  16    9   18 1
  17   10   11 1

#	End of record

