#	Name: ASD01884075
#	Creating user name:	WinNT
#	Creation time:	15. 06. 2019 19:47

#	Modifying user name:	WinNT
#	Modification time:	15. 06. 2019 19:47

#	Program:	/corina/corina34_cracker 3.40 0067  02.08.2006

@<TRIPOS>MOLECULE
ASD01884075
  56   58    0    0    0
SMALL
NO_CHARGES


@<TRIPOS>ATOM
   1 C1            -0.9039    -0.2060     1.1061 C.2     
   2 C2             0.0029    -0.0246     0.0482 C.2     
   3 C3            -0.3312     0.8731    -0.9827 C.2     
   4 C4            -1.5049     1.5407    -0.9425 C.2     
   5 N5            -2.3826     1.3664     0.0795 N.am    
   6 C6            -2.1201     0.5168     1.0900 C.2     
   7 C7            -0.6057    -1.1093     2.1765 C.1     
   8 N8            -0.3691    -1.8259     3.0256 N.1     
   9 N9             1.1957    -0.7116     0.0210 N.pl3   
  10 O10           -2.9248     0.3781     1.9957 O.2     
  11 C11           -3.6430     2.1132     0.0786 C.3     
  12 C12           -4.7163     1.3014    -0.6494 C.3     
  13 C13           -6.0326     2.0813    -0.6504 C.3     
  14 C14            1.2151    -2.1795     0.0902 C.3     
  15 C15            1.9888    -2.7170    -1.1200 C.3     
  16 N16            3.2654    -1.9957    -1.2193 N.pl3   
  17 C17            3.2460    -0.5278    -1.2885 C.3     
  18 C18            2.4720     0.0094    -0.0839 C.3     
  19 C19            4.4637    -2.6859    -1.2466 C.2     
  20 C20           -7.0710     1.3281    -1.4842 C.3     
  21 C21           -6.5400     2.2272     0.7856 C.3     
  22 C22            5.6090    -2.0288    -1.4560 C.2     
  23 C23            6.8966    -2.7428    -1.3633 C.ar    
  24 C24            8.0951    -2.0595    -1.5814 C.ar    
  25 C25            9.2953    -2.7335    -1.4932 C.ar    
  26 C26            9.3139    -4.0833    -1.1895 C.ar    
  27 C27            8.1304    -4.7666    -0.9722 C.ar    
  28 C28            6.9232    -4.1041    -1.0515 C.ar    
  29 H29            0.3508     1.0286    -1.8056 H       
  30 H30           -1.7503     2.2274    -1.7392 H       
  31 H31           -3.9589     2.2941     1.1060 H       
  32 H32           -3.5003     3.0662    -0.4308 H       
  33 H33           -4.4004     1.1204    -1.6768 H       
  34 H34           -4.8590     0.3484    -0.1400 H       
  35 H35           -5.8690     3.0696    -1.0801 H       
  36 H36            1.7080    -2.4959     1.0095 H       
  37 H37            0.1939    -2.5602     0.0700 H       
  38 H38            2.1797    -3.7821    -0.9885 H       
  39 H39            1.4064    -2.5565    -2.0273 H       
  40 H40            4.2672    -0.1471    -1.2683 H       
  41 H41            2.7531    -0.2114    -2.2078 H       
  42 H42            2.2818     1.0744    -0.2167 H       
  43 H43            3.0523    -0.1506     0.8248 H       
  44 H44            4.4741    -3.7557    -1.0989 H       
  45 H45           -7.2346     0.3398    -1.0545 H       
  46 H46           -8.0088     1.8838    -1.4849 H       
  47 H47           -6.7095     1.2242    -2.5072 H       
  48 H48           -5.8002     2.7637     1.3797 H       
  49 H49           -7.4777     2.7828     0.7850 H       
  50 H50           -6.7035     1.2389     1.2153 H       
  51 H51            5.5915    -0.9753    -1.6929 H       
  52 H52            8.0820    -1.0060    -1.8189 H       
  53 H53           10.2228    -2.2064    -1.6619 H       
  54 H54           10.2565    -4.6061    -1.1220 H       
  55 H55            8.1523    -5.8201    -0.7356 H       
  56 H56            6.0002    -4.6386    -0.8817 H       
@<TRIPOS>BOND
   1    1    2 2
   2    1    7 1
   3    1    6 1
   4    2    3 1
   5    2    9 1
   6    3    4 2
   7    3   29 1
   8    4    5 1
   9    4   30 1
  10    5   11 1
  11    5    6 am
  12    6   10 2
  13    7    8 3
  14    9   14 1
  15    9   18 1
  16   11   12 1
  17   11   31 1
  18   11   32 1
  19   12   13 1
  20   12   33 1
  21   12   34 1
  22   13   20 1
  23   13   21 1
  24   13   35 1
  25   14   15 1
  26   14   36 1
  27   14   37 1
  28   15   16 1
  29   15   38 1
  30   15   39 1
  31   16   17 1
  32   16   19 1
  33   17   18 1
  34   17   40 1
  35   17   41 1
  36   18   42 1
  37   18   43 1
  38   19   22 2
  39   19   44 1
  40   20   45 1
  41   20   46 1
  42   20   47 1
  43   21   48 1
  44   21   49 1
  45   21   50 1
  46   22   23 1
  47   22   51 1
  48   23   24 ar
  49   23   28 ar
  50   24   25 ar
  51   24   52 1
  52   25   26 ar
  53   25   53 1
  54   26   27 ar
  55   26   54 1
  56   27   28 ar
  57   27   55 1
  58   28   56 1

#	End of record

