#	Name: ASD01813286
#	Creating user name:	WinNT
#	Creation time:	15. 06. 2019 19:30

#	Modifying user name:	WinNT
#	Modification time:	15. 06. 2019 19:30

#	Program:	/corina/corina34_cracker 3.40 0067  02.08.2006

@<TRIPOS>MOLECULE
ASD01813286
  60   64    0    0    0
SMALL
NO_CHARGES


@<TRIPOS>ATOM
   1 C1            -6.1354   -13.2506    -5.8346 C.3     
   2 N2            -5.1298   -12.2522    -6.2063 N.pl3   
   3 C3            -4.4358   -11.4734    -5.3521 C.2     
   4 C4            -3.6053   -10.6852    -6.0941 C.2     
   5 C5            -3.8125   -11.0074    -7.4494 C.2     
   6 N6            -4.7192   -11.9464    -7.5094 N.2     
   7 C7            -2.6558    -9.6720    -5.5683 C.ar    
   8 C8            -2.5496    -9.4600    -4.1958 C.ar    
   9 C9            -1.6652    -8.5173    -3.7107 C.ar    
  10 C10           -0.8849    -7.7829    -4.5845 C.ar    
  11 C11            0.0786    -6.7554    -4.0489 C.3     
  12 C12            1.4700    -7.3339    -4.0289 C.ar    
  13 C13            2.3022    -7.1324    -5.0808 C.ar    
  14 C14            3.6056    -7.6630    -5.0828 C.ar    
  15 C15            4.4905    -7.4284    -6.2400 C.2     
  16 O16            5.6174    -7.8850    -6.2460 O.2     
  17 N17            4.0496    -6.7080    -7.2903 N.am    
  18 C18            4.9282    -6.4750    -8.4392 C.3     
  19 H19            5.5552    -7.3516    -8.6025 H       
  20 C20            5.8138    -5.2550    -8.1680 C.3     
  21 C21            6.6719    -4.9721    -9.4039 C.3     
  22 O22            5.8226    -4.7648   -10.5344 O.3     
  23 C23            5.0054    -5.8897   -10.8643 C.3     
  24 C24            4.0804    -6.2117    -9.6875 C.3     
  25 H25            3.4169    -5.3663    -9.5055 H       
  26 O26            3.3045    -7.3726    -9.9914 O.3     
  27 C27            4.0647    -8.4055    -4.0031 C.ar    
  28 F28            5.3166    -8.9133    -4.0076 F       
  29 C29            3.2141    -8.6235    -2.9044 C.ar    
  30 C30            3.6410    -9.3688    -1.7924 C.ar    
  31 C31            2.7931    -9.5614    -0.7443 C.ar    
  32 C32            1.5059    -9.0296    -0.7577 C.ar    
  33 C33            1.0586    -8.3021    -1.8187 C.ar    
  34 C34            1.9059    -8.0776    -2.9157 C.ar    
  35 C35           -0.9858    -7.9890    -5.9510 C.ar    
  36 F36           -0.2210    -7.2686    -6.8003 F       
  37 C37           -1.8643    -8.9347    -6.4458 C.ar    
  38 H38           -5.6505   -14.2144    -5.6795 H       
  39 H39           -6.6317   -12.9414    -4.9147 H       
  40 H40           -6.8722   -13.3389    -6.6330 H       
  41 H41           -4.5217   -11.4734    -4.2755 H       
  42 H42           -3.3069   -10.5594    -8.2921 H       
  43 H43           -3.1587   -10.0321    -3.5117 H       
  44 H44           -1.5829    -8.3529    -2.6465 H       
  45 H45            0.0612    -5.8729    -4.6884 H       
  46 H46           -0.2134    -6.4763    -3.0365 H       
  47 H47            1.9598    -6.5573    -5.9284 H       
  48 H48            3.1506    -6.3437    -7.2855 H       
  49 H49            5.1864    -4.3897    -7.9543 H       
  50 H50            6.4605    -5.4569    -7.3141 H       
  51 H51            7.2731    -4.0793    -9.2324 H       
  52 H52            7.3280    -5.8217    -9.5931 H       
  53 H53            4.4062    -5.6580   -11.7448 H       
  54 H54            5.6398    -6.7513   -11.0726 H       
  55 H55            2.7423    -7.2765   -10.7723 H       
  56 H56            4.6364    -9.7871    -1.7691 H       
  57 H57            3.1233   -10.1349     0.1091 H       
  58 H58            0.8525    -9.1969     0.0858 H       
  59 H59            0.0576    -7.8965    -1.8147 H       
  60 H60           -1.9397    -9.0985    -7.5106 H       
@<TRIPOS>BOND
   1    1    2 1
   2    1   38 1
   3    1   39 1
   4    1   40 1
   5    2    6 1
   6    2    3 1
   7    3    4 2
   8    3   41 1
   9    4    5 1
  10    4    7 1
  11    5    6 2
  12    5   42 1
  13    7   37 ar
  14    7    8 ar
  15    8    9 ar
  16    8   43 1
  17    9   10 ar
  18    9   44 1
  19   10   11 1
  20   10   35 ar
  21   11   12 1
  22   11   45 1
  23   11   46 1
  24   12   34 ar
  25   12   13 ar
  26   13   14 ar
  27   13   47 1
  28   14   15 1
  29   14   27 ar
  30   15   16 2
  31   15   17 am
  32   17   18 1
  33   17   48 1
  34   18   19 1
  35   18   24 1
  36   18   20 1
  37   20   21 1
  38   20   49 1
  39   20   50 1
  40   21   22 1
  41   21   51 1
  42   21   52 1
  43   22   23 1
  44   23   24 1
  45   23   53 1
  46   23   54 1
  47   24   25 1
  48   24   26 1
  49   26   55 1
  50   27   28 1
  51   27   29 ar
  52   29   34 ar
  53   29   30 ar
  54   30   31 ar
  55   30   56 1
  56   31   32 ar
  57   31   57 1
  58   32   33 ar
  59   32   58 1
  60   33   34 ar
  61   33   59 1
  62   35   36 1
  63   35   37 ar
  64   37   60 1

#	End of record

