#	Name: ASD03091272
#	Creating user name:	WinNT
#	Creation time:	15. 06. 2019 20:30

#	Modifying user name:	WinNT
#	Modification time:	15. 06. 2019 20:30

#	Program:	/corina/corina34_cracker 3.40 0067  02.08.2006

@<TRIPOS>MOLECULE
ASD03091272
  48   52    0    0    0
SMALL
NO_CHARGES


@<TRIPOS>ATOM
   1 N1            -0.2578     1.9552    -0.0718 N.2     
   2 C2            -0.3466     0.6519    -0.1386 C.2     
   3 N3             0.7473    -0.1703    -0.1783 N.am    
   4 C4             1.9964     0.3502    -0.1494 C.2     
   5 C5             2.1202     1.8135    -0.0747 C.ar    
   6 C6             3.3619     2.4441    -0.0407 C.ar    
   7 C7             3.4200     3.8258     0.0292 C.ar    
   8 C8             2.2475     4.5809     0.0658 C.ar    
   9 C9             1.0236     3.9771     0.0336 C.ar    
  10 C10            0.9351     2.5833    -0.0374 C.ar    
  11 O11            2.9801    -0.3660    -0.1835 O.2     
  12 C12            5.6848     3.6196     0.7517 C.3     
  13 N13            4.6609     4.4678     0.0638 N.3     
  14 C14            4.5854     5.7287     0.8405 C.3     
  15 C15            5.6491     5.5732     1.9711 C.3     
  16 N16            5.0578     4.5508     2.8908 N.3     
  17 C17            5.0345     3.2793     2.1283 C.3     
  18 C18            6.7183     4.7098     1.2104 C.3     
  19 C19            3.7041     4.9390     3.3088 C.3     
  20 C20            0.5649    -1.6220    -0.2520 C.3     
  21 C21           -1.6899     0.0385    -0.1725 C.ar    
  22 C22           -2.0555    -0.7932    -1.2349 C.ar    
  23 C23           -3.3166    -1.3643    -1.2583 C.ar    
  24 C24           -4.2119    -1.1116    -0.2327 C.ar    
  25 C25           -3.8533    -0.2885     0.8203 C.ar    
  26 C26           -2.5983     0.2821     0.8595 C.ar    
  27 F27           -3.6741    -2.1687    -2.2832 F       
  28 F28           -1.1816    -1.0384    -2.2356 F       
  29 H29            4.2705     1.8609    -0.0682 H       
  30 H30            2.3090     5.6577     0.1206 H       
  31 H31            0.1248     4.5751     0.0629 H       
  32 H32            6.0720     2.7761     0.1801 H       
  33 H33            4.8299     6.5799     0.2051 H       
  34 H34            3.5910     5.8495     1.2704 H       
  35 H35            5.9948     6.4958     2.4374 H       
  36 H36            4.0079     2.9405     1.9886 H       
  37 H37            5.6184     2.5174     2.6448 H       
  38 H38            7.4773     4.3056     1.8803 H       
  39 H39            7.1590     5.2435     0.3684 H       
  40 H40            3.0255     4.8623     2.4593 H       
  41 H41            3.3656     4.2761     4.1051 H       
  42 H42            3.7167     5.9665     3.6722 H       
  43 H43            0.4483    -1.9211    -1.2937 H       
  44 H44            1.4363    -2.1197     0.1735 H       
  45 H45           -0.3255    -1.9053     0.3092 H       
  46 H46           -5.1947    -1.5588    -0.2549 H       
  47 H47           -4.5573    -0.0955     1.6162 H       
  48 H48           -2.3201     0.9201     1.6853 H       
@<TRIPOS>BOND
   1    1    2 2
   2    1   10 1
   3    2    3 1
   4    2   21 1
   5    3    4 am
   6    3   20 1
   7    4    5 1
   8    4   11 2
   9    5    6 ar
  10    5   10 ar
  11    6    7 ar
  12    6   29 1
  13    7    8 ar
  14    7   13 1
  15    8    9 ar
  16    8   30 1
  17    9   10 ar
  18    9   31 1
  19   12   13 1
  20   12   17 1
  21   12   18 1
  22   12   32 1
  23   13   14 1
  24   14   15 1
  25   14   33 1
  26   14   34 1
  27   15   16 1
  28   15   18 1
  29   15   35 1
  30   16   17 1
  31   16   19 1
  32   17   36 1
  33   17   37 1
  34   18   38 1
  35   18   39 1
  36   19   40 1
  37   19   41 1
  38   19   42 1
  39   20   43 1
  40   20   44 1
  41   20   45 1
  42   21   22 ar
  43   21   26 ar
  44   22   23 ar
  45   22   28 1
  46   23   24 ar
  47   23   27 1
  48   24   25 ar
  49   24   46 1
  50   25   26 ar
  51   25   47 1
  52   26   48 1

#	End of record

