#	Name: ASD01814525
#	Creating user name:	WinNT
#	Creation time:	15. 06. 2019 19:32

#	Modifying user name:	WinNT
#	Modification time:	15. 06. 2019 19:32

#	Program:	/corina/corina34_cracker 3.40 0067  02.08.2006

@<TRIPOS>MOLECULE
ASD01814525
  24   23    0    0    0
SMALL
NO_CHARGES


@<TRIPOS>ATOM
   1 C1            -0.0299     1.2951     0.4702 C.2     
   2 C2             0.0732     0.0272    -0.0203 C.2     
   3 N3             1.3036    -0.5579    -0.1513 N.pl3   
   4 O4            -1.0378    -0.6509    -0.3765 O.3     
   5 C5            -2.2170    -2.5798    -1.2303 C.3     
   6 C6            -0.8555    -1.9747    -0.8826 C.3     
   7 C7             1.1044     1.9451     0.9776 C.2     
   8 O8             2.1573     1.3411     1.0807 O.2     
   9 O9             1.0295     3.2407     1.3518 O.3     
  10 C10            1.9458     5.2980     2.2285 C.3     
  11 C11            2.2235     3.8393     1.8598 C.3     
  12 H12           -0.9843     1.8006     0.4639 H       
  13 H13            2.0905    -0.0073    -0.2876 H       
  14 H14            1.3887    -1.5232    -0.1080 H       
  15 H15           -2.7051    -1.9656    -1.9870 H       
  16 H16           -2.0780    -3.5896    -1.6163 H       
  17 H17           -2.8381    -2.6153    -0.3352 H       
  18 H18           -0.2344    -1.9392    -1.7776 H       
  19 H19           -0.3674    -2.5890    -0.1259 H       
  20 H20            1.6162     5.8403     1.3422 H       
  21 H21            1.1668     5.3384     2.9898 H       
  22 H22            2.8566     5.7546     2.6159 H       
  23 H23            2.5532     3.2970     2.7460 H       
  24 H24            3.0025     3.7989     1.0985 H       
@<TRIPOS>BOND
   1    1    2 2
   2    1    7 1
   3    1   12 1
   4    2    3 1
   5    2    4 1
   6    3   13 1
   7    3   14 1
   8    4    6 1
   9    5    6 1
  10    5   15 1
  11    5   16 1
  12    5   17 1
  13    6   18 1
  14    6   19 1
  15    7    8 2
  16    7    9 1
  17    9   11 1
  18   10   11 1
  19   10   20 1
  20   10   21 1
  21   10   22 1
  22   11   23 1
  23   11   24 1

#	End of record

