#	Name: ASD04560137
#	Creating user name:	WinNT
#	Creation time:	15. 06. 2019 20:49

#	Modifying user name:	WinNT
#	Modification time:	15. 06. 2019 20:49

#	Program:	/corina/corina34_cracker 3.40 0067  02.08.2006

@<TRIPOS>MOLECULE
ASD04560137
  48   51    0    0    0
SMALL
NO_CHARGES


@<TRIPOS>ATOM
   1 C1            -0.0173     1.3666     0.0244 C.ar    
   2 C2             0.0010    -0.0041     0.0240 C.ar    
   3 C3             1.2157    -0.6859     0.0136 C.ar    
   4 C4             2.4151     0.0225     0.0034 C.ar    
   5 C5             2.4031     1.3933     0.0042 C.ar    
   6 C6             1.1852     2.0805     0.0143 C.ar    
   7 C7             1.1690     3.5549     0.0146 C.2     
   8 O8             2.2154     4.1746     0.0062 O.2     
   9 N9            -0.0055     4.2159     0.0243 N.am    
  10 C10           -0.0226     5.6108     0.1376 C.ar    
  11 C11           -0.9920     6.3506    -0.5268 C.ar    
  12 C12            0.9074     7.6331     1.0301 C.ar    
  13 C13            0.9263     6.2566     0.9193 C.ar    
  14 S14            1.2351    -2.4478     0.0137 S.3     
  15 C15           -1.0073     7.7269    -0.4133 C.ar    
  16 C16           -0.0567     8.3693     0.3621 C.ar    
  17 F17           -0.0734     9.7157     0.4718 F       
  18 C18            3.0069    -2.8364    -0.0017 C.3     
  19 C19            3.1932    -4.3318    -0.0030 C.2     
  20 C20            4.5448    -4.9027    -0.0147 C.2     
  21 O21            2.2258    -5.0636     0.0055 O.2     
  22 C22            4.8755    -6.2321    -0.0174 C.2     
  23 C23            6.2969    -6.2268    -0.0297 C.2     
  24 N24            6.6608    -4.9690    -0.0331 N.2     
  25 O25            5.7089    -4.2243    -0.0309 O.3     
  26 C26            7.1911    -7.4118    -0.0369 C.ar    
  27 C27            8.5736    -7.2438    -0.0490 C.ar    
  28 C28            6.6500    -8.6958    -0.0257 C.ar    
  29 C29            7.4852    -9.7945    -0.0325 C.ar    
  30 C30            8.8577    -9.6233    -0.0503 C.ar    
  31 C31            9.4011    -8.3503    -0.0557 C.ar    
  32 Cl32          11.1246    -8.1435    -0.0781 Cl      
  33 H33           -0.9594     1.8947     0.0280 H       
  34 H34           -0.9274    -0.5560     0.0322 H       
  35 H35            3.3553    -0.5088    -0.0047 H       
  36 H36            3.3333     1.9420    -0.0029 H       
  37 H37           -0.8390     3.7249    -0.0472 H       
  38 H38           -1.7331     5.8500    -1.1322 H       
  39 H39            1.6452     8.1357     1.6379 H       
  40 H40            1.6784     5.6828     1.4404 H       
  41 H41           -1.7610     8.3026    -0.9299 H       
  42 H42            3.4641    -2.4125    -0.8957 H       
  43 H43            3.4796    -2.4122     0.8841 H       
  44 H44            4.2120    -7.0842    -0.0111 H       
  45 H45            8.9980    -6.2507    -0.0536 H       
  46 H46            5.5786    -8.8311    -0.0115 H       
  47 H47            7.0664   -10.7899    -0.0235 H       
  48 H48            9.5076   -10.4858    -0.0552 H       
@<TRIPOS>BOND
   1    1    2 ar
   2    1    6 ar
   3    1   33 1
   4    2    3 ar
   5    2   34 1
   6    3    4 ar
   7    3   14 1
   8    4    5 ar
   9    4   35 1
  10    5    6 ar
  11    5   36 1
  12    6    7 1
  13    7    8 2
  14    7    9 am
  15    9   10 1
  16    9   37 1
  17   10   11 ar
  18   10   13 ar
  19   11   15 ar
  20   11   38 1
  21   12   13 ar
  22   12   16 ar
  23   12   39 1
  24   13   40 1
  25   14   18 1
  26   15   16 ar
  27   15   41 1
  28   16   17 1
  29   18   19 1
  30   18   42 1
  31   18   43 1
  32   19   20 1
  33   19   21 2
  34   20   22 2
  35   20   25 1
  36   22   23 1
  37   22   44 1
  38   23   24 2
  39   23   26 1
  40   24   25 1
  41   26   27 ar
  42   26   28 ar
  43   27   31 ar
  44   27   45 1
  45   28   29 ar
  46   28   46 1
  47   29   30 ar
  48   29   47 1
  49   30   31 ar
  50   30   48 1
  51   31   32 1

#	End of record

