#	Name: ASD01811991
#	Creating user name:	WinNT
#	Creation time:	15. 06. 2019 19:27

#	Modifying user name:	WinNT
#	Modification time:	15. 06. 2019 19:27

#	Program:	/corina/corina34_cracker 3.40 0067  02.08.2006

@<TRIPOS>MOLECULE
ASD01811991
  65   70    0    0    0
SMALL
NO_CHARGES


@<TRIPOS>ATOM
   1 C1            -0.0168     1.3869     0.0097 C.ar    
   2 C2             0.0021    -0.0041     0.0020 C.ar    
   3 C3             1.1801    -0.6897    -0.0129 C.ar    
   4 C4             2.3948     0.0129    -0.0207 C.ar    
   5 C5             2.3717     1.4290    -0.0129 C.ar    
   6 C6             1.1455     2.1015     0.0024 C.ar    
   7 C7             3.6293    -0.6694    -0.0365 C.ar    
   8 C8             4.8031     0.0063    -0.0446 C.ar    
   9 C9             4.8359     1.4095    -0.0374 C.ar    
  10 C10            3.6406     2.1511    -0.0211 C.ar    
  11 C11            6.1026     2.1526    -0.0470 C.2     
  12 N12            6.0328     3.5041    -0.0399 N.am    
  13 C13            4.8302     4.1313    -0.0241 C.2     
  14 N14            3.6961     3.4935    -0.0158 N.2     
  15 O15            7.1745     1.5748    -0.0604 O.2     
  16 C16            3.6424    -2.1763    -0.0442 C.3     
  17 C17            3.5087    -2.6726    -1.4608 C.ar    
  18 C18            4.6367    -2.8928    -2.2367 C.ar    
  19 C19            4.4664    -3.3494    -3.5343 C.ar    
  20 C20            3.1855    -3.5688    -4.0089 C.ar    
  21 N21            2.1348    -3.3481    -3.2413 N.ar    
  22 C22            2.2607    -2.9192    -2.0006 C.ar    
  23 C23            7.2655     4.2957    -0.0490 C.3     
  24 C24            7.2933     5.1852    -1.2950 C.3     
  25 C25            8.5531     6.0535    -1.2679 C.3     
  26 N26            8.5533     6.8803    -0.0543 N.3     
  27 C27            8.5745     6.0478     1.1553 C.3     
  28 C28            7.3153     5.1793     1.2005 C.3     
  29 Cl29           2.9576    -4.1401    -5.6323 Cl      
  30 C30            9.6771     7.8264    -0.0620 C.3     
  31 C31            9.5092     8.8148     1.0631 C.2     
  32 C32           12.3984    11.8632     1.6567 C.ar    
  33 C33           11.3028    11.7799     2.4983 C.ar    
  34 C34           10.3593    10.7918     2.3119 C.ar    
  35 C35           10.5115     9.8726     1.2690 C.ar    
  36 C36           11.6214     9.9634     0.4229 C.ar    
  37 C37           12.5564    10.9570     0.6226 C.ar    
  38 O38            8.5483     8.7387     1.7987 O.2     
  39 H39           -0.9630     1.9076     0.0169 H       
  40 H40           -0.9305    -0.5488     0.0083 H       
  41 H41            1.1786    -1.7697    -0.0183 H       
  42 H42            1.1188     3.1811     0.0081 H       
  43 H43            5.7317    -0.5451    -0.0563 H       
  44 H44            4.8132     5.2111    -0.0182 H       
  45 H45            4.5813    -2.5336     0.3789 H       
  46 H46            2.8098    -2.5499     0.5518 H       
  47 H47            5.6246    -2.7124    -1.8395 H       
  48 H48            5.3226    -3.5313    -4.1669 H       
  49 H49            1.3776    -2.7501    -1.4022 H       
  50 H50            8.1271     3.6281    -0.0587 H       
  51 H51            7.3011     4.5603    -2.1881 H       
  52 H52            6.4107     5.8247    -1.3053 H       
  53 H53            9.4355     5.4135    -1.2715 H       
  54 H54            8.5688     6.6983    -2.1466 H       
  55 H55            9.4568     5.4079     1.1403 H       
  56 H56            8.6057     6.6885     2.0366 H       
  57 H57            6.4331     5.8187     1.2295 H       
  58 H58            7.3389     4.5502     2.0904 H       
  59 H59           10.6118     7.2814     0.0697 H       
  60 H60            9.6975     8.3584    -1.0131 H       
  61 H61           13.1317    12.6422     1.8050 H       
  62 H62           11.1867    12.4905     3.3032 H       
  63 H63            9.5051    10.7278     2.9696 H       
  64 H64           11.7461     9.2570    -0.3845 H       
  65 H65           13.4140    11.0285    -0.0299 H       
@<TRIPOS>BOND
   1    1    2 ar
   2    1    6 ar
   3    1   39 1
   4    2    3 ar
   5    2   40 1
   6    3    4 ar
   7    3   41 1
   8    4    5 ar
   9    4    7 ar
  10    5    6 ar
  11    5   10 ar
  12    6   42 1
  13    7    8 ar
  14    7   16 1
  15    8    9 ar
  16    8   43 1
  17    9   10 ar
  18    9   11 1
  19   10   14 1
  20   11   12 am
  21   11   15 2
  22   12   13 1
  23   12   23 1
  24   13   14 2
  25   13   44 1
  26   16   17 1
  27   16   45 1
  28   16   46 1
  29   17   18 ar
  30   17   22 ar
  31   18   19 ar
  32   18   47 1
  33   19   20 ar
  34   19   48 1
  35   20   21 ar
  36   20   29 1
  37   21   22 ar
  38   22   49 1
  39   23   24 1
  40   23   28 1
  41   23   50 1
  42   24   25 1
  43   24   51 1
  44   24   52 1
  45   25   26 1
  46   25   53 1
  47   25   54 1
  48   26   30 1
  49   26   27 1
  50   27   28 1
  51   27   55 1
  52   27   56 1
  53   28   57 1
  54   28   58 1
  55   30   31 1
  56   30   59 1
  57   30   60 1
  58   31   38 2
  59   31   35 1
  60   32   33 ar
  61   32   37 ar
  62   32   61 1
  63   33   34 ar
  64   33   62 1
  65   34   35 ar
  66   34   63 1
  67   35   36 ar
  68   36   37 ar
  69   36   64 1
  70   37   65 1

#	End of record

