#	Name: ASD07330014
#	Creating user name:	WinNT
#	Creation time:	15. 06. 2019 21:11

#	Modifying user name:	WinNT
#	Modification time:	15. 06. 2019 21:11

#	Program:	/corina/corina34_cracker 3.40 0067  02.08.2006

@<TRIPOS>MOLECULE
ASD07330014
  52   53    0    0    0
SMALL
NO_CHARGES


@<TRIPOS>ATOM
   1 C1             0.0755     1.1095    -0.8713 C.ar    
   2 C2             0.0874    -0.0611    -0.1274 C.ar    
   3 N3             1.2019    -0.5544     0.3696 N.ar    
   4 C4             2.3719     0.0479     0.1808 C.ar    
   5 C5             2.4325     1.2450    -0.5685 C.ar    
   6 C6             1.2618     1.7833    -1.1027 C.ar    
   7 N7             3.5203    -0.4590     0.6926 N.2     
   8 C8             4.6657     0.1263     0.5111 C.2     
   9 N9             4.8151     1.2777    -0.1946 N.am    
  10 C10            3.7421     1.8829    -0.7562 C.2     
  11 O11            3.8581     2.9145    -1.3919 O.2     
  12 C12            6.0893     1.8433    -0.3419 C.ar    
  13 C13            6.9239     1.4179    -1.3669 C.ar    
  14 C14            8.1785     1.9757    -1.5117 C.ar    
  15 C15            8.6054     2.9612    -0.6333 C.ar    
  16 C16            7.7720     3.3867     0.3911 C.ar    
  17 C17            6.5151     2.8333     0.5337 C.ar    
  18 C18            5.8935    -0.5049     1.1154 C.3     
  19 C19            6.0266    -0.0660     2.5751 C.3     
  20 N20            5.7733    -1.9677     1.0529 N.3     
  21 C21            7.0967    -2.6053     1.0582 C.3     
  22 C22            6.9334    -4.1020     0.9933 C.2     
  23 C23            7.5311    -4.7858     0.0491 C.2     
  24 O24            9.8410     3.5097    -0.7761 O.3     
  25 C25           11.6279     5.0135    -0.1544 C.3     
  26 C26           10.2153     4.5191     0.1637 C.3     
  27 B27            7.3625    -6.3312    -0.0179 Du      
  28 F28            6.0368    -6.6396    -0.1744 F       
  29 F29            8.0742    -6.8226    -1.0803 F       
  30 F30            7.8279    -6.8920     1.1422 F       
  31 H31           -0.8528     1.4902    -1.2710 H       
  32 H32           -0.8425    -0.5814     0.0490 H       
  33 H33            1.2807     2.6964    -1.6791 H       
  34 H34            6.5917     0.6506    -2.0505 H       
  35 H35            8.8278     1.6447    -2.3086 H       
  36 H36            8.1050     4.1535     1.0748 H       
  37 H37            5.8663     3.1649     1.3309 H       
  38 H38            6.7759    -0.1887     0.5590 H       
  39 H39            6.1653     1.0142     2.6184 H       
  40 H40            5.1229    -0.3385     3.1202 H       
  41 H41            6.8864    -0.5612     3.0264 H       
  42 H42            5.2011    -2.3160     1.8074 H       
  43 H43            7.6677    -2.2643     0.1946 H       
  44 H44            7.6258    -2.3368     1.9726 H       
  45 H45            6.3237    -4.6109     1.7251 H       
  46 H46            8.1408    -4.2769    -0.6827 H       
  47 H47           11.9133     5.7834     0.5624 H       
  48 H48           12.3275     4.1801    -0.0903 H       
  49 H49           11.6492     5.4291    -1.1618 H       
  50 H50            9.5157     5.3525     0.0996 H       
  51 H51           10.1940     4.1035     1.1711 H       
  52 K52           17.3275    10.7834     8.1202 Du      
@<TRIPOS>BOND
   1    1    2 ar
   2    1    6 ar
   3    1   31 1
   4    2    3 ar
   5    2   32 1
   6    3    4 ar
   7    4    5 ar
   8    4    7 1
   9    5    6 ar
  10    5   10 1
  11    6   33 1
  12    7    8 2
  13    8    9 1
  14    8   18 1
  15    9   10 am
  16    9   12 1
  17   10   11 2
  18   12   13 ar
  19   12   17 ar
  20   13   14 ar
  21   13   34 1
  22   14   15 ar
  23   14   35 1
  24   15   16 ar
  25   15   24 1
  26   16   17 ar
  27   16   36 1
  28   17   37 1
  29   18   19 1
  30   18   20 1
  31   18   38 1
  32   19   39 1
  33   19   40 1
  34   19   41 1
  35   20   21 1
  36   20   42 1
  37   21   22 1
  38   21   43 1
  39   21   44 1
  40   22   23 2
  41   22   45 1
  42   23   27 1
  43   23   46 1
  44   24   26 1
  45   25   26 1
  46   25   47 1
  47   25   48 1
  48   25   49 1
  49   26   50 1
  50   26   51 1
  51   27   28 1
  52   27   29 1
  53   27   30 1

#	End of record

