#	Name: ASD09740061
#	Creating user name:	WinNT
#	Creation time:	15. 06. 2019 21:22

#	Modifying user name:	WinNT
#	Modification time:	15. 06. 2019 21:22

#	Program:	/corina/corina34_cracker 3.40 0067  02.08.2006

@<TRIPOS>MOLECULE
ASD09740061
  32   34    0    0    0
SMALL
NO_CHARGES


@<TRIPOS>ATOM
   1 N1            -0.0144     1.2085     0.0087 N.2     
   2 O2             0.0021    -0.0041     0.0020 O.3     
   3 C3             1.2057     1.6798    -0.0004 C.2     
   4 N4             2.0455     0.6239    -0.0141 N.2     
   5 C5             1.2699    -0.4439    -0.0125 C.2     
   6 C6             1.7129    -1.8543    -0.0235 C.ar    
   7 C7             1.5950     3.1130     0.0031 C.ar    
   8 C8             0.7713    -2.8848    -0.0202 C.ar    
   9 C9             3.0740    -2.1612    -0.0432 C.ar    
  10 C10            3.4808    -3.4796    -0.0539 C.ar    
  11 C11            2.5426    -4.4962    -0.0457 C.ar    
  12 C12            1.1912    -4.1986    -0.0310 C.ar    
  13 C13            0.6263     4.1194     0.0178 C.ar    
  14 C14            1.0315     5.4391     0.0211 C.ar    
  15 N15            2.3122     5.7539     0.0101 N.ar    
  16 C16            3.2577     4.8345    -0.0039 C.ar    
  17 C17            2.9397     3.4912    -0.0023 C.ar    
  18 C18            2.9941    -5.9339    -0.0585 C.3     
  19 C19            0.1762    -5.3125    -0.0217 C.3     
  20 F20           -1.1127    -4.7687    -0.0074 F       
  21 F21            0.3374    -6.1000    -1.1667 F       
  22 F22            0.3616    -6.1028     1.1177 F       
  23 H23           -0.2837    -2.6539    -0.0087 H       
  24 H24            3.8075    -1.3685    -0.0504 H       
  25 H25            4.5339    -3.7185    -0.0692 H       
  26 H26           -0.4242     3.8688     0.0261 H       
  27 H27            0.2899     6.2241     0.0324 H       
  28 H28            4.2945     5.1367    -0.0125 H       
  29 H29            3.7191     2.7436    -0.0135 H       
  30 H30            3.1171    -6.2852     0.9660 H       
  31 H31            2.2468    -6.5449    -0.5649 H       
  32 H32            3.9449    -6.0114    -0.5858 H       
@<TRIPOS>BOND
   1    1    2 1
   2    1    3 2
   3    2    5 1
   4    3    4 1
   5    3    7 1
   6    4    5 2
   7    5    6 1
   8    6    8 ar
   9    6    9 ar
  10    7   13 ar
  11    7   17 ar
  12    8   12 ar
  13    8   23 1
  14    9   10 ar
  15    9   24 1
  16   10   11 ar
  17   10   25 1
  18   11   12 ar
  19   11   18 1
  20   12   19 1
  21   13   14 ar
  22   13   26 1
  23   14   15 ar
  24   14   27 1
  25   15   16 ar
  26   16   17 ar
  27   16   28 1
  28   17   29 1
  29   18   30 1
  30   18   31 1
  31   18   32 1
  32   19   20 1
  33   19   21 1
  34   19   22 1

#	End of record

