#	Name: ASD01890450
#	Creating user name:	WinNT
#	Creation time:	15. 06. 2019 19:51

#	Modifying user name:	WinNT
#	Modification time:	15. 06. 2019 19:51

#	Program:	/corina/corina34_cracker 3.40 0067  02.08.2006

@<TRIPOS>MOLECULE
ASD01890450
  25   25    0    0    0
SMALL
NO_CHARGES


@<TRIPOS>ATOM
   1 C1            -0.0184     1.5028     0.0103 C.2     
   2 C2             0.0021    -0.0041     0.0020 C.3     
   3 O3             1.0237     2.1235     0.0037 O.2     
   4 C4            -1.3000     2.2197     0.0203 C.ar    
   5 C5            -1.3218     3.6199     0.0280 C.ar    
   6 C6            -2.5211     4.2844     0.0373 C.ar    
   7 C7            -3.7146     3.5704     0.0392 C.ar    
   8 C8            -3.6985     2.1797     0.0315 C.ar    
   9 C9            -2.5046     1.5055     0.0163 C.ar    
  10 O10           -4.8986     4.2326     0.0489 O.3     
  11 C11           -6.0863     3.4381     0.0502 C.3     
  12 O12           -6.2819     2.8760     1.3494 O.3     
  13 C13           -6.7555     3.8101     2.3216 C.3     
  14 H14            0.0168    -0.3729     1.0276 H       
  15 H15           -0.8878    -0.3767    -0.5053 H       
  16 H16            0.8920    -0.3525    -0.5222 H       
  17 H17           -0.3956     4.1753     0.0269 H       
  18 H18           -2.5390     5.3643     0.0437 H       
  19 H19           -4.6281     1.6298     0.0333 H       
  20 H20           -2.4932     0.4256     0.0059 H       
  21 H21           -6.9415     4.0627    -0.2079 H       
  22 H22           -5.9880     2.6363    -0.6816 H       
  23 H23           -6.0350     4.6212     2.4273 H       
  24 H24           -7.7144     4.2156     1.9989 H       
  25 H25           -6.8782     3.3059     3.2802 H       
@<TRIPOS>BOND
   1    1    2 1
   2    1    3 2
   3    1    4 1
   4    2   14 1
   5    2   15 1
   6    2   16 1
   7    4    5 ar
   8    4    9 ar
   9    5    6 ar
  10    5   17 1
  11    6    7 ar
  12    6   18 1
  13    7    8 ar
  14    7   10 1
  15    8    9 ar
  16    8   19 1
  17    9   20 1
  18   10   11 1
  19   11   12 1
  20   11   21 1
  21   11   22 1
  22   12   13 1
  23   13   23 1
  24   13   24 1
  25   13   25 1

#	End of record

