#	Name: ASD01840327
#	Creating user name:	WinNT
#	Creation time:	15. 06. 2019 19:37

#	Modifying user name:	WinNT
#	Modification time:	15. 06. 2019 19:37

#	Program:	/corina/corina34_cracker 3.40 0067  02.08.2006

@<TRIPOS>MOLECULE
ASD01840327
  42   45    0    0    0
SMALL
NO_CHARGES


@<TRIPOS>ATOM
   1 C1             0.1524     1.2529     0.6545 C.2     
   2 O2             0.1934     0.0366     0.6894 O.2     
   3 N3             1.2599     1.9724     0.9234 N.am    
   4 C4             2.6537     1.6750     1.2862 C.3     
   5 C5             3.0500     3.0088     0.6379 C.3     
   6 C6             1.6078     3.4003     0.9769 C.3     
   7 C7             4.0978     3.7788     1.3996 C.ar    
   8 C8             5.3052     4.0826     0.7991 C.ar    
   9 C9             6.2663     4.7890     1.4978 C.ar    
  10 C10            6.0198     5.1919     2.7970 C.ar    
  11 C11            4.8120     4.8889     3.3972 C.ar    
  12 C12            3.8492     4.1863     2.6970 C.ar    
  13 C13           -2.9844     3.5441    -0.2087 C.ar    
  14 C14           -3.3603     2.1961    -0.2806 C.ar    
  15 C15           -4.7011     1.9106    -0.6254 C.ar    
  16 C16           -5.5473     2.9704    -0.8673 C.ar    
  17 N17           -5.1021     4.2118    -0.7752 N.ar    
  18 N18           -3.8914     4.4900    -0.4635 N.ar    
  19 C19           -2.2601     1.3000     0.0237 C.2     
  20 C20           -1.0967     1.9329     0.3148 C.2     
  21 S21           -1.2855     3.6731     0.2245 S.3     
  22 C22           -5.1903     0.4888    -0.7260 C.3     
  23 C23           -6.9851     2.7139    -1.2386 C.3     
  24 N24           -2.3888    -0.0824     0.0226 N.pl3   
  25 H25            2.8258     1.6473     2.3621 H       
  26 H26            3.0600     0.8045     0.7712 H       
  27 H27            3.2523     2.9434    -0.4312 H       
  28 H28            1.1266     3.9938     0.1996 H       
  29 H29            1.4985     3.8368     1.9697 H       
  30 H30            5.4978     3.7678    -0.2159 H       
  31 H31            7.2100     5.0257     1.0289 H       
  32 H32            6.7710     5.7431     3.3431 H       
  33 H33            4.6195     5.2034     4.4123 H       
  34 H34            2.9042     3.9528     3.1646 H       
  35 H35           -5.4698     0.1298     0.2645 H       
  36 H36           -6.0576     0.4487    -1.3850 H       
  37 H37           -4.3974    -0.1406    -1.1302 H       
  38 H38           -7.5919     2.6712    -0.3341 H       
  39 H39           -7.3442     3.5192    -1.8793 H       
  40 H40           -7.0593     1.7656    -1.7709 H       
  41 H41           -1.5997    -0.6429    -0.0403 H       
  42 H42           -3.2679    -0.4877     0.0847 H       
@<TRIPOS>BOND
   1    1    2 2
   2    1    3 am
   3    1   20 1
   4    3    4 1
   5    3    6 1
   6    4    5 1
   7    4   25 1
   8    4   26 1
   9    5    6 1
  10    5    7 1
  11    5   27 1
  12    6   28 1
  13    6   29 1
  14    7    8 ar
  15    7   12 ar
  16    8    9 ar
  17    8   30 1
  18    9   10 ar
  19    9   31 1
  20   10   11 ar
  21   10   32 1
  22   11   12 ar
  23   11   33 1
  24   12   34 1
  25   13   14 ar
  26   13   18 ar
  27   13   21 1
  28   14   15 ar
  29   14   19 1
  30   15   16 ar
  31   15   22 1
  32   16   17 ar
  33   16   23 1
  34   17   18 ar
  35   19   20 2
  36   19   24 1
  37   20   21 1
  38   22   35 1
  39   22   36 1
  40   22   37 1
  41   23   38 1
  42   23   39 1
  43   23   40 1
  44   24   41 1
  45   24   42 1

#	End of record

