#	Name: ASD01410206
#	Creating user name:	WinNT
#	Creation time:	15. 06. 2019 19:16

#	Modifying user name:	WinNT
#	Modification time:	15. 06. 2019 19:16

#	Program:	/corina/corina34_cracker 3.40 0067  02.08.2006

@<TRIPOS>MOLECULE
ASD01410206
  42   44    0    0    0
SMALL
NO_CHARGES


@<TRIPOS>ATOM
   1 C1            -0.0354     1.2710    -0.3781 C.2     
   2 N2            -0.0180    -0.0327     0.0231 N.pl3   
   3 N3            -1.1940    -0.3957     0.3905 N.2     
   4 C4            -2.0454     0.6056     0.2638 C.2     
   5 C5            -1.3198     1.7135    -0.2316 C.2     
   6 C6             1.1681    -0.8926     0.0334 C.3     
   7 C7             1.2134    -1.6833     1.3424 C.3     
   8 C8             2.4521    -2.5813     1.3531 C.3     
   9 C9             2.3882    -3.5525     0.1726 C.3     
  10 C10            2.3429    -2.7618    -1.1364 C.3     
  11 C11            1.1042    -1.8637    -1.1472 C.3     
  12 C12           -3.4811     0.5755     0.5832 C.2     
  13 C13           -4.0438    -0.5567     1.0563 C.2     
  14 C14           -5.4698    -0.5865     1.3736 C.2     
  15 O15           -6.0321    -1.7181     1.8465 O.3     
  16 O16           -6.1499     0.4088     1.2113 O.2     
  17 C17            1.1173     2.0573    -0.8714 C.ar    
  18 C18            2.1962     1.4135    -1.4776 C.ar    
  19 C19            3.2679     2.1521    -1.9355 C.ar    
  20 C20            3.2740     3.5283    -1.7944 C.ar    
  21 C21            2.2072     4.1726    -1.1937 C.ar    
  22 C22            1.1268     3.4457    -0.7373 C.ar    
  23 H23           -1.7013     2.6992    -0.4532 H       
  24 H24            2.0638    -0.2771    -0.0505 H       
  25 H25            1.2589    -0.9914     2.1834 H       
  26 H26            0.3177    -2.2988     1.4263 H       
  27 H27            3.3478    -1.9659     1.2692 H       
  28 H28            2.4844    -3.1446     2.2857 H       
  29 H29            3.2707    -4.1923     0.1803 H       
  30 H30            1.4925    -4.1679     0.2565 H       
  31 H31            3.2386    -2.1463    -1.2203 H       
  32 H32            2.2973    -3.4536    -1.9774 H       
  33 H33            0.2085    -2.4792    -1.0632 H       
  34 H34            1.0719    -1.3004    -2.0797 H       
  35 H35           -4.0850     1.4592     0.4391 H       
  36 H36           -3.4399    -1.4404     1.2004 H       
  37 H37           -6.9790    -1.6411     2.0270 H       
  38 H38            2.1927     0.3392    -1.5880 H       
  39 H39            4.1040     1.6548    -2.4046 H       
  40 H40            4.1152     4.1021    -2.1543 H       
  41 H41            2.2181     5.2471    -1.0858 H       
  42 H42            0.2945     3.9497    -0.2688 H       
@<TRIPOS>BOND
   1    1    2 1
   2    1   17 1
   3    1    5 2
   4    2    3 1
   5    2    6 1
   6    3    4 2
   7    4    5 1
   8    4   12 1
   9    5   23 1
  10    6    7 1
  11    6   11 1
  12    6   24 1
  13    7    8 1
  14    7   25 1
  15    7   26 1
  16    8    9 1
  17    8   27 1
  18    8   28 1
  19    9   10 1
  20    9   29 1
  21    9   30 1
  22   10   11 1
  23   10   31 1
  24   10   32 1
  25   11   33 1
  26   11   34 1
  27   12   13 2
  28   12   35 1
  29   13   14 1
  30   13   36 1
  31   14   15 1
  32   14   16 2
  33   15   37 1
  34   17   18 ar
  35   17   22 ar
  36   18   19 ar
  37   18   38 1
  38   19   20 ar
  39   19   39 1
  40   20   21 ar
  41   20   40 1
  42   21   22 ar
  43   21   41 1
  44   22   42 1

#	End of record

