#	Name: ASD04880508
#	Creating user name:	WinNT
#	Creation time:	15. 06. 2019 20:53

#	Modifying user name:	WinNT
#	Modification time:	15. 06. 2019 20:53

#	Program:	/corina/corina34_cracker 3.40 0067  02.08.2006

@<TRIPOS>MOLECULE
ASD04880508
  40   42    0    0    0
SMALL
NO_CHARGES


@<TRIPOS>ATOM
   1 C1            -0.0383     1.4850    -0.2855 C.2     
   2 C2            -0.0134     0.0111    -0.2623 C.ar    
   3 C3             1.2112    -0.6734    -0.3036 C.ar    
   4 C4             1.2319    -2.0612    -0.2817 C.ar    
   5 C5             0.0537    -2.7722    -0.2195 C.ar    
   6 C6            -1.1735    -2.1007    -0.1778 C.ar    
   7 C7            -1.2060    -0.7079    -0.1935 C.ar    
   8 O8             1.0026     2.1095    -0.3405 O.2     
   9 O9            -1.2156     2.1396    -0.2513 O.3     
  10 O10            2.3742     0.0211    -0.3654 O.3     
  11 C11            3.5830    -0.7400    -0.4048 C.3     
  12 N12           -4.6394    -3.2949    -0.0113 N.am    
  13 N13           -3.6128    -2.3546    -0.0700 N.2     
  14 C14           -2.4314    -2.8671    -0.1118 C.2     
  15 C15           -2.5338    -4.3753    -0.0832 C.3     
  16 C16           -4.0503    -4.6434    -0.0146 C.3     
  17 C17           -5.9566    -3.0150     0.0450 C.2     
  18 C18           -6.4095    -1.6141     0.1743 C.ar    
  19 C19           -7.7684    -1.3062     0.0892 C.ar    
  20 C20           -8.1847     0.0055     0.2109 C.ar    
  21 C21           -7.2557     1.0132     0.4170 C.ar    
  22 C22           -5.9083     0.7127     0.5015 C.ar    
  23 C23           -5.4807    -0.5942     0.3878 C.ar    
  24 O24           -6.7723    -3.9150    -0.0105 O.2     
  25 F25           -9.4992     0.3065     0.1285 F       
  26 H26            2.1755    -2.5856    -0.3140 H       
  27 H27            0.0771    -3.8518    -0.2031 H       
  28 H28           -2.1515    -0.1873    -0.1569 H       
  29 H29           -1.1814     3.1058    -0.2684 H       
  30 H30            4.4366    -0.0639    -0.4529 H       
  31 H31            3.6555    -1.3534     0.4933 H       
  32 H32            3.5788    -1.3832    -1.2848 H       
  33 H33           -2.1103    -4.8046    -0.9912 H       
  34 H34           -2.0345    -4.7758     0.7991 H       
  35 H35           -4.3047    -5.1753     0.9021 H       
  36 H36           -4.3806    -5.2042    -0.8890 H       
  37 H37           -8.4924    -2.0913    -0.0718 H       
  38 H38           -7.5852     2.0374     0.5116 H       
  39 H39           -5.1894     1.5026     0.6615 H       
  40 H40           -4.4286    -0.8272     0.4593 H       
@<TRIPOS>BOND
   1    1    2 1
   2    1    8 2
   3    1    9 1
   4    2    3 ar
   5    2    7 ar
   6    3    4 ar
   7    3   10 1
   8    4    5 ar
   9    4   26 1
  10    5    6 ar
  11    5   27 1
  12    6    7 ar
  13    6   14 1
  14    7   28 1
  15    9   29 1
  16   10   11 1
  17   11   30 1
  18   11   31 1
  19   11   32 1
  20   12   13 1
  21   12   16 1
  22   12   17 am
  23   13   14 2
  24   14   15 1
  25   15   16 1
  26   15   33 1
  27   15   34 1
  28   16   35 1
  29   16   36 1
  30   17   18 1
  31   17   24 2
  32   18   19 ar
  33   18   23 ar
  34   19   20 ar
  35   19   37 1
  36   20   21 ar
  37   20   25 1
  38   21   22 ar
  39   21   38 1
  40   22   23 ar
  41   22   39 1
  42   23   40 1

#	End of record

