#	Name: ASD00171093
#	Creating user name:	WinNT
#	Creation time:	15. 06. 2019 18:33

#	Modifying user name:	WinNT
#	Modification time:	15. 06. 2019 18:33

#	Program:	/corina/corina34_cracker 3.40 0067  02.08.2006

@<TRIPOS>MOLECULE
ASD00171093
  58   61    0    0    0
SMALL
NO_CHARGES


@<TRIPOS>ATOM
   1 C1            -0.7740     1.2654    -0.3278 C.2     
   2 N2            -0.5367    -0.0281    -0.6226 N.am    
   3 C3            -1.6207    -1.0215    -0.5875 C.3     
   4 C4            -1.6162    -1.7939    -1.9110 C.3     
   5 N5            -0.2755    -2.3456    -2.1477 N.3     
   6 C6             0.7219    -1.2773    -2.2955 C.3     
   7 C7             0.8120    -0.4827    -0.9937 C.3     
   8 C8            -0.2712    -3.2353    -3.3166 C.3     
   9 C9             1.1498    -3.5854    -3.6762 C.2     
  10 C10            1.8203    -2.9964    -4.6541 C.2     
  11 S11            3.4415    -3.6539    -4.7868 S.3     
  12 C12            3.1905    -4.7375    -3.4953 C.2     
  13 C13            1.9216    -4.5954    -2.9832 C.2     
  14 N14            4.1318    -5.6306    -3.0252 N.pl3   
  15 C15            1.4049    -5.3860    -1.8663 C.2     
  16 O16            1.5663    -5.0016    -0.7221 O.2     
  17 C17            0.6863    -6.6520    -2.1265 C.ar    
  18 C18            0.1071    -7.3588    -1.0711 C.ar    
  19 C19           -0.5620    -8.5386    -1.3199 C.ar    
  20 C20           -0.6597    -9.0229    -2.6140 C.ar    
  21 C21           -0.0867    -8.3263    -3.6651 C.ar    
  22 C22            0.5796    -7.1422    -3.4293 C.ar    
  23 Cl23          -1.5032   -10.5091    -2.9195 Cl      
  24 C24            0.3661     2.2500    -0.2856 C.3     
  25 O25           -1.9057     1.6380    -0.1015 O.2     
  26 C26           -0.1782     3.6686    -0.4655 C.3     
  27 C27            0.9793     4.6682    -0.4226 C.3     
  28 C28            1.6940     4.5634     0.9262 C.3     
  29 C29            2.2383     3.1449     1.1061 C.3     
  30 C30            1.0808     2.1452     1.0632 C.3     
  31 H31           -1.4579    -1.7121     0.2400 H       
  32 H32           -2.5777    -0.5149    -0.4625 H       
  33 H33           -2.3404    -2.6070    -1.8601 H       
  34 H34           -1.8815    -1.1205    -2.7260 H       
  35 H35            1.6935    -1.7158    -2.5235 H       
  36 H36            0.4241    -0.6111    -3.1052 H       
  37 H37            1.4645     0.3789    -1.1351 H       
  38 H38            1.2079    -1.1195    -0.2026 H       
  39 H39           -0.8215    -4.1464    -3.0819 H       
  40 H40           -0.7454    -2.7312    -4.1587 H       
  41 H41            1.4224    -2.2162    -5.2860 H       
  42 H42            4.9788    -5.7305    -3.4871 H       
  43 H43            3.9462    -6.1585    -2.2328 H       
  44 H44            0.1833    -6.9825    -0.0616 H       
  45 H45           -1.0105    -9.0862    -0.5042 H       
  46 H46           -0.1658    -8.7089    -4.6720 H       
  47 H47            1.0258    -6.5997    -4.2498 H       
  48 H48            1.0693     2.0262    -1.0877 H       
  49 H49           -0.6873     3.7432    -1.4264 H       
  50 H50           -0.8814     3.8924     0.3367 H       
  51 H51            1.6825     4.4444    -1.2248 H       
  52 H52            0.5915     5.6788    -0.5508 H       
  53 H53            2.5186     5.2756     0.9567 H       
  54 H54            0.9907     4.7872     1.7283 H       
  55 H55            2.9415     2.9211     0.3039 H       
  56 H56            2.7474     3.0702     2.0669 H       
  57 H57            0.3775     2.3690     1.8654 H       
  58 H58            1.4685     1.1346     1.1914 H       
@<TRIPOS>BOND
   1    1    2 am
   2    1   24 1
   3    1   25 2
   4    2    3 1
   5    2    7 1
   6    3    4 1
   7    3   31 1
   8    3   32 1
   9    4    5 1
  10    4   33 1
  11    4   34 1
  12    5    6 1
  13    5    8 1
  14    6    7 1
  15    6   35 1
  16    6   36 1
  17    7   37 1
  18    7   38 1
  19    8    9 1
  20    8   39 1
  21    8   40 1
  22    9   10 2
  23    9   13 1
  24   10   11 1
  25   10   41 1
  26   11   12 1
  27   12   13 2
  28   12   14 1
  29   13   15 1
  30   14   42 1
  31   14   43 1
  32   15   16 2
  33   15   17 1
  34   17   18 ar
  35   17   22 ar
  36   18   19 ar
  37   18   44 1
  38   19   20 ar
  39   19   45 1
  40   20   21 ar
  41   20   23 1
  42   21   22 ar
  43   21   46 1
  44   22   47 1
  45   24   26 1
  46   24   30 1
  47   24   48 1
  48   26   27 1
  49   26   49 1
  50   26   50 1
  51   27   28 1
  52   27   51 1
  53   27   52 1
  54   28   29 1
  55   28   53 1
  56   28   54 1
  57   29   30 1
  58   29   55 1
  59   29   56 1
  60   30   57 1
  61   30   58 1

#	End of record

