#	Name: ASD01881022
#	Creating user name:	WinNT
#	Creation time:	15. 06. 2019 19:41

#	Modifying user name:	WinNT
#	Modification time:	15. 06. 2019 19:41

#	Program:	/corina/corina34_cracker 3.40 0067  02.08.2006

@<TRIPOS>MOLECULE
ASD01881022
  45   46    0    0    0
SMALL
NO_CHARGES


@<TRIPOS>ATOM
   1 O1            -0.0177     1.4528     0.0100 O.3     
   2 C2             0.0021    -0.0041     0.0020 C.3     
   3 C3             1.5020    -0.3567    -0.0142 C.3     
   4 N4             2.1699     0.9539    -0.0135 N.am    
   5 C5             1.2373     1.9159     0.0005 C.2     
   6 C6            -0.6652    -0.5565     1.2632 C.3     
   7 C7            -2.1566    -0.2156     1.2422 C.3     
   8 C8            -2.8238    -0.7680     2.5033 C.3     
   9 C9            -4.3152    -0.4272     2.4823 C.3     
  10 C10           -4.9824    -0.9796     3.7435 C.3     
  11 C11           -6.4738    -0.6387     3.7224 C.3     
  12 O12            1.5068     3.1007     0.0039 O.2     
  13 C13            3.5470     1.1610    -0.0252 C.ar    
  14 C14            4.2555     1.2596     1.1821 C.ar    
  15 C15            5.6372     1.4675     1.1563 C.ar    
  16 C16            6.2936     1.5742    -0.0503 C.ar    
  17 C17            5.5906     1.4768    -1.2406 C.ar    
  18 C18            4.2267     1.2653    -1.2314 C.ar    
  19 C19            3.5469     1.1450     2.4691 C.2     
  20 O20            2.3453     0.9646     2.4872 O.2     
  21 O21            4.2314     1.2403     3.6260 O.3     
  22 C22            3.4685     1.1179     4.8553 C.3     
  23 H23           -0.4904    -0.3880    -0.8914 H       
  24 H24            1.7715    -0.9242     0.8765 H       
  25 H25            1.7544    -0.9146    -0.9159 H       
  26 H26           -0.5402    -1.6388     1.2960 H       
  27 H27           -0.2029    -0.1105     2.1438 H       
  28 H28           -2.2815     0.8667     1.2093 H       
  29 H29           -2.6188    -0.6616     0.3615 H       
  30 H30           -2.6989    -1.8503     2.5361 H       
  31 H31           -2.3616    -0.3221     3.3840 H       
  32 H32           -4.4401     0.6551     2.4495 H       
  33 H33           -4.7774    -0.8732     1.6016 H       
  34 H34           -4.8575    -2.0619     3.7763 H       
  35 H35           -4.5202    -0.5336     4.6241 H       
  36 H36           -6.9492    -1.0323     4.6209 H       
  37 H37           -6.5988     0.4436     3.6896 H       
  38 H38           -6.9361    -1.0847     2.8418 H       
  39 H39            6.1897     1.5449     2.0810 H       
  40 H40            7.3614     1.7349    -0.0687 H       
  41 H41            6.1140     1.5621    -2.1815 H       
  42 H42            3.6862     1.1903    -2.1634 H       
  43 H43            2.9792     0.1443     4.8839 H       
  44 H44            4.1386     1.2130     5.7098 H       
  45 H45            2.7150     1.9046     4.8952 H       
@<TRIPOS>BOND
   1    1    2 1
   2    1    5 1
   3    2    3 1
   4    2    6 1
   5    2   23 1
   6    3    4 1
   7    3   24 1
   8    3   25 1
   9    4    5 am
  10    4   13 1
  11    5   12 2
  12    6    7 1
  13    6   26 1
  14    6   27 1
  15    7    8 1
  16    7   28 1
  17    7   29 1
  18    8    9 1
  19    8   30 1
  20    8   31 1
  21    9   10 1
  22    9   32 1
  23    9   33 1
  24   10   11 1
  25   10   34 1
  26   10   35 1
  27   11   36 1
  28   11   37 1
  29   11   38 1
  30   13   14 ar
  31   13   18 ar
  32   14   15 ar
  33   14   19 1
  34   15   16 ar
  35   15   39 1
  36   16   17 ar
  37   16   40 1
  38   17   18 ar
  39   17   41 1
  40   18   42 1
  41   19   20 2
  42   19   21 1
  43   21   22 1
  44   22   43 1
  45   22   44 1
  46   22   45 1

#	End of record

