#	Name: ASD01914139
#	Creating user name:	WinNT
#	Creation time:	15. 06. 2019 20:02

#	Modifying user name:	WinNT
#	Modification time:	15. 06. 2019 20:02

#	Program:	/corina/corina34_cracker 3.40 0067  02.08.2006

@<TRIPOS>MOLECULE
ASD01914139
  44   47    0    0    0
SMALL
NO_CHARGES


@<TRIPOS>ATOM
   1 C1            -2.7848    -0.0312    -1.2538 C.2     
   2 C2            -2.1607    -1.3119    -0.8613 C.2     
   3 N3            -2.7881    -2.3757    -0.3066 N.2     
   4 C4            -1.8573    -3.2789    -0.1277 C.2     
   5 O5            -0.7088    -2.7553    -0.5682 O.3     
   6 N6            -0.8971    -1.6337    -0.9897 N.2     
   7 C7            -2.0452    -4.6517     0.4648 C.3     
   8 C8            -1.6333    -5.7111    -0.5599 C.3     
   9 C9            -0.1725    -5.4940    -0.9614 C.3     
  10 C10            0.7202    -5.6438     0.2744 C.3     
  11 N11            0.2392    -4.7292     1.3189 N.am    
  12 C12           -1.1737    -4.7919     1.7168 C.3     
  13 C13            2.1640    -5.2921    -0.0901 C.3     
  14 C14            1.0782    -3.8495     1.9009 C.2     
  15 C15            0.5548    -2.8488     2.8533 C.ar    
  16 C16            1.3421    -2.4052     3.9240 C.ar    
  17 C17            0.8069    -1.4681     4.7873 C.ar    
  18 C18           -0.4806    -1.0009     4.5681 C.ar    
  19 N19           -1.1995    -1.4382     3.5488 N.ar    
  20 C20           -0.7296    -2.3258     2.6975 C.ar    
  21 O21            2.2656    -3.8795     1.6422 O.2     
  22 F22           -1.0080    -0.0850     5.4097 F       
  23 C23           -2.1451     1.0353    -1.8119 C.2     
  24 C24           -3.1067     2.0356    -2.0239 C.2     
  25 C25           -4.2968     1.5590    -1.5940 C.2     
  26 N26           -4.1119     0.2931    -1.1264 N.pl3   
  27 Cl27          -2.8196     3.6029    -2.7129 Cl      
  28 H28           -3.0925    -4.7922     0.7324 H       
  29 H29           -1.7460    -6.7029    -0.1221 H       
  30 H30           -2.2683    -5.6294    -1.4420 H       
  31 H31            0.1133    -6.2344    -1.7086 H       
  32 H32           -0.0542    -4.4931    -1.3766 H       
  33 H33            0.6725    -6.6704     0.6374 H       
  34 H34           -1.3948    -3.9793     2.4088 H       
  35 H35           -1.3759    -5.7491     2.1975 H       
  36 H36            2.2311    -4.2297    -0.3243 H       
  37 H37            2.8173    -5.5205     0.7520 H       
  38 H38            2.4721    -5.8756    -0.9577 H       
  39 H39            2.3418    -2.7864     4.0713 H       
  40 H40            1.3848    -1.1037     5.6237 H       
  41 H41           -1.3472    -2.6592     1.8766 H       
  42 H42           -1.0930     1.0990    -2.0472 H       
  43 H43           -5.2365     2.0907    -1.6211 H       
  44 H44           -4.8019    -0.2808    -0.7585 H       
@<TRIPOS>BOND
   1    1    2 1
   2    1   23 2
   3    1   26 1
   4    2    3 1
   5    2    6 2
   6    3    4 2
   7    4    5 1
   8    4    7 1
   9    5    6 1
  10    7    8 1
  11    7   12 1
  12    7   28 1
  13    8    9 1
  14    8   29 1
  15    8   30 1
  16    9   10 1
  17    9   31 1
  18    9   32 1
  19   10   11 1
  20   10   13 1
  21   10   33 1
  22   11   12 1
  23   11   14 am
  24   12   34 1
  25   12   35 1
  26   13   36 1
  27   13   37 1
  28   13   38 1
  29   14   15 1
  30   14   21 2
  31   15   16 ar
  32   15   20 ar
  33   16   17 ar
  34   16   39 1
  35   17   18 ar
  36   17   40 1
  37   18   19 ar
  38   18   22 1
  39   19   20 ar
  40   20   41 1
  41   23   24 1
  42   23   42 1
  43   24   25 2
  44   24   27 1
  45   25   26 1
  46   25   43 1
  47   26   44 1

#	End of record

