#	Name: ASD07930722
#	Creating user name:	WinNT
#	Creation time:	15. 06. 2019 21:13

#	Modifying user name:	WinNT
#	Modification time:	15. 06. 2019 21:13

#	Program:	/corina/corina34_cracker 3.40 0067  02.08.2006

@<TRIPOS>MOLECULE
ASD07930722
  40   42    0    0    0
SMALL
NO_CHARGES


@<TRIPOS>ATOM
   1 C1            -0.0668     1.4604    -0.0049 C.3     
   2 N2             2.1574    -0.3777     0.7597 N.2     
   3 N3             1.2946    -1.7411    -0.9309 N.pl3   
   4 C4             0.2855    -2.8052    -0.9532 C.3     
   5 C5            -1.0922    -2.1902    -1.2357 C.3     
   6 N6            -0.0258    -0.0041    -0.0067 N.am    
   7 C7             1.1751    -0.6988    -0.0346 C.2     
   8 C8             0.2604    -3.5140     0.4025 C.3     
   9 C9             0.6249    -3.7980    -2.0349 C.ar    
  10 C10           -0.2526    -4.0048    -3.0792 C.ar    
  11 C11            0.0613    -4.9225    -4.0797 C.ar    
  12 C12            1.2635    -5.6287    -4.0202 C.ar    
  13 C13            2.1361    -5.4143    -2.9697 C.ar    
  14 C14            1.8204    -4.4971    -1.9815 C.ar    
  15 F15            2.6759    -4.2904    -0.9565 F       
  16 C16           -0.8796    -5.1484    -5.2043 C.ar    
  17 C17           -0.4371    -5.1116    -6.5290 C.ar    
  18 C18           -2.2316    -5.4096    -4.9676 C.ar    
  19 N19           -3.0355    -5.6055    -5.9986 N.ar    
  20 C20           -2.5777    -5.5571    -7.2340 C.ar    
  21 N21           -1.3089    -5.3188    -7.5009 N.ar    
  22 F22            1.5736    -6.5201    -4.9868 F       
  23 S23           -1.4189    -0.9177     0.0246 S.o2    
  24 O24           -2.4393    -0.0288    -0.4090 O.2     
  25 O25           -1.4420    -1.4900     1.3250 O.2     
  26 H26            0.9500     1.8523    -0.0279 H       
  27 H27           -0.6108     1.8097    -0.8825 H       
  28 H28           -0.5701     1.8086     0.8970 H       
  29 H29            2.0558     0.3578     1.3839 H       
  30 H30            2.0469    -1.7722    -1.5424 H       
  31 H31           -1.0955    -1.7357    -2.2264 H       
  32 H32           -1.8578    -2.9643    -1.1834 H       
  33 H33            0.0129    -2.7953     1.1837 H       
  34 H34           -0.4898    -4.3046     0.3853 H       
  35 H35            1.2401    -3.9470     0.6043 H       
  36 H36           -1.1820    -3.4563    -3.1210 H       
  37 H37            3.0670    -5.9598    -2.9219 H       
  38 H38            0.6007    -4.9166    -6.7555 H       
  39 H39           -2.6138    -5.4512    -3.9584 H       
  40 H40           -3.2626    -5.7222    -8.0526 H       
@<TRIPOS>BOND
   1    1    6 1
   2    1   26 1
   3    1   27 1
   4    1   28 1
   5    2    7 2
   6    2   29 1
   7    3    4 1
   8    3    7 1
   9    3   30 1
  10    4    5 1
  11    4    8 1
  12    4    9 1
  13    5   23 1
  14    5   31 1
  15    5   32 1
  16    6    7 1
  17    6   23 am
  18    8   33 1
  19    8   34 1
  20    8   35 1
  21    9   10 ar
  22    9   14 ar
  23   10   11 ar
  24   10   36 1
  25   11   12 ar
  26   11   16 1
  27   12   13 ar
  28   12   22 1
  29   13   14 ar
  30   13   37 1
  31   14   15 1
  32   16   17 ar
  33   16   18 ar
  34   17   21 ar
  35   17   38 1
  36   18   19 ar
  37   18   39 1
  38   19   20 ar
  39   20   21 ar
  40   20   40 1
  41   23   24 2
  42   23   25 2

#	End of record

