#	Name: ASD03082172
#	Creating user name:	WinNT
#	Creation time:	15. 06. 2019 20:27

#	Modifying user name:	WinNT
#	Modification time:	15. 06. 2019 20:27

#	Program:	/corina/corina34_cracker 3.40 0067  02.08.2006

@<TRIPOS>MOLECULE
ASD03082172
  54   57    0    0    0
SMALL
NO_CHARGES


@<TRIPOS>ATOM
   1 C1            -0.0087     1.3757    -0.1263 C.ar    
   2 C2            -1.1988     1.8244     0.4312 C.ar    
   3 C3            -2.3666     1.1155     0.2266 C.ar    
   4 C4            -2.3511    -0.0416    -0.5336 C.ar    
   5 C5            -1.1653    -0.4911    -1.0901 C.ar    
   6 C6             0.0035     0.2174    -0.8930 C.ar    
   7 C7            -1.1516    -1.7512    -1.9167 C.3     
   8 N8             1.1749     2.0922     0.0792 N.pl3   
   9 C9             4.4188    -1.5609     0.1613 C.ar    
  10 C10            3.6682    -2.6526    -0.2729 C.ar    
  11 C11            5.7370    -1.7785     0.5850 C.ar    
  12 C12            6.2324    -3.0649     0.5532 C.ar    
  13 C13            5.4318    -4.1104     0.1090 C.ar    
  14 N14            4.1811    -3.8621    -0.2860 N.ar    
  15 N15            4.5299     0.9589     0.2406 N.pl3   
  16 C16            3.8384    -0.2009     0.1687 C.2     
  17 N17            3.5772     1.9902     0.2171 N.2     
  18 C18            2.3978     1.4203     0.1299 C.2     
  19 N19            2.5551     0.0953     0.1055 N.2     
  20 C20            5.9843     1.1094     0.3316 C.3     
  21 C21            6.3969     1.1981     1.8022 C.3     
  22 F22            0.1495    -1.9993    -2.3671 F       
  23 F23           -1.5875    -2.8264    -1.1350 F       
  24 F24           -2.0041    -1.5975    -3.0152 F       
  25 F25           -3.4944    -0.7333    -0.7324 F       
  26 C26            7.8930     1.3529     1.8958 C.2     
  27 N27            8.4862     1.4515     3.1020 N.am    
  28 O28            8.5633     1.3889     0.8856 O.2     
  29 C29            9.9406     1.6020     3.1929 C.3     
  30 C30            7.6766     1.4081     4.3221 C.3     
  31 C31            7.5843    -3.6214     0.9358 C.3     
  32 C32            7.4684    -5.1293     0.6569 C.3     
  33 N33            6.1068    -5.3229     0.1522 N.pl3   
  34 H34           -1.2113     2.7267     1.0246 H       
  35 H35           -3.2923     1.4638     0.6603 H       
  36 H36            0.9280    -0.1336    -1.3272 H       
  37 H37            1.1461     3.0558     0.1864 H       
  38 H38            2.6509    -2.5020    -0.6027 H       
  39 H39            6.3501    -0.9582     0.9280 H       
  40 H40            6.4683     0.2489    -0.1303 H       
  41 H41            6.2886     2.0188    -0.1866 H       
  42 H42            5.9130     2.0586     2.2641 H       
  43 H43            6.0927     0.2886     2.3204 H       
  44 H44           10.1976     2.6613     3.1830 H       
  45 H45           10.2954     1.1508     4.1195 H       
  46 H46           10.4110     1.1061     2.3439 H       
  47 H47            7.5795     0.3754     4.6572 H       
  48 H48            8.1602     1.9986     5.1003 H       
  49 H49            6.6876     1.8179     4.1168 H       
  50 H50            8.3668    -3.1789     0.3194 H       
  51 H51            7.7842    -3.4437     1.9925 H       
  52 H52            8.1970    -5.4318    -0.0952 H       
  53 H53            7.6151    -5.6963     1.5762 H       
  54 H54            5.7304    -6.1764    -0.1136 H       
@<TRIPOS>BOND
   1    1    2 ar
   2    1    8 1
   3    1    6 ar
   4    2    3 ar
   5    2   34 1
   6    3    4 ar
   7    3   35 1
   8    4    5 ar
   9    4   25 1
  10    5    6 ar
  11    5    7 1
  12    6   36 1
  13    7   22 1
  14    7   23 1
  15    7   24 1
  16    8   18 1
  17    8   37 1
  18    9   10 ar
  19    9   11 ar
  20    9   16 1
  21   10   14 ar
  22   10   38 1
  23   11   12 ar
  24   11   39 1
  25   12   13 ar
  26   12   31 1
  27   13   14 ar
  28   13   33 1
  29   15   17 1
  30   15   20 1
  31   15   16 1
  32   16   19 2
  33   17   18 2
  34   18   19 1
  35   20   21 1
  36   20   40 1
  37   20   41 1
  38   21   26 1
  39   21   42 1
  40   21   43 1
  41   26   27 am
  42   26   28 2
  43   27   29 1
  44   27   30 1
  45   29   44 1
  46   29   45 1
  47   29   46 1
  48   30   47 1
  49   30   48 1
  50   30   49 1
  51   31   32 1
  52   31   50 1
  53   31   51 1
  54   32   33 1
  55   32   52 1
  56   32   53 1
  57   33   54 1

#	End of record

