#	Name: ASD09116007
#	Creating user name:	WinNT
#	Creation time:	15. 06. 2019 21:20

#	Modifying user name:	WinNT
#	Modification time:	15. 06. 2019 21:20

#	Program:	/corina/corina34_cracker 3.40 0067  02.08.2006

@<TRIPOS>MOLECULE
ASD09116007
  82   88    0    0    0
SMALL
NO_CHARGES


@<TRIPOS>ATOM
   1 C1            -0.2224     1.5764     0.2350 C.ar    
   2 C2            -0.2367     0.1986     0.1573 C.ar    
   3 C3             0.9603    -0.5011     0.0149 C.ar    
   4 C4             2.1657     0.1959    -0.0481 C.ar    
   5 C5             2.1678     1.5737     0.0306 C.ar    
   6 C6             0.9768     2.2629     0.1719 C.ar    
   7 C7             0.9516    -1.9818    -0.0686 C.ar    
   8 C8             0.2595    -2.7626     0.8669 C.ar    
   9 C9             0.2797    -4.1450     0.7489 C.ar    
  10 N10            0.9433    -4.7468    -0.2348 N.ar    
  11 C11            1.5960    -4.0508    -1.1199 C.ar    
  12 C12            1.6232    -2.6534    -1.0795 C.ar    
  13 C13            2.3874    -4.6201    -2.2832 C.3     
  14 C14            1.7988    -3.9789    -3.5568 C.3     
  15 C15            1.8025    -2.4560    -3.4071 C.3     
  16 N16            2.3705    -2.0658    -2.1063 N.3     
  17 N17           -0.4115    -4.9220     1.6839 N.pl3   
  18 N18           -0.7387    -4.5602     3.0007 N.2     
  19 C19           -1.3835    -5.5737     3.5271 C.2     
  20 N20           -1.4795    -6.5496     2.6167 N.2     
  21 C21           -0.9026    -6.1690     1.4969 C.2     
  22 N22           -1.8878    -5.6260     4.8271 N.pl3   
  23 C23           -2.6565    -6.7193     5.2348 C.ar    
  24 C24           -2.6542    -7.1135     6.5672 C.ar    
  25 C25           -3.4291    -7.4108     4.3094 C.ar    
  26 C26           -4.1863    -8.4908     4.7240 C.ar    
  27 C27           -4.1775    -8.8806     6.0385 C.ar    
  28 C28           -3.4147    -8.1946     6.9686 C.ar    
  29 N29           -0.8064    -6.9152     0.3373 N.pl3   
  30 C30            3.7653    -2.5426    -2.0273 C.3     
  31 C31            3.8206    -4.0686    -2.1379 C.3     
  32 C32           -5.0290    -9.2414     3.7136 C.3     
  33 C33           -4.3964   -10.6155     3.4800 C.3     
  34 C34           -4.8723   -11.6143     4.5162 C.3     
  35 C35           -4.3790   -11.3408     5.9233 C.3     
  36 C36           -5.0100   -10.0644     6.4859 C.3     
  37 C37           -4.4074   -12.9877     4.1052 C.2     
  38 O38           -3.7667   -13.1301     3.0908 O.2     
  39 O39           -4.7051   -14.0526     4.8661 O.3     
  40 C40           -4.2249   -15.3444     4.4090 C.3     
  41 C41           -2.6978   -15.3178     4.3184 C.3     
  42 C42           -4.6584   -16.4287     5.3975 C.3     
  43 C43           -4.8124   -15.6478     3.0292 C.3     
  44 H44           -1.1497     2.1199     0.3408 H       
  45 H45           -1.1735    -0.3365     0.2070 H       
  46 H46            3.0962    -0.3412    -0.1580 H       
  47 H47            3.1012     2.1149    -0.0177 H       
  48 H48            0.9832     3.3412     0.2328 H       
  49 H49           -0.2844    -2.2925     1.6728 H       
  50 H50            2.3528    -5.7091    -2.3141 H       
  51 H51            2.4036    -4.2610    -4.4187 H       
  52 H52            0.7761    -4.3277    -3.7001 H       
  53 H53            2.3986    -2.0173    -4.2073 H       
  54 H54            0.7798    -2.0853    -3.4765 H       
  55 H55           -1.7047    -4.9034     5.4478 H       
  56 H56           -2.0576    -6.5750     7.2887 H       
  57 H57           -3.4383    -7.1063     3.2732 H       
  58 H58           -3.4111    -8.5061     8.0027 H       
  59 H59           -1.1852    -7.8075     0.3019 H       
  60 H60           -0.3601    -6.5466    -0.4411 H       
  61 H61            4.3420    -2.1040    -2.8416 H       
  62 H62            4.1972    -2.2351    -1.0749 H       
  63 H63            4.2803    -4.4828    -1.2406 H       
  64 H64            4.4088    -4.3503    -3.0113 H       
  65 H65           -6.0407    -9.3649     4.1000 H       
  66 H66           -5.0570    -8.6868     2.7757 H       
  67 H67           -4.6702   -10.9717     2.4869 H       
  68 H68           -3.3118   -10.5255     3.5408 H       
  69 H69           -5.9622   -11.6105     4.5251 H       
  70 H70           -4.6408   -12.1825     6.5646 H       
  71 H71           -3.2950   -11.2276     5.9072 H       
  72 H72           -5.0238   -10.1119     7.5748 H       
  73 H73           -6.0270    -9.9611     6.1078 H       
  74 H74           -2.2792   -15.1017     5.3014 H       
  75 H75           -2.3373   -16.2875     3.9752 H       
  76 H76           -2.3890   -14.5454     3.6141 H       
  77 H77           -5.7463   -16.4476     5.4621 H       
  78 H78           -4.2978   -17.3984     5.0544 H       
  79 H79           -4.2398   -16.2125     6.3805 H       
  80 H80           -4.5036   -14.8753     2.3250 H       
  81 H81           -4.4519   -16.6175     2.6861 H       
  82 H82           -5.9003   -15.6667     3.0938 H       
@<TRIPOS>BOND
   1    1    2 ar
   2    1    6 ar
   3    1   44 1
   4    2    3 ar
   5    2   45 1
   6    3    4 ar
   7    3    7 1
   8    4    5 ar
   9    4   46 1
  10    5    6 ar
  11    5   47 1
  12    6   48 1
  13    7    8 ar
  14    7   12 ar
  15    8    9 ar
  16    8   49 1
  17    9   10 ar
  18    9   17 1
  19   10   11 ar
  20   11   12 ar
  21   11   13 1
  22   12   16 1
  23   13   14 1
  24   13   31 1
  25   13   50 1
  26   14   15 1
  27   14   51 1
  28   14   52 1
  29   15   16 1
  30   15   53 1
  31   15   54 1
  32   16   30 1
  33   17   18 1
  34   17   21 1
  35   18   19 2
  36   19   20 1
  37   19   22 1
  38   20   21 2
  39   21   29 1
  40   22   23 1
  41   22   55 1
  42   23   24 ar
  43   23   25 ar
  44   24   28 ar
  45   24   56 1
  46   25   26 ar
  47   25   57 1
  48   26   27 ar
  49   26   32 1
  50   27   28 ar
  51   27   36 1
  52   28   58 1
  53   29   59 1
  54   29   60 1
  55   30   31 1
  56   30   61 1
  57   30   62 1
  58   31   63 1
  59   31   64 1
  60   32   33 1
  61   32   65 1
  62   32   66 1
  63   33   34 1
  64   33   67 1
  65   33   68 1
  66   34   35 1
  67   34   37 1
  68   34   69 1
  69   35   36 1
  70   35   70 1
  71   35   71 1
  72   36   72 1
  73   36   73 1
  74   37   38 2
  75   37   39 1
  76   39   40 1
  77   40   41 1
  78   40   42 1
  79   40   43 1
  80   41   74 1
  81   41   75 1
  82   41   76 1
  83   42   77 1
  84   42   78 1
  85   42   79 1
  86   43   80 1
  87   43   81 1
  88   43   82 1

#	End of record

