#	Name: ASD08178389
#	Creating user name:	WinNT
#	Creation time:	15. 06. 2019 21:18

#	Modifying user name:	WinNT
#	Modification time:	15. 06. 2019 21:18

#	Program:	/corina/corina34_cracker 3.40 0067  02.08.2006

@<TRIPOS>MOLECULE
ASD08178389
  77   80    0    0    0
SMALL
NO_CHARGES


@<TRIPOS>ATOM
   1 N1            -0.0168     1.3902     0.0097 N.am    
   2 C2            -0.2173     0.0103     0.0231 C.ar    
   3 C3             0.8683    -0.8557    -0.0926 C.ar    
   4 N4            -1.4399    -0.4832     0.1513 N.ar    
   5 N5            -1.6667    -1.7463     0.1686 N.ar    
   6 C6            -0.7002    -2.6368     0.0602 C.ar    
   7 C7             0.6159    -2.2190    -0.0733 C.ar    
   8 C8            -1.0247    -4.1082     0.0874 C.3     
   9 C9            -1.8115    -4.4335     1.3586 C.3     
  10 C10           -2.1410    -5.9273     1.3862 C.3     
  11 C11           -2.9278    -6.2527     2.6574 C.3     
  12 C12           -3.2523    -7.7241     2.6845 C.2     
  13 N13           -2.5213    -8.6581     3.2049 N.2     
  14 N14           -2.9690    -9.8359     3.1257 N.2     
  15 C15           -4.1130   -10.0077     2.5350 C.2     
  16 S16           -4.6995    -8.4828     2.0200 S.3     
  17 N17           -4.7575   -11.2270     2.3553 N.am    
  18 C18           -4.1929   -12.3617     2.8139 C.2     
  19 C19           -4.8913   -13.6828     2.6192 C.3     
  20 O20           -3.1229   -12.3195     3.3832 O.2     
  21 C21           -4.0568   -14.7853     3.2184 C.ar    
  22 C22           -1.0750     2.2250     0.0167 C.2     
  23 C23           -0.8601     3.7130     0.1198 C.3     
  24 O24           -2.2000     1.7786    -0.0599 O.2     
  25 C25           -2.1935     4.4152     0.1067 C.ar    
  26 C26           -2.8565     4.6619     1.2943 C.ar    
  27 C27           -2.7509     4.8175    -1.0926 C.ar    
  28 C28           -3.9740     5.4616    -1.1047 C.ar    
  29 C29           -4.6398     5.7029     0.0824 C.ar    
  30 C30           -4.0796     5.3059     1.2822 C.ar    
  31 C31           -4.2399   -15.1439     4.5389 C.ar    
  32 C32           -3.4747   -16.1575     5.0968 C.ar    
  33 C33           -2.5160   -16.8153     4.3134 C.ar    
  34 C34           -2.3416   -16.4421     2.9777 C.ar    
  35 C35           -3.1142   -15.4366     2.4391 C.ar    
  36 O36           -3.6529   -16.5103     6.3943 O.3     
  37 C37           -4.6476   -15.7955     7.1302 C.3     
  38 C38           -4.7037   -16.3292     8.5631 C.3     
  39 C39           -1.6965   -17.8936     4.8949 C.2     
  40 O40           -0.7761   -18.5231     4.1383 O.3     
  41 O41           -1.8508   -18.2148     6.0566 O.2     
  42 C42           -0.0055   -19.5750     4.7770 C.3     
  43 C43            0.9809   -20.1684     3.7690 C.3     
  44 H44            0.8842     1.7494    -0.0006 H       
  45 H45            1.8745    -0.4770    -0.1944 H       
  46 H46            1.4199    -2.9345    -0.1636 H       
  47 H47           -1.6240    -4.3643    -0.7864 H       
  48 H48           -0.0997    -4.6845     0.0751 H       
  49 H49           -1.2123    -4.1774     2.2323 H       
  50 H50           -2.7366    -3.8571     1.3708 H       
  51 H51           -2.7402    -6.1835     0.5124 H       
  52 H52           -1.2159    -6.5037     1.3739 H       
  53 H53           -2.3286    -5.9966     3.5311 H       
  54 H54           -3.8529    -5.6763     2.6696 H       
  55 H55           -5.6133   -11.2607     1.9000 H       
  56 H56           -5.8640   -13.6554     3.1104 H       
  57 H57           -5.0274   -13.8683     1.5537 H       
  58 H58           -0.3385     3.9413     1.0493 H       
  59 H59           -0.2620     4.0532    -0.7255 H       
  60 H60           -2.4191     4.3512     2.2316 H       
  61 H61           -2.2307     4.6290    -2.0201 H       
  62 H62           -4.4092     5.7766    -2.0416 H       
  63 H63           -5.5952     6.2064     0.0730 H       
  64 H64           -4.5998     5.4945     2.2097 H       
  65 H65           -4.9797   -14.6343     5.1385 H       
  66 H66           -1.6049   -16.9437     2.3678 H       
  67 H67           -2.9790   -15.1493     1.4069 H       
  68 H68           -4.3952   -14.7352     7.1471 H       
  69 H69           -5.6188   -15.9303     6.6540 H       
  70 H70           -4.9561   -17.3894     8.5462 H       
  71 H71           -3.7326   -16.1944     9.0393 H       
  72 H72           -5.4625   -15.7839     9.1244 H       
  73 H73            0.5440   -19.1607     5.6223 H       
  74 H74           -0.6791   -20.3562     5.1292 H       
  75 H75            1.5594   -20.9580     4.2485 H       
  76 H76            0.4314   -20.5826     2.9237 H       
  77 H77            1.6545   -19.3872     3.4168 H       
@<TRIPOS>BOND
   1    1    2 1
   2    1   22 am
   3    1   44 1
   4    2    3 ar
   5    2    4 ar
   6    3    7 ar
   7    3   45 1
   8    4    5 ar
   9    5    6 ar
  10    6    7 ar
  11    6    8 1
  12    7   46 1
  13    8    9 1
  14    8   47 1
  15    8   48 1
  16    9   10 1
  17    9   49 1
  18    9   50 1
  19   10   11 1
  20   10   51 1
  21   10   52 1
  22   11   12 1
  23   11   53 1
  24   11   54 1
  25   12   13 2
  26   12   16 1
  27   13   14 1
  28   14   15 2
  29   15   16 1
  30   15   17 1
  31   17   18 am
  32   17   55 1
  33   18   19 1
  34   18   20 2
  35   19   21 1
  36   19   56 1
  37   19   57 1
  38   21   31 ar
  39   21   35 ar
  40   22   23 1
  41   22   24 2
  42   23   25 1
  43   23   58 1
  44   23   59 1
  45   25   26 ar
  46   25   27 ar
  47   26   30 ar
  48   26   60 1
  49   27   28 ar
  50   27   61 1
  51   28   29 ar
  52   28   62 1
  53   29   30 ar
  54   29   63 1
  55   30   64 1
  56   31   32 ar
  57   31   65 1
  58   32   33 ar
  59   32   36 1
  60   33   34 ar
  61   33   39 1
  62   34   35 ar
  63   34   66 1
  64   35   67 1
  65   36   37 1
  66   37   38 1
  67   37   68 1
  68   37   69 1
  69   38   70 1
  70   38   71 1
  71   38   72 1
  72   39   40 1
  73   39   41 2
  74   40   42 1
  75   42   43 1
  76   42   73 1
  77   42   74 1
  78   43   75 1
  79   43   76 1
  80   43   77 1

#	End of record

