#	Name: ASD01882807
#	Creating user name:	WinNT
#	Creation time:	15. 06. 2019 19:45

#	Modifying user name:	WinNT
#	Modification time:	15. 06. 2019 19:45

#	Program:	/corina/corina34_cracker 3.40 0067  02.08.2006

@<TRIPOS>MOLECULE
ASD01882807
  37   39    0    0    0
SMALL
NO_CHARGES


@<TRIPOS>ATOM
   1 O1            -0.2725     1.6945     0.1510 O.3     
   2 C2             0.0542     0.3123     0.3091 C.3     
   3 C3             1.0975     1.4222     0.4529 C.3     
   4 C4            -0.4188    -0.3908     1.5830 C.3     
   5 O5            -1.3428    -1.4258     1.2408 O.3     
   6 C6            -1.8620    -2.1528     2.2649 C.ar    
   7 C7            -2.7651    -3.1732     2.0047 C.ar    
   8 C8            -3.2914    -3.9108     3.0474 C.ar    
   9 C9            -2.9188    -3.6327     4.3496 C.ar    
  10 C10           -2.0192    -2.6160     4.6116 C.ar    
  11 C11           -1.4853    -1.8795     3.5718 C.ar    
  12 C12           -3.4945    -4.4389     5.4852 C.3     
  13 C13           -5.0209    -4.4492     5.3809 C.3     
  14 C14           -2.9765    -5.8521     5.4112 C.ar    
  15 C15           -2.1136    -6.3237     6.3828 C.ar    
  16 C16           -1.6384    -7.6200     6.3149 C.ar    
  17 C17           -2.0263    -8.4449     5.2757 C.ar    
  18 C18           -2.8899    -7.9735     4.3046 C.ar    
  19 C19           -3.3685    -6.6786     4.3749 C.ar    
  20 H20            0.0913    -0.3066    -0.5873 H       
  21 H21            1.8272     1.5402    -0.3482 H       
  22 H22            1.4532     1.6582     1.4558 H       
  23 H23            0.4383    -0.8247     2.0981 H       
  24 H24           -0.9079     0.3315     2.2365 H       
  25 H25           -3.0568    -3.3905     0.9878 H       
  26 H26           -3.9948    -4.7050     2.8454 H       
  27 H27           -1.7303    -2.4002     5.6296 H       
  28 H28           -0.7790    -1.0886     3.7766 H       
  29 H29           -3.1982    -3.9925     6.4345 H       
  30 H30           -5.3173    -4.8955     4.4317 H       
  31 H31           -5.4374    -5.0323     6.2023 H       
  32 H32           -5.3957    -3.4270     5.4344 H       
  33 H33           -1.8106    -5.6793     7.1948 H       
  34 H34           -0.9637    -7.9882     7.0736 H       
  35 H35           -1.6545    -9.4574     5.2223 H       
  36 H36           -3.1927    -8.6179     3.4925 H       
  37 H37           -4.0461    -6.3116     3.6182 H       
@<TRIPOS>BOND
   1    1    2 1
   2    1    3 1
   3    2    3 1
   4    2    4 1
   5    2   20 1
   6    3   21 1
   7    3   22 1
   8    4    5 1
   9    4   23 1
  10    4   24 1
  11    5    6 1
  12    6    7 ar
  13    6   11 ar
  14    7    8 ar
  15    7   25 1
  16    8    9 ar
  17    8   26 1
  18    9   10 ar
  19    9   12 1
  20   10   11 ar
  21   10   27 1
  22   11   28 1
  23   12   13 1
  24   12   14 1
  25   12   29 1
  26   13   30 1
  27   13   31 1
  28   13   32 1
  29   14   15 ar
  30   14   19 ar
  31   15   16 ar
  32   15   33 1
  33   16   17 ar
  34   16   34 1
  35   17   18 ar
  36   17   35 1
  37   18   19 ar
  38   18   36 1
  39   19   37 1

#	End of record

