#	Name: ASD03330353
#	Creating user name:	WinNT
#	Creation time:	15. 06. 2019 20:37

#	Modifying user name:	WinNT
#	Modification time:	15. 06. 2019 20:37

#	Program:	/corina/corina34_cracker 3.40 0067  02.08.2006

@<TRIPOS>MOLECULE
ASD03330353
  62   66    0    0    0
SMALL
NO_CHARGES


@<TRIPOS>ATOM
   1 C1             0.0077     1.4692     0.1561 C.3     
   2 N2            -0.0391     0.0216    -0.0933 N.3     
   3 C3             0.1959    -0.2811    -1.5167 C.3     
   4 C4             1.4352     0.4578    -1.9516 C.2     
   5 N5             1.9941     1.4744    -1.2441 N.pl3   
   6 C6             1.4505     1.9729     0.0225 C.3     
   7 C7             2.1948     0.2739    -3.0602 C.2     
   8 N8             3.2056     1.1719    -3.0186 N.2     
   9 C9             3.0901     1.8960    -1.9279 C.2     
  10 C10            4.0003     2.9866    -1.5140 C.ar    
  11 C11            4.8977     3.5356    -2.4304 C.ar    
  12 C12            1.9611    -0.7241    -4.1190 C.2     
  13 O13            1.0118    -1.4805    -4.0428 O.2     
  14 C14            2.5669    -1.7907    -6.2243 C.3     
  15 N15            2.7993    -0.7985    -5.1718 N.am    
  16 C16           -1.3129    -0.5504     0.3632 C.3     
  17 C17            5.7436     4.5528    -2.0384 C.ar    
  18 C18            5.7032     5.0282    -0.7398 C.ar    
  19 C19            4.8156     4.4880     0.1736 C.ar    
  20 C20            3.9608     3.4741    -0.2075 C.ar    
  21 C21           -1.3695    -2.0328    -0.0111 C.3     
  22 C22            1.5723    -1.2302    -7.2429 C.3     
  23 C23           -0.4003    -2.8628     0.8688 C.3     
  24 C24           -2.7440    -2.6432     0.3560 C.3     
  25 C25           -2.3995    -4.0296     0.9337 C.3     
  26 O26           -0.9736    -4.1877     0.8439 O.3     
  27 C27            3.8890    -2.1100    -6.9250 C.3     
  28 C28            3.6464    -3.1462    -8.0243 C.3     
  29 C29            2.6518    -2.5858    -9.0429 C.3     
  30 C30            1.3297    -2.2664    -8.3422 C.3     
  31 H31           -0.6239     1.9824    -0.5690 H       
  32 H32           -0.3564     1.6754     1.1626 H       
  33 H33            0.3419    -1.3535    -1.6461 H       
  34 H34           -0.6572     0.0494    -2.1093 H       
  35 H35            1.4611     3.0629     0.0236 H       
  36 H36            2.0493     1.5980     0.8526 H       
  37 H37            4.9304     3.1651    -3.4443 H       
  38 H38            2.1608    -2.7006    -5.7827 H       
  39 H39            3.5564    -0.1952    -5.2326 H       
  40 H40           -1.3911    -0.4456     1.4453 H       
  41 H41           -2.1394    -0.0234    -0.1135 H       
  42 H42            6.4389     4.9784    -2.7467 H       
  43 H43            6.3676     5.8243    -0.4378 H       
  44 H44            4.7888     4.8634     1.1858 H       
  45 H45            3.2684     3.0531     0.5065 H       
  46 H46           -1.1517    -2.1734    -1.0698 H       
  47 H47            0.6304    -1.0027    -6.7438 H       
  48 H48            1.9785    -0.3203    -7.6846 H       
  49 H49            0.6003    -2.8694     0.4365 H       
  50 H50           -0.3772    -2.4737     1.8867 H       
  51 H51           -3.2452    -2.0312     1.1060 H       
  52 H52           -3.3663    -2.7442    -0.5332 H       
  53 H53           -2.7137    -4.0854     1.9759 H       
  54 H54           -2.8959    -4.8070     0.3527 H       
  55 H55            4.2952    -1.2001    -7.3667 H       
  56 H56            4.5976    -2.5093    -6.1994 H       
  57 H57            4.5883    -3.3737    -8.5234 H       
  58 H58            3.2402    -4.0562    -7.5826 H       
  59 H59            3.0579    -1.6758    -9.4845 H       
  60 H60            2.4789    -3.3239    -9.8260 H       
  61 H61            0.9235    -3.1764    -7.9005 H       
  62 H62            0.6211    -1.8671    -9.0678 H       
@<TRIPOS>BOND
   1    1    2 1
   2    1    6 1
   3    1   31 1
   4    1   32 1
   5    2    3 1
   6    2   16 1
   7    3    4 1
   8    3   33 1
   9    3   34 1
  10    4    5 1
  11    4    7 2
  12    5    6 1
  13    5    9 1
  14    6   35 1
  15    6   36 1
  16    7    8 1
  17    7   12 1
  18    8    9 2
  19    9   10 1
  20   10   11 ar
  21   10   20 ar
  22   11   17 ar
  23   11   37 1
  24   12   13 2
  25   12   15 am
  26   14   27 1
  27   14   15 1
  28   14   22 1
  29   14   38 1
  30   15   39 1
  31   16   21 1
  32   16   40 1
  33   16   41 1
  34   17   18 ar
  35   17   42 1
  36   18   19 ar
  37   18   43 1
  38   19   20 ar
  39   19   44 1
  40   20   45 1
  41   21   24 1
  42   21   23 1
  43   21   46 1
  44   22   30 1
  45   22   47 1
  46   22   48 1
  47   23   26 1
  48   23   49 1
  49   23   50 1
  50   24   25 1
  51   24   51 1
  52   24   52 1
  53   25   26 1
  54   25   53 1
  55   25   54 1
  56   27   28 1
  57   27   55 1
  58   27   56 1
  59   28   29 1
  60   28   57 1
  61   28   58 1
  62   29   30 1
  63   29   59 1
  64   29   60 1
  65   30   61 1
  66   30   62 1

#	End of record

