#	Name: ASD00172009
#	Creating user name:	WinNT
#	Creation time:	15. 06. 2019 18:33

#	Modifying user name:	WinNT
#	Modification time:	15. 06. 2019 18:33

#	Program:	/corina/corina34_cracker 3.40 0067  02.08.2006

@<TRIPOS>MOLECULE
ASD00172009
  36   38    0    0    0
SMALL
NO_CHARGES


@<TRIPOS>ATOM
   1 C1            -0.0267     1.3320    -0.1410 C.2     
   2 C2            -0.0037     0.0042    -0.1779 C.2     
   3 C3            -1.3277    -0.5835     0.0170 C.2     
   4 C4            -2.3112     0.3520     0.1959 C.2     
   5 S5            -1.6639     1.9238     0.1398 S.3     
   6 N6            -3.6444     0.0595     0.3995 N.pl3   
   7 C7            -1.5769    -2.0246     0.0198 C.2     
   8 C8            -1.8232    -2.7351    -1.2541 C.ar    
   9 O9            -1.5815    -2.6396     1.0707 O.2     
  10 C10           -1.9546    -4.1246    -1.2676 C.ar    
  11 C11           -2.1846    -4.7810    -2.4590 C.ar    
  12 C12           -2.2847    -4.0651    -3.6388 C.ar    
  13 C13           -2.1550    -2.6876    -3.6323 C.ar    
  14 C14           -1.9309    -2.0184    -2.4469 C.ar    
  15 C15           -2.5357    -4.7889    -4.9365 C.3     
  16 C16            1.3744     1.8950    -0.3491 C.3     
  17 C17            2.3221     0.7096    -0.0766 C.3     
  18 C18            1.4194    -0.4932    -0.4163 C.3     
  19 C19            3.5410     0.7586    -1.0001 C.3     
  20 H20           -3.9531    -0.8585     0.3461 H       
  21 H21           -4.2727     0.7719     0.5961 H       
  22 H22           -1.8759    -4.6846    -0.3475 H       
  23 H23           -2.2865    -5.8562    -2.4708 H       
  24 H24           -2.2338    -2.1346    -4.5567 H       
  25 H25           -1.8299    -0.9431    -2.4432 H       
  26 H26           -3.6094    -4.8690    -5.1061 H       
  27 H27           -2.0787    -4.2343    -5.7561 H       
  28 H28           -2.1004    -5.7869    -4.8860 H       
  29 H29            1.4930     2.2477    -1.3736 H       
  30 H30            1.5665     2.7039     0.3559 H       
  31 H31            2.6273     0.6859     0.9695 H       
  32 H32            1.6429    -1.3328     0.2420 H       
  33 H33            1.5501    -0.7828    -1.4590 H       
  34 H34            4.1005     1.6755    -0.8150 H       
  35 H35            4.1798    -0.1027    -0.8046 H       
  36 H36            3.2109     0.7378    -2.0388 H       
@<TRIPOS>BOND
   1    1    2 2
   2    1   16 1
   3    1    5 1
   4    2    3 1
   5    2   18 1
   6    3    4 2
   7    3    7 1
   8    4    5 1
   9    4    6 1
  10    6   20 1
  11    6   21 1
  12    7    8 1
  13    7    9 2
  14    8   10 ar
  15    8   14 ar
  16   10   11 ar
  17   10   22 1
  18   11   12 ar
  19   11   23 1
  20   12   13 ar
  21   12   15 1
  22   13   14 ar
  23   13   24 1
  24   14   25 1
  25   15   26 1
  26   15   27 1
  27   15   28 1
  28   16   17 1
  29   16   29 1
  30   16   30 1
  31   17   18 1
  32   17   19 1
  33   17   31 1
  34   18   32 1
  35   18   33 1
  36   19   34 1
  37   19   35 1
  38   19   36 1

#	End of record

