#	Name: ASD03330631
#	Creating user name:	WinNT
#	Creation time:	15. 06. 2019 20:37

#	Modifying user name:	WinNT
#	Modification time:	15. 06. 2019 20:37

#	Program:	/corina/corina34_cracker 3.40 0067  02.08.2006

@<TRIPOS>MOLECULE
ASD03330631
  68   70    0    0    0
SMALL
NO_CHARGES


@<TRIPOS>ATOM
   1 C1            -1.1051     1.0290    -0.4694 C.2     
   2 N2            -1.2117    -0.2753    -0.0994 N.pl3   
   3 C3             0.2110     1.3653    -0.3763 C.2     
   4 N4             0.8894     0.2688     0.0286 N.2     
   5 C5             0.0441    -0.7223     0.1917 C.2     
   6 C6             0.3944    -2.0935     0.6198 C.ar    
   7 C7             0.7919     2.6881    -0.6658 C.2     
   8 O8             0.0743     3.6019    -1.0254 O.2     
   9 C9             2.6960     4.2007    -0.8201 C.3     
  10 N10            2.1184     2.8855    -0.5322 N.am    
  11 C11            2.9782     4.3167    -2.3193 C.3     
  12 C12            1.6944     4.0368    -3.1031 C.3     
  13 C13            3.4723     5.7294    -2.6375 C.3     
  14 C14            4.0503     3.3000    -2.7166 C.3     
  15 C15            3.9828     4.3631    -0.0526 C.2     
  16 N16            4.6121     5.5548    -0.0368 N.am    
  17 O17            4.4520     3.4215     0.5507 O.2     
  18 C18            5.9012     5.6934     0.6453 C.3     
  19 C19           -2.4612    -1.0370    -0.0211 C.3     
  20 C20           -3.2751    -0.7995    -1.2970 C.3     
  21 C21           -4.1512     0.4375    -1.1272 C.3     
  22 N22           -3.4884     1.4424    -0.2937 N.3     
  23 C23           -2.2412     1.9132    -0.9142 C.3     
  24 C24           -4.3902     2.5658    -0.0063 C.3     
  25 C25           -0.5160    -2.8486     1.3614 C.ar    
  26 C26           -0.1869    -4.1260     1.7590 C.ar    
  27 C27            1.0509    -4.6634     1.4222 C.ar    
  28 C28            1.9600    -3.9133     0.6838 C.ar    
  29 C29            1.6339    -2.6376     0.2782 C.ar    
  30 N30            1.3812    -5.9566     1.8259 N.am    
  31 S31            0.6954    -7.2606     1.0701 S.o2    
  32 O32            1.2564    -8.3852     1.7333 O.2     
  33 O33           -0.7008    -7.0011     1.1214 O.2     
  34 C34            1.2986    -7.1627    -0.6379 C.3     
  35 H35            1.9940     4.9791    -0.5212 H       
  36 H36            2.6907     2.1567    -0.2455 H       
  37 H37            0.9307     4.7611    -2.8201 H       
  38 H38            1.8955     4.1194    -4.1712 H       
  39 H39            1.3425     3.0304    -2.8765 H       
  40 H40            4.4269     5.9011    -2.1401 H       
  41 H41            3.5995     5.8358    -3.7148 H       
  42 H42            2.7423     6.4577    -2.2842 H       
  43 H43            3.6983     2.2936    -2.4900 H       
  44 H44            4.2514     3.3826    -3.7847 H       
  45 H45            4.9649     3.4994    -2.1583 H       
  46 H46            4.2115     6.3207    -0.4770 H       
  47 H47            6.6268     5.0184     0.1915 H       
  48 H48            6.2529     6.7209     0.5522 H       
  49 H49            5.7829     5.4440     1.6998 H       
  50 H50           -2.2352    -2.0990     0.0745 H       
  51 H51           -3.0357    -0.7065     0.8443 H       
  52 H52           -2.5968    -0.6506    -2.1371 H       
  53 H53           -3.9062    -1.6668    -1.4911 H       
  54 H54           -4.3584     0.8663    -2.1076 H       
  55 H55           -5.0917     0.1479    -0.6584 H       
  56 H56           -2.0459     2.9403    -0.6060 H       
  57 H57           -2.3345     1.8685    -1.9992 H       
  58 H58           -5.2705     2.1992     0.5218 H       
  59 H59           -3.8728     3.2975     0.6143 H       
  60 H60           -4.6964     3.0343    -0.9416 H       
  61 H61           -1.4772    -2.4317     1.6236 H       
  62 H62           -0.8906    -4.7105     2.3330 H       
  63 H63            2.9206    -4.3330     0.4240 H       
  64 H64            2.3402    -2.0556    -0.2951 H       
  65 H65            2.0128    -6.0923     2.5496 H       
  66 H66            2.3795    -7.3034    -0.6501 H       
  67 H67            0.8242    -7.9407    -1.2360 H       
  68 H68            1.0547    -6.1852    -1.0539 H       
@<TRIPOS>BOND
   1    1    2 1
   2    1    3 2
   3    1   23 1
   4    2   19 1
   5    2    5 1
   6    3    4 1
   7    3    7 1
   8    4    5 2
   9    5    6 1
  10    6   25 ar
  11    6   29 ar
  12    7    8 2
  13    7   10 am
  14    9   10 1
  15    9   11 1
  16    9   15 1
  17    9   35 1
  18   10   36 1
  19   11   12 1
  20   11   13 1
  21   11   14 1
  22   12   37 1
  23   12   38 1
  24   12   39 1
  25   13   40 1
  26   13   41 1
  27   13   42 1
  28   14   43 1
  29   14   44 1
  30   14   45 1
  31   15   16 am
  32   15   17 2
  33   16   18 1
  34   16   46 1
  35   18   47 1
  36   18   48 1
  37   18   49 1
  38   19   20 1
  39   19   50 1
  40   19   51 1
  41   20   21 1
  42   20   52 1
  43   20   53 1
  44   21   22 1
  45   21   54 1
  46   21   55 1
  47   22   23 1
  48   22   24 1
  49   23   56 1
  50   23   57 1
  51   24   58 1
  52   24   59 1
  53   24   60 1
  54   25   26 ar
  55   25   61 1
  56   26   27 ar
  57   26   62 1
  58   27   28 ar
  59   27   30 1
  60   28   29 ar
  61   28   63 1
  62   29   64 1
  63   30   31 am
  64   30   65 1
  65   31   32 2
  66   31   33 2
  67   31   34 1
  68   34   66 1
  69   34   67 1
  70   34   68 1

#	End of record

