#	Name: ASD01150257
#	Creating user name:	WinNT
#	Creation time:	15. 06. 2019 19:03

#	Modifying user name:	WinNT
#	Modification time:	15. 06. 2019 19:03

#	Program:	/corina/corina34_cracker 3.40 0067  02.08.2006

@<TRIPOS>MOLECULE
ASD01150257
  56   58    0    0    0
SMALL
NO_CHARGES


@<TRIPOS>ATOM
   1 C1            -0.0243     1.3780     0.1668 C.2     
   2 C2            -0.0022    -0.0089     0.0860 C.2     
   3 N3            -1.2585    -0.4273    -0.0908 N.2     
   4 C4            -2.0767     0.6035    -0.1276 C.2     
   5 N5            -1.3640     1.7501     0.0336 N.pl3   
   6 N6            -3.4401     0.5315    -0.2972 N.3     
   7 C7            -3.7781    -0.0034    -1.6230 C.3     
   8 C8            -4.0615    -0.2680     0.7671 C.3     
   9 C9            -1.8741     3.0547     0.0529 C.ar    
  10 C10            1.0796     2.2345     0.3515 C.2     
  11 O11            0.8949     3.5710     0.4102 O.3     
  12 O12            2.2000     1.7694     0.4583 O.2     
  13 C13            2.0583     4.3790     0.5991 C.3     
  14 C14            3.0325     4.1490    -0.5580 C.3     
  15 C15            1.6536     5.8540     0.6396 C.3     
  16 C16            2.7343     3.9992     1.9181 C.3     
  17 N17            1.1253    -0.8165     0.1728 N.am    
  18 C18            1.0042    -2.1554     0.0778 C.2     
  19 C19            2.2029    -3.0140     0.1701 C.ar    
  20 O20           -0.0914    -2.6566    -0.0839 O.2     
  21 C21            2.0806    -4.4015     0.0719 C.ar    
  22 C22            3.2032    -5.1976     0.1584 C.ar    
  23 C23            4.4503    -4.6235     0.3422 C.ar    
  24 C24            4.5780    -3.2477     0.4407 C.ar    
  25 C25            3.4635    -2.4408     0.3500 C.ar    
  26 Cl26           5.8590    -5.6323     0.4500 Cl      
  27 C27           -2.6804     3.4709     1.1040 C.ar    
  28 C28           -3.1819     4.7577     1.1201 C.ar    
  29 C29           -2.8817     5.6312     0.0910 C.ar    
  30 C30           -2.0790     5.2197    -0.9571 C.ar    
  31 C31           -1.5699     3.9359    -0.9761 C.ar    
  32 H32           -3.3594    -1.0042    -1.7285 H       
  33 H33           -4.8618    -0.0497    -1.7306 H       
  34 H34           -3.3639     0.6468    -2.3935 H       
  35 H35           -3.7807     0.1392     1.7384 H       
  36 H36           -5.1457    -0.2362     0.6595 H       
  37 H37           -3.7192    -1.3002     0.6931 H       
  38 H38            2.5509     4.4196    -1.4976 H       
  39 H39            3.9198     4.7654    -0.4138 H       
  40 H40            3.3207     3.0982    -0.5868 H       
  41 H41            0.9596     6.0179     1.4640 H       
  42 H42            2.5410     6.4704     0.7838 H       
  43 H43            1.1721     6.1246    -0.3000 H       
  44 H44            3.0225     2.9484     1.8893 H       
  45 H45            3.6216     4.6156     2.0623 H       
  46 H46            2.0402     4.1631     2.7425 H       
  47 H47            1.9996    -0.4165     0.3019 H       
  48 H48            1.1087    -4.8503    -0.0710 H       
  49 H49            3.1098    -6.2709     0.0830 H       
  50 H50            5.5529    -2.8059     0.5843 H       
  51 H51            3.5642    -1.3683     0.4270 H       
  52 H52           -2.9155     2.7890     1.9078 H       
  53 H53           -3.8094     5.0819     1.9372 H       
  54 H54           -3.2753     6.6368     0.1057 H       
  55 H55           -1.8467     5.9041    -1.7596 H       
  56 H56           -0.9427     3.6152    -1.7947 H       
@<TRIPOS>BOND
   1    1    2 2
   2    1   10 1
   3    1    5 1
   4    2    3 1
   5    2   17 1
   6    3    4 2
   7    4    5 1
   8    4    6 1
   9    5    9 1
  10    6    7 1
  11    6    8 1
  12    7   32 1
  13    7   33 1
  14    7   34 1
  15    8   35 1
  16    8   36 1
  17    8   37 1
  18    9   27 ar
  19    9   31 ar
  20   10   11 1
  21   10   12 2
  22   11   13 1
  23   13   14 1
  24   13   15 1
  25   13   16 1
  26   14   38 1
  27   14   39 1
  28   14   40 1
  29   15   41 1
  30   15   42 1
  31   15   43 1
  32   16   44 1
  33   16   45 1
  34   16   46 1
  35   17   18 am
  36   17   47 1
  37   18   19 1
  38   18   20 2
  39   19   21 ar
  40   19   25 ar
  41   21   22 ar
  42   21   48 1
  43   22   23 ar
  44   22   49 1
  45   23   24 ar
  46   23   26 1
  47   24   25 ar
  48   24   50 1
  49   25   51 1
  50   27   28 ar
  51   27   52 1
  52   28   29 ar
  53   28   53 1
  54   29   30 ar
  55   29   54 1
  56   30   31 ar
  57   30   55 1
  58   31   56 1

#	End of record

