#	Name: ASD02030352
#	Creating user name:	WinNT
#	Creation time:	15. 06. 2019 20:15

#	Modifying user name:	WinNT
#	Modification time:	15. 06. 2019 20:15

#	Program:	/corina/corina34_cracker 3.40 0067  02.08.2006

@<TRIPOS>MOLECULE
ASD02030352
  68   72    0    0    0
SMALL
NO_CHARGES


@<TRIPOS>ATOM
   1 N1            -0.1415     1.4438    -0.8335 N.am    
   2 C2            -0.1616    -0.0231    -0.7457 C.3     
   3 C3            -0.9371    -0.4281     0.5140 C.3     
   4 N4            -2.2134     0.3002     0.5342 N.am    
   5 C5            -2.1933     1.7671     0.4464 C.3     
   6 C6            -1.4175     2.1724    -0.8077 C.3     
   7 C7             1.0266     2.1092    -0.9303 C.2     
   8 C8             2.3059     1.3783    -0.8090 C.2     
   9 N9             3.5038     1.9194    -0.7533 N.2     
  10 N10            2.4499     0.0427    -0.7304 N.2     
  11 C11            3.7313    -0.2053    -0.6335 C.2     
  12 N12            4.3779     0.9784    -0.6491 N.pl3   
  13 O13            1.0281     3.3103    -1.1174 O.2     
  14 C14           -3.3814    -0.3652     0.6310 C.2     
  15 C15           -3.3932    -1.8443     0.6190 C.ar    
  16 O16           -4.4252     0.2501     0.7282 O.2     
  17 C17           -1.1500     3.6786    -0.7816 C.3     
  18 C18           -2.2307     1.8133    -2.0530 C.3     
  19 C19            5.7657     1.1549    -0.5661 C.ar    
  20 C20            6.3070     2.4331    -0.5933 C.ar    
  21 C21            7.6753     2.6047    -0.5113 C.ar    
  22 C22            8.5062     1.5052    -0.4027 C.ar    
  23 C23            7.9700     0.2293    -0.3753 C.ar    
  24 C24            6.6014     0.0521    -0.4507 C.ar    
  25 N25           -2.3077    -2.5093     1.0267 N.ar    
  26 C26           -2.2469    -3.8217     1.0434 C.ar    
  27 C27           -3.3564    -4.5881     0.6198 C.ar    
  28 C28           -4.5247    -3.9142     0.1808 C.ar    
  29 C29           -4.5287    -2.5073     0.1916 C.ar    
  30 O30           -1.1188    -4.4413     1.4670 O.3     
  31 C31           -3.3315    -5.9883     0.6219 C.ar    
  32 C32           -4.4283    -6.6818     0.2030 C.ar    
  33 C33           -5.5753    -6.0202    -0.2279 C.ar    
  34 C34           -5.6351    -4.6585    -0.2430 C.ar    
  35 C35           -0.0358    -3.6056     1.8805 C.3     
  36 C36            1.1415    -4.4775     2.3215 C.3     
  37 O37            1.6372    -5.2114     1.2000 O.3     
  38 C38            2.7442    -6.0619     1.5052 C.3     
  39 Cl39           9.0169    -1.1488    -0.2387 Cl      
  40 H40           -0.6536    -0.4356    -1.6266 H       
  41 H41            0.8593    -0.3999    -0.6838 H       
  42 H42           -1.1284    -1.5010     0.4967 H       
  43 H43           -0.3556    -0.1719     1.3996 H       
  44 H44           -3.2142     2.1439     0.3844 H       
  45 H45           -1.7013     2.1796     1.3272 H       
  46 H46            4.1879    -1.1806    -0.5524 H       
  47 H47           -0.3420     3.8921    -0.0818 H       
  48 H48           -0.8652     4.0144    -1.7787 H       
  49 H49           -2.0521     4.2025    -0.4657 H       
  50 H50           -3.1834     2.3423    -2.0298 H       
  51 H51           -1.6758     2.1031    -2.9453 H       
  52 H52           -2.4121     0.7386    -2.0710 H       
  53 H53            5.6588     3.2927    -0.6788 H       
  54 H54            8.0964     3.5989    -0.5325 H       
  55 H55            9.5756     1.6419    -0.3395 H       
  56 H56            6.1831    -0.9433    -0.4289 H       
  57 H57           -5.3984    -1.9563    -0.1347 H       
  58 H58           -2.4490    -6.5156     0.9529 H       
  59 H59           -4.4069    -7.7616     0.2051 H       
  60 H60           -6.4299    -6.5941    -0.5545 H       
  61 H61           -6.5304    -4.1567    -0.5791 H       
  62 H62            0.2726    -2.9724     1.0486 H       
  63 H63           -0.3570    -2.9803     2.7135 H       
  64 H64            1.9338    -3.8437     2.7199 H       
  65 H65            0.8100    -5.1727     3.0928 H       
  66 H66            3.5697    -5.4610     1.8866 H       
  67 H67            2.4459    -6.7900     2.2595 H       
  68 H68            3.0614    -6.5836     0.6022 H       
@<TRIPOS>BOND
   1    1    2 1
   2    1    7 am
   3    1    6 1
   4    2    3 1
   5    2   40 1
   6    2   41 1
   7    3    4 1
   8    3   42 1
   9    3   43 1
  10    4    5 1
  11    4   14 am
  12    5    6 1
  13    5   44 1
  14    5   45 1
  15    6   17 1
  16    6   18 1
  17    7    8 1
  18    7   13 2
  19    8    9 2
  20    8   10 1
  21    9   12 1
  22   10   11 2
  23   11   12 1
  24   11   46 1
  25   12   19 1
  26   14   15 1
  27   14   16 2
  28   15   25 ar
  29   15   29 ar
  30   17   47 1
  31   17   48 1
  32   17   49 1
  33   18   50 1
  34   18   51 1
  35   18   52 1
  36   19   20 ar
  37   19   24 ar
  38   20   21 ar
  39   20   53 1
  40   21   22 ar
  41   21   54 1
  42   22   23 ar
  43   22   55 1
  44   23   24 ar
  45   23   39 1
  46   24   56 1
  47   25   26 ar
  48   26   27 ar
  49   26   30 1
  50   27   28 ar
  51   27   31 ar
  52   28   29 ar
  53   28   34 ar
  54   29   57 1
  55   30   35 1
  56   31   32 ar
  57   31   58 1
  58   32   33 ar
  59   32   59 1
  60   33   34 ar
  61   33   60 1
  62   34   61 1
  63   35   36 1
  64   35   62 1
  65   35   63 1
  66   36   37 1
  67   36   64 1
  68   36   65 1
  69   37   38 1
  70   38   66 1
  71   38   67 1
  72   38   68 1

#	End of record

