#	Name: ASD01148261
#	Creating user name:	WinNT
#	Creation time:	15. 06. 2019 19:02

#	Modifying user name:	WinNT
#	Modification time:	15. 06. 2019 19:02

#	Program:	/corina/corina34_cracker 3.40 0067  02.08.2006

@<TRIPOS>MOLECULE
ASD01148261
  47   49    0    0    0
SMALL
NO_CHARGES


@<TRIPOS>ATOM
   1 C1            -0.0167     1.3791     0.0096 C.ar    
   2 C2             0.0021    -0.0041     0.0020 C.ar    
   3 C3            -1.1857    -0.7112     0.0100 C.ar    
   4 C4            -2.3919    -0.0365     0.0257 C.ar    
   5 C5            -2.4113     1.3460     0.0333 C.ar    
   6 C6            -1.2245     2.0540     0.0306 C.ar    
   7 C7            -3.7269     2.0809     0.0503 C.3     
   8 O8            -4.7306     1.3260     0.7589 O.3     
   9 C9            -3.6332     3.3645     0.9093 C.3     
  10 C10           -4.1229     2.8907     2.2645 C.2     
  11 N11           -4.7167     1.7554     2.1059 N.2     
  12 C12           -3.9502     3.6049     3.5447 C.ar    
  13 C13           -4.4529     3.0532     4.7259 C.ar    
  14 C14           -3.2790     4.8300     3.5762 C.ar    
  15 C15           -3.1180     5.4960     4.7699 C.ar    
  16 C16           -3.6253     4.9469     5.9503 C.ar    
  17 C17           -4.2918     3.7193     5.9196 C.ar    
  18 C18           -3.4520     5.6616     7.2316 C.2     
  19 O19           -2.8681     6.7273     7.2590 O.2     
  20 N20           -3.9414     5.1319     8.3702 N.am    
  21 C21           -4.1882     2.4053    -1.3720 C.3     
  22 F22           -4.3301     1.2181    -2.0984 F       
  23 F23           -5.4172     3.0718    -1.3230 F       
  24 F24           -3.2389     3.2226    -1.9951 F       
  25 Cl25           1.4746     2.2678     0.0002 Cl      
  26 C26           -3.7794     5.8002     9.5684 C.2     
  27 N27           -3.1592     6.9321     9.5975 N.2     
  28 O28           -2.9932     7.6171    10.8256 O.3     
  29 C29           -2.2893     8.8553    10.7100 C.3     
  30 C30           -1.1654    -2.2180     0.0013 C.3     
  31 F31            0.1596    -2.6665    -0.0147 F       
  32 F32           -1.8070    -2.6997     1.1474 F       
  33 F33           -1.8302    -2.6867    -1.1370 F       
  34 H34            0.9445    -0.5314    -0.0105 H       
  35 H35           -3.3197    -0.5894     0.0316 H       
  36 H36           -1.2398     3.1339     0.0365 H       
  37 H37           -2.6027     3.7145     0.9710 H       
  38 H38           -4.2845     4.1436     0.5133 H       
  39 H39           -4.9681     2.1043     4.7022 H       
  40 H40           -2.8862     5.2541     2.6639 H       
  41 H41           -2.5992     6.4430     4.7943 H       
  42 H42           -4.6843     3.2950     6.8320 H       
  43 H43           -4.4074     4.2814     8.3484 H       
  44 H44           -4.1715     5.3757    10.4808 H       
  45 H45           -1.2933     8.6708    10.3074 H       
  46 H46           -2.8339     9.5217    10.0411 H       
  47 H47           -2.2038     9.3178    11.6933 H       
@<TRIPOS>BOND
   1    1    2 ar
   2    1   25 1
   3    1    6 ar
   4    2    3 ar
   5    2   34 1
   6    3    4 ar
   7    3   30 1
   8    4    5 ar
   9    4   35 1
  10    5    6 ar
  11    5    7 1
  12    6   36 1
  13    7    8 1
  14    7    9 1
  15    7   21 1
  16    8   11 1
  17    9   10 1
  18    9   37 1
  19    9   38 1
  20   10   11 2
  21   10   12 1
  22   12   13 ar
  23   12   14 ar
  24   13   17 ar
  25   13   39 1
  26   14   15 ar
  27   14   40 1
  28   15   16 ar
  29   15   41 1
  30   16   17 ar
  31   16   18 1
  32   17   42 1
  33   18   19 2
  34   18   20 am
  35   20   26 1
  36   20   43 1
  37   21   22 1
  38   21   23 1
  39   21   24 1
  40   26   27 2
  41   26   44 1
  42   27   28 1
  43   28   29 1
  44   29   45 1
  45   29   46 1
  46   29   47 1
  47   30   31 1
  48   30   32 1
  49   30   33 1

#	End of record

