#	Name: ASD00170589
#	Creating user name:	WinNT
#	Creation time:	15. 06. 2019 18:32

#	Modifying user name:	WinNT
#	Modification time:	15. 06. 2019 18:32

#	Program:	/corina/corina34_cracker 3.40 0067  02.08.2006

@<TRIPOS>MOLECULE
ASD00170589
  31   33    0    0    0
SMALL
NO_CHARGES


@<TRIPOS>ATOM
   1 C1            -0.0138     1.2151    -0.0099 C.2     
   2 O2             0.4595     0.7883     1.0277 O.2     
   3 C3             0.6963     1.0015    -1.2894 C.ar    
   4 C4             1.9602     0.4088    -1.2989 C.ar    
   5 C5             2.6173     0.2118    -2.4951 C.ar    
   6 C6             2.0257     0.6006    -3.6857 C.ar    
   7 C7             0.7720     1.1896    -3.6825 C.ar    
   8 C8             0.1028     1.3865    -2.4930 C.ar    
   9 Cl9            2.8590     0.3493    -5.1877 Cl      
  10 C10           -5.0816     1.8087    -0.1133 C.3     
  11 C11           -3.5957     2.1302    -0.0466 C.2     
  12 C12           -2.5863     1.2656    -0.0975 C.2     
  13 C13           -2.6595    -0.2434    -0.2476 C.3     
  14 C14           -4.0303    -0.7838     0.1403 C.3     
  15 S15           -5.2927     0.1378    -0.7910 S.3     
  16 C16           -1.2876     1.9338     0.0084 C.2     
  17 C17           -1.3781     3.2920     0.1265 C.2     
  18 S18           -3.0051     3.7838     0.1156 S.3     
  19 N19           -0.2993     4.1453     0.2391 N.pl3   
  20 H20            2.4227     0.1056    -0.3712 H       
  21 H21            3.5953    -0.2463    -2.5037 H       
  22 H22            0.3160     1.4913    -4.6138 H       
  23 H23           -0.8766     1.8417    -2.4921 H       
  24 H24           -5.5100     1.8533     0.8880 H       
  25 H25           -5.5825     2.5303    -0.7587 H       
  26 H26           -2.4540    -0.5076    -1.2849 H       
  27 H27           -1.9036    -0.7010     0.3906 H       
  28 H28           -4.0911    -1.8434    -0.1080 H       
  29 H29           -4.1900    -0.6468     1.2098 H       
  30 H30            0.5980     3.7850     0.3171 H       
  31 H31           -0.4382     5.1053     0.2401 H       
@<TRIPOS>BOND
   1    1    2 2
   2    1    3 1
   3    1   16 1
   4    3    4 ar
   5    3    8 ar
   6    4    5 ar
   7    4   20 1
   8    5    6 ar
   9    5   21 1
  10    6    7 ar
  11    6    9 1
  12    7    8 ar
  13    7   22 1
  14    8   23 1
  15   10   11 1
  16   10   15 1
  17   10   24 1
  18   10   25 1
  19   11   12 2
  20   11   18 1
  21   12   13 1
  22   12   16 1
  23   13   14 1
  24   13   26 1
  25   13   27 1
  26   14   15 1
  27   14   28 1
  28   14   29 1
  29   16   17 2
  30   17   18 1
  31   17   19 1
  32   19   30 1
  33   19   31 1

#	End of record

