#	Name: ASD03930184
#	Creating user name:	WinNT
#	Creation time:	15. 06. 2019 20:47

#	Modifying user name:	WinNT
#	Modification time:	15. 06. 2019 20:47

#	Program:	/corina/corina34_cracker 3.40 0067  02.08.2006

@<TRIPOS>MOLECULE
ASD03930184
  37   38    0    0    0
SMALL
NO_CHARGES


@<TRIPOS>ATOM
   1 S1            -0.0205     1.6625     0.0112 S.o2    
   2 N2             0.0021    -0.0041     0.0020 N.am    
   3 C3             0.3290    -0.7077    -1.2343 C.3     
   4 C4             1.7433    -0.4306    -1.7209 C.3     
   5 O5             1.9114     0.9489    -2.0693 O.3     
   6 C6             2.4372     1.7409    -1.1017 C.ar    
   7 C7             1.6898     2.1415    -0.0026 C.ar    
   8 C8             3.7623     2.1538    -1.1893 C.ar    
   9 C9             4.3170     2.9079    -0.1740 C.ar    
  10 C10            3.5687     3.2605     0.9347 C.ar    
  11 C11            2.2377     2.8750     1.0166 C.ar    
  12 C12           -0.2782    -0.6949     1.1248 C.2     
  13 O13           -0.2599    -1.9098     1.1112 O.2     
  14 O14           -0.5784    -0.0389     2.2616 O.3     
  15 Br15           4.3552     4.2628     2.3320 Br      
  16 O16           -0.5708     2.0718    -1.2334 O.2     
  17 O17           -0.5469     2.0584     1.2703 O.2     
  18 C18           -0.8695    -0.8474     3.4320 C.3     
  19 C19            0.3449    -1.7157     3.7669 C.3     
  20 C20           -1.1854     0.0667     4.6175 C.3     
  21 C21           -2.0748    -1.7451     3.1448 C.3     
  22 H22            0.2191    -1.7792    -1.0676 H       
  23 H23           -0.3746    -0.4017    -2.0086 H       
  24 H24            2.4494    -0.6882    -0.9316 H       
  25 H25            1.9470    -1.0473    -2.5963 H       
  26 H26            4.3567     1.8849    -2.0499 H       
  27 H27            5.3466     3.2257    -0.2463 H       
  28 H28            1.6410     3.1504     1.8736 H       
  29 H29            1.2035    -1.0761     3.9715 H       
  30 H30            0.1263    -2.3226     4.6456 H       
  31 H31            0.5699    -2.3669     2.9223 H       
  32 H32           -2.0506     0.6853     4.3789 H       
  33 H33           -1.4040    -0.5402     5.4962 H       
  34 H34           -0.3268     0.7063     4.8221 H       
  35 H35           -1.8497    -2.3963     2.3002 H       
  36 H36           -2.2933    -2.3520     4.0235 H       
  37 H37           -2.9399    -1.1265     2.9062 H       
@<TRIPOS>BOND
   1    1    2 am
   2    1    7 1
   3    1   16 2
   4    1   17 2
   5    2    3 1
   6    2   12 am
   7    3    4 1
   8    3   22 1
   9    3   23 1
  10    4    5 1
  11    4   24 1
  12    4   25 1
  13    5    6 1
  14    6    7 ar
  15    6    8 ar
  16    7   11 ar
  17    8    9 ar
  18    8   26 1
  19    9   10 ar
  20    9   27 1
  21   10   11 ar
  22   10   15 1
  23   11   28 1
  24   12   13 2
  25   12   14 1
  26   14   18 1
  27   18   19 1
  28   18   21 1
  29   18   20 1
  30   19   29 1
  31   19   30 1
  32   19   31 1
  33   20   32 1
  34   20   33 1
  35   20   34 1
  36   21   35 1
  37   21   36 1
  38   21   37 1

#	End of record

