#	Name: ASD05313117
#	Creating user name:	WinNT
#	Creation time:	15. 06. 2019 20:58

#	Modifying user name:	WinNT
#	Modification time:	15. 06. 2019 20:58

#	Program:	/corina/corina34_cracker 3.40 0067  02.08.2006

@<TRIPOS>MOLECULE
ASD05313117
  37   40    0    0    0
SMALL
NO_CHARGES


@<TRIPOS>ATOM
   1 C1            -0.0724     0.8194     1.0219 C.2     
   2 C2             0.1133    -0.6173     0.5953 C.3     
   3 N3             0.9303     1.7323     1.0481 N.pl3   
   4 N4             1.4567    -0.7176    -0.0058 N.am    
   5 C5             2.5710    -0.0359     0.6703 C.3     
   6 C6             2.3170     1.4762     0.6627 C.3     
   7 N7            -0.9040     2.6431     1.7046 N.2     
   8 N8            -1.1573     1.4110     1.4237 N.2     
   9 C9             0.3722     2.8925     1.4916 C.2     
  10 C10            1.0654     4.1826     1.6979 C.ar    
  11 C11            0.3563     5.2931     2.1607 C.ar    
  12 N12            2.3682     4.2881     1.4485 N.ar    
  13 N13            0.9802     6.4414     2.3433 N.ar    
  14 C14            2.2741     6.5411     2.0888 C.ar    
  15 C15            2.9823     5.4416     1.6346 C.ar    
  16 C16            1.6574    -1.4143    -1.1419 C.2     
  17 O17            2.7494    -1.4044    -1.6761 O.2     
  18 C18            0.5506    -2.1899    -1.7379 C.ar    
  19 C19            0.3194    -2.1378    -3.1151 C.ar    
  20 C20           -0.7182    -2.8669    -3.6659 C.ar    
  21 C21           -1.5270    -3.6470    -2.8536 C.ar    
  22 C22           -1.3009    -3.7005    -1.4884 C.ar    
  23 C23           -0.2653    -2.9827    -0.9283 C.ar    
  24 F24           -0.9445    -2.8188    -4.9969 F       
  25 Cl25          -2.8287    -4.5598    -3.5508 Cl      
  26 Cl26           1.3318    -1.1600    -4.1313 Cl      
  27 H27            0.0436    -1.2746     1.4620 H       
  28 H28           -0.6444    -0.8879    -0.1400 H       
  29 H29            2.6424    -0.3878     1.6995 H       
  30 H30            3.5018    -0.2515     0.1456 H       
  31 H31            2.4957     1.8703    -0.3378 H       
  32 H32            2.9877     1.9619     1.3715 H       
  33 H33           -0.7005     5.2124     2.3684 H       
  34 H34            2.7809     7.4828     2.2392 H       
  35 H35            4.0398     5.5277     1.4327 H       
  36 H36           -1.9349    -4.3095    -0.8611 H       
  37 H37           -0.0885    -3.0297     0.1361 H       
@<TRIPOS>BOND
   1    1    2 1
   2    1    3 1
   3    1    8 2
   4    2    4 1
   5    2   27 1
   6    2   28 1
   7    3    6 1
   8    3    9 1
   9    4    5 1
  10    4   16 am
  11    5    6 1
  12    5   29 1
  13    5   30 1
  14    6   31 1
  15    6   32 1
  16    7    8 1
  17    7    9 2
  18    9   10 1
  19   10   11 ar
  20   10   12 ar
  21   11   13 ar
  22   11   33 1
  23   12   15 ar
  24   13   14 ar
  25   14   15 ar
  26   14   34 1
  27   15   35 1
  28   16   17 2
  29   16   18 1
  30   18   19 ar
  31   18   23 ar
  32   19   20 ar
  33   19   26 1
  34   20   21 ar
  35   20   24 1
  36   21   22 ar
  37   21   25 1
  38   22   23 ar
  39   22   36 1
  40   23   37 1

#	End of record

