#	Name: ASD02198695
#	Creating user name:	WinNT
#	Creation time:	15. 06. 2019 20:20

#	Modifying user name:	WinNT
#	Modification time:	15. 06. 2019 20:20

#	Program:	/corina/corina34_cracker 3.40 0067  02.08.2006

@<TRIPOS>MOLECULE
ASD02198695
  48   52    0    0    0
SMALL
NO_CHARGES


@<TRIPOS>ATOM
   1 F1             2.2530    -1.7089     2.4718 F       
   2 C2            -0.0433     1.5018    -0.1148 C.2     
   3 C3            -0.0730     0.1621     0.0977 C.2     
   4 N4             1.0714    -0.5395     0.2604 N.pl3   
   5 N5             2.2359    -0.0047     0.2268 N.2     
   6 C6             2.4074     1.2846     0.0282 C.2     
   7 C7             1.2216     2.1358    -0.1604 C.2     
   8 C8             0.9799    -1.9180     0.4769 C.ar    
   9 C9             1.5809    -2.4876     1.5959 C.ar    
  10 C10            1.4905    -3.8488     1.8104 C.ar    
  11 C11            0.7975    -4.6506     0.9059 C.ar    
  12 C12            0.1967    -4.0772    -0.2136 C.ar    
  13 C13            0.2841    -2.7173    -0.4224 C.ar    
  14 C14            3.7644     1.8669    -0.0045 C.2     
  15 N15            4.3064     2.6066    -1.0177 N.pl3   
  16 N16            5.6084     2.9580    -0.6402 N.2     
  17 C17            5.8522     2.4585     0.5452 C.2     
  18 C18            4.7200     1.7716     0.9833 C.2     
  19 C19            3.6732     2.9516    -2.2185 C.ar    
  20 C20            3.8074     4.2348    -2.7323 C.ar    
  21 C21            3.1822     4.5717    -3.9168 C.ar    
  22 C22            2.4232     3.6328    -4.5911 C.ar    
  23 C23            2.2872     2.3543    -4.0819 C.ar    
  24 C24            2.9146     2.0095    -2.9008 C.ar    
  25 O25            1.3246     3.3388    -0.3486 O.2     
  26 C26            0.6993    -6.1141     1.1341 C.2     
  27 C27            0.0602    -7.0142     0.3319 C.2     
  28 C28            1.2541    -6.8272     2.2148 C.2     
  29 N29            0.9539    -8.0900     2.0648 N.2     
  30 N30            0.2048    -8.2329     0.8905 N.pl3   
  31 C31           -0.3296    -9.4897     0.3602 C.3     
  32 F32           -0.6020   -10.3637     1.4180 F       
  33 F33           -1.5084    -9.2331    -0.3481 F       
  34 H34           -0.9547     2.0654    -0.2494 H       
  35 H35           -1.0229    -0.3504     0.1377 H       
  36 H36            1.9568    -4.2915     2.6782 H       
  37 H37           -0.3407    -4.6978    -0.9153 H       
  38 H38           -0.1816    -2.2737    -1.2900 H       
  39 H39            6.7757     2.5647     1.0950 H       
  40 H40            4.6142     1.2521     1.9242 H       
  41 H41            4.3998     4.9686    -2.2060 H       
  42 H42            3.2859     5.5695    -4.3167 H       
  43 H43            1.9352     3.8987    -5.5172 H       
  44 H44            1.6934     1.6234    -4.6106 H       
  45 H45            2.8083     1.0108    -2.5037 H       
  46 H46           -0.4661    -6.7909    -0.5843 H       
  47 H47            1.8281    -6.4039     3.0258 H       
  48 H48            0.4035    -9.9436    -0.3066 H       
@<TRIPOS>BOND
   1    1    9 1
   2    2    3 2
   3    2    7 1
   4    2   34 1
   5    3    4 1
   6    3   35 1
   7    4    5 1
   8    4    8 1
   9    5    6 2
  10    6    7 1
  11    6   14 1
  12    7   25 2
  13    8    9 ar
  14    8   13 ar
  15    9   10 ar
  16   10   11 ar
  17   10   36 1
  18   11   12 ar
  19   11   26 1
  20   12   13 ar
  21   12   37 1
  22   13   38 1
  23   14   15 1
  24   14   18 2
  25   15   16 1
  26   15   19 1
  27   16   17 2
  28   17   18 1
  29   17   39 1
  30   18   40 1
  31   19   20 ar
  32   19   24 ar
  33   20   21 ar
  34   20   41 1
  35   21   22 ar
  36   21   42 1
  37   22   23 ar
  38   22   43 1
  39   23   24 ar
  40   23   44 1
  41   24   45 1
  42   26   28 1
  43   26   27 2
  44   27   30 1
  45   27   46 1
  46   28   29 2
  47   28   47 1
  48   29   30 1
  49   30   31 1
  50   31   32 1
  51   31   33 1
  52   31   48 1

#	End of record

