#	Name: ASD03430692
#	Creating user name:	WinNT
#	Creation time:	15. 06. 2019 20:41

#	Modifying user name:	WinNT
#	Modification time:	15. 06. 2019 20:41

#	Program:	/corina/corina34_cracker 3.40 0067  02.08.2006

@<TRIPOS>MOLECULE
ASD03430692
  57   63    0    0    0
SMALL
NO_CHARGES


@<TRIPOS>ATOM
   1 C1             2.4601     0.5363    -0.0938 C.ar    
   2 C2             1.9350    -0.7371    -0.0979 C.ar    
   3 C3             2.7687    -1.8285    -0.2217 C.ar    
   4 C4             4.1459    -1.6536    -0.3315 C.ar    
   5 C5             4.6667    -0.3652    -0.3345 C.ar    
   6 C6             3.8293     0.7380    -0.2200 C.ar    
   7 O7             4.7893    -2.8532    -0.4105 O.3     
   8 C8             2.5164    -3.3105    -0.2849 C.3     
   9 C9             3.8490    -3.8726    -0.7997 C.3     
  10 C10            0.9053    -4.4919     0.8672 C.ar    
  11 C11            2.1453    -3.8860     1.0495 C.ar    
  12 C12            1.3759    -3.6556    -1.1989 C.2     
  13 N13            0.4826    -4.3395    -0.4566 N.am    
  14 O14            1.2779    -3.3740    -2.3746 O.2     
  15 C15            2.7623    -3.9082     2.2806 C.ar    
  16 C16            2.1521    -4.5369     3.3514 C.ar    
  17 C17            0.9208    -5.1432     3.1835 C.ar    
  18 C18            0.2969    -5.1237     1.9511 C.ar    
  19 C19           -0.7832    -4.8627    -0.9766 C.3     
  20 C20            1.8184     1.9036     0.0387 C.3     
  21 C21            3.0383     2.8003     0.3567 C.3     
  22 O22            4.1318     2.0661    -0.2195 O.3     
  23 F23           -0.9063    -5.7181     1.7957 F       
  24 C24           -1.9324    -4.1937    -0.2676 C.ar    
  25 C25           -3.0817    -4.9087     0.0133 C.ar    
  26 C26           -4.1359    -4.2951     0.6636 C.ar    
  27 C27           -4.0407    -2.9665     1.0335 C.ar    
  28 C28           -2.8910    -2.2518     0.7535 C.ar    
  29 C29           -1.8351    -2.8667     0.1070 C.ar    
  30 C30           -0.8732    -4.5826    -2.4546 C.ar    
  31 C31           -0.7968    -5.6232    -3.3612 C.ar    
  32 C32           -0.8794    -5.3663    -4.7170 C.ar    
  33 C33           -1.0388    -4.0686    -5.1660 C.ar    
  34 C34           -1.1162    -3.0281    -4.2593 C.ar    
  35 C35           -1.0380    -3.2855    -2.9034 C.ar    
  36 H36            0.8687    -0.8811    -0.0038 H       
  37 H37            5.7329    -0.2198    -0.4266 H       
  38 H38            3.8282    -3.9865    -1.8835 H       
  39 H39            4.0826    -4.8202    -0.3143 H       
  40 H40            3.7241    -3.4344     2.4102 H       
  41 H41            2.6367    -4.5544     4.3164 H       
  42 H42            0.4449    -5.6345     4.0194 H       
  43 H43           -0.8285    -5.9385    -0.8073 H       
  44 H44            1.3468     2.2048    -0.8967 H       
  45 H45            1.0997     1.9188     0.8581 H       
  46 H46            2.9349     3.7757    -0.1188 H       
  47 H47            3.1693     2.9064     1.4336 H       
  48 H48           -3.1561    -5.9467    -0.2757 H       
  49 H49           -5.0341    -4.8535     0.8824 H       
  50 H50           -4.8646    -2.4869     1.5410 H       
  51 H51           -2.8168    -1.2137     1.0422 H       
  52 H52           -0.9355    -2.3093    -0.1084 H       
  53 H53           -0.6722    -6.6370    -3.0104 H       
  54 H54           -0.8190    -6.1792    -5.4254 H       
  55 H55           -1.1026    -3.8678    -6.2253 H       
  56 H56           -1.2404    -2.0142    -4.6102 H       
  57 H57           -1.1021    -2.4730    -2.1949 H       
@<TRIPOS>BOND
   1    1    2 ar
   2    1    6 ar
   3    1   20 1
   4    2    3 ar
   5    2   36 1
   6    3    4 ar
   7    3    8 1
   8    4    5 ar
   9    4    7 1
  10    5    6 ar
  11    5   37 1
  12    6   22 1
  13    7    9 1
  14    8    9 1
  15    8   11 1
  16    8   12 1
  17    9   38 1
  18    9   39 1
  19   10   11 ar
  20   10   13 1
  21   10   18 ar
  22   11   15 ar
  23   12   13 am
  24   12   14 2
  25   13   19 1
  26   15   16 ar
  27   15   40 1
  28   16   17 ar
  29   16   41 1
  30   17   18 ar
  31   17   42 1
  32   18   23 1
  33   19   24 1
  34   19   30 1
  35   19   43 1
  36   20   21 1
  37   20   44 1
  38   20   45 1
  39   21   22 1
  40   21   46 1
  41   21   47 1
  42   24   25 ar
  43   24   29 ar
  44   25   26 ar
  45   25   48 1
  46   26   27 ar
  47   26   49 1
  48   27   28 ar
  49   27   50 1
  50   28   29 ar
  51   28   51 1
  52   29   52 1
  53   30   31 ar
  54   30   35 ar
  55   31   32 ar
  56   31   53 1
  57   32   33 ar
  58   32   54 1
  59   33   34 ar
  60   33   55 1
  61   34   35 ar
  62   34   56 1
  63   35   57 1

#	End of record

