#	Name: ASD01882268
#	Creating user name:	WinNT
#	Creation time:	15. 06. 2019 19:44

#	Modifying user name:	WinNT
#	Modification time:	15. 06. 2019 19:44

#	Program:	/corina/corina34_cracker 3.40 0067  02.08.2006

@<TRIPOS>MOLECULE
ASD01882268
  48   50    0    0    0
SMALL
NO_CHARGES


@<TRIPOS>ATOM
   1 N1            -0.0165     1.3692     0.0096 N.pl3   
   2 O2             1.1412    -0.7243    -0.0127 O.3     
   3 C3             0.0021    -0.0041     0.0020 C.2     
   4 N4            -1.0753    -0.7270     0.0089 N.2     
   5 C5            -0.6823    -2.1496     0.0076 C.3     
   6 C6             0.8153    -2.0697     0.3922 C.3     
   7 C7             1.6390    -3.0940    -0.3909 C.3     
   8 O8             3.0178    -2.9666    -0.0377 O.3     
   9 C9             3.8916    -3.8096    -0.6484 C.ar    
  10 C10            5.2452    -3.7410    -0.3526 C.ar    
  11 C11            6.1314    -4.5989    -0.9747 C.ar    
  12 C12            5.6702    -5.5255    -1.8915 C.ar    
  13 C13            4.3216    -5.5956    -2.1884 C.ar    
  14 C14            3.4306    -4.7440    -1.5644 C.ar    
  15 C15            6.6391    -6.4602    -2.5687 C.3     
  16 C16            6.2634    -7.9073    -2.2437 C.3     
  17 C17            7.2471    -8.8563    -2.9312 C.3     
  18 C18            7.1890    -8.6420    -4.4450 C.3     
  19 C19            7.5646    -7.1949    -4.7700 C.3     
  20 C20            6.5810    -6.2459    -4.0825 C.3     
  21 C21            8.1727    -9.5910    -5.1325 C.3     
  22 C22            5.7716    -8.9259    -4.9462 C.3     
  23 H23            0.8168     1.8655     0.0043 H       
  24 H24           -0.8631     1.8427     0.0162 H       
  25 H25           -1.2463    -2.7101     0.7532 H       
  26 H26           -0.8071    -2.5872    -0.9829 H       
  27 H27            0.9511    -2.1991     1.4659 H       
  28 H28            1.2935    -4.0992    -0.1495 H       
  29 H29            1.5198    -2.9156    -1.4596 H       
  30 H30            5.6060    -3.0171     0.3632 H       
  31 H31            7.1853    -4.5456    -0.7450 H       
  32 H32            3.9639    -6.3197    -2.9054 H       
  33 H33            2.3767    -4.8024    -1.7930 H       
  34 H34            7.6489    -6.2580    -2.2116 H       
  35 H35            6.3048    -8.0600    -1.1652 H       
  36 H36            5.2536    -8.1095    -2.6008 H       
  37 H37            8.2569    -8.6541    -2.5741 H       
  38 H38            6.9794    -9.8873    -2.6996 H       
  39 H39            8.5744    -6.9927    -4.4129 H       
  40 H40            7.5233    -7.0423    -5.8485 H       
  41 H41            5.5712    -6.4481    -4.4396 H       
  42 H42            6.8486    -5.2150    -4.3141 H       
  43 H43            7.9050   -10.6220    -4.9010 H       
  44 H44            8.1313    -9.4384    -6.2110 H       
  45 H45            9.1824    -9.3888    -4.7754 H       
  46 H46            5.0708    -8.2498    -4.4564 H       
  47 H47            5.7302    -8.7732    -6.0247 H       
  48 H48            5.5039    -9.9568    -4.7147 H       
@<TRIPOS>BOND
   1    1    3 1
   2    1   23 1
   3    1   24 1
   4    2    3 1
   5    2    6 1
   6    3    4 2
   7    4    5 1
   8    5    6 1
   9    5   25 1
  10    5   26 1
  11    6    7 1
  12    6   27 1
  13    7    8 1
  14    7   28 1
  15    7   29 1
  16    8    9 1
  17    9   10 ar
  18    9   14 ar
  19   10   11 ar
  20   10   30 1
  21   11   12 ar
  22   11   31 1
  23   12   13 ar
  24   12   15 1
  25   13   14 ar
  26   13   32 1
  27   14   33 1
  28   15   16 1
  29   15   20 1
  30   15   34 1
  31   16   17 1
  32   16   35 1
  33   16   36 1
  34   17   18 1
  35   17   37 1
  36   17   38 1
  37   18   19 1
  38   18   21 1
  39   18   22 1
  40   19   20 1
  41   19   39 1
  42   19   40 1
  43   20   41 1
  44   20   42 1
  45   21   43 1
  46   21   44 1
  47   21   45 1
  48   22   46 1
  49   22   47 1
  50   22   48 1

#	End of record

