#	Name: ASD02038117
#	Creating user name:	WinNT
#	Creation time:	15. 06. 2019 20:16

#	Modifying user name:	WinNT
#	Modification time:	15. 06. 2019 20:16

#	Program:	/corina/corina34_cracker 3.40 0067  02.08.2006

@<TRIPOS>MOLECULE
ASD02038117
  58   61    0    0    0
SMALL
NO_CHARGES


@<TRIPOS>ATOM
   1 C1            -0.1696     1.1685     0.1082 C.ar    
   2 C2            -0.0901    -0.2186    -0.0063 C.ar    
   3 C3             0.9969     1.9264     0.1996 C.ar    
   4 C4             2.2262     1.3031     0.1765 C.ar    
   5 C5             2.3033    -0.0802     0.0623 C.ar    
   6 C6             1.1413    -0.8379    -0.0290 C.ar    
   7 N7             3.5489    -0.7092     0.0391 N.3     
   8 C8             6.8838    -3.1261     0.9794 C.3     
   9 C9             6.6930    -4.6398     1.0950 C.3     
  10 C10            8.0473    -5.3370     0.9511 C.3     
  11 O11            6.1292    -4.9528     2.3702 O.3     
  12 O12            7.8555    -6.7530     0.9424 O.3     
  13 C13            8.9677    -7.5259     0.8203 C.ar    
  14 C14            8.8534    -8.9081     0.8048 C.ar    
  15 C15            9.9831    -9.6931     0.6809 C.ar    
  16 C16           11.2317    -9.0992     0.5715 C.ar    
  17 C17           11.3459    -7.7171     0.5862 C.ar    
  18 C18           10.2158    -6.9319     0.7057 C.ar    
  19 O19           12.3440    -9.8721     0.4504 O.3     
  20 C20            3.4011    -2.1659    -0.0867 C.3     
  21 C21            4.7859    -2.8097    -0.1884 C.3     
  22 N22            5.5726    -2.4641     1.0038 N.3     
  23 C23            5.7205    -1.0074     1.1295 C.3     
  24 C24            4.3357    -0.3636     1.2312 C.3     
  25 C25           -1.4934     1.8376     0.1267 C.ar    
  26 C26           -1.5748     3.2241     0.2411 C.ar    
  27 C27           -2.8091     3.8413     0.2573 C.ar    
  28 C28           -3.9641     3.0863     0.1607 C.ar    
  29 C29           -3.8893     1.7098     0.0469 C.ar    
  30 C30           -2.6602     1.0824     0.0239 C.ar    
  31 H31           -0.9926    -0.8076    -0.0769 H       
  32 H32            0.9374     3.0011     0.2880 H       
  33 H33            3.1302     1.8899     0.2469 H       
  34 H34            1.2033    -1.9124    -0.1181 H       
  35 H35            7.4858    -2.7709     1.8157 H       
  36 H36            7.3905    -2.8943     0.0426 H       
  37 H37            6.0223    -4.9827     0.3072 H       
  38 H38            8.5175    -5.0282     0.0174 H       
  39 H39            8.6882    -5.0623     1.7889 H       
  40 H40            6.6738    -4.6758     3.1197 H       
  41 H41            7.8811    -9.3705     0.8899 H       
  42 H42            9.8942   -10.7694     0.6695 H       
  43 H43           12.3182    -7.2546     0.5010 H       
  44 H44           10.3047    -5.8556     0.7171 H       
  45 H45           12.5811   -10.0797    -0.4638 H       
  46 H46            2.8823    -2.5558     0.7891 H       
  47 H47            2.8259    -2.3970    -0.9833 H       
  48 H48            4.6797    -3.8926    -0.2526 H       
  49 H49            5.2941    -2.4403    -1.0791 H       
  50 H50            6.2957    -0.7763     2.0261 H       
  51 H51            6.2393    -0.6175     0.2538 H       
  52 H52            4.4419     0.7193     1.2955 H       
  53 H53            3.8275    -0.7330     2.1220 H       
  54 H54           -0.6737     3.8145     0.3174 H       
  55 H55           -2.8733     4.9157     0.3459 H       
  56 H56           -4.9279     3.5734     0.1744 H       
  57 H57           -4.7943     1.1252    -0.0279 H       
  58 H58           -2.6030     0.0076    -0.0654 H       
@<TRIPOS>BOND
   1    1    2 ar
   2    1    3 ar
   3    1   25 1
   4    2    6 ar
   5    2   31 1
   6    3    4 ar
   7    3   32 1
   8    4    5 ar
   9    4   33 1
  10    5    6 ar
  11    5    7 1
  12    6   34 1
  13    7   20 1
  14    7   24 1
  15    8    9 1
  16    8   22 1
  17    8   35 1
  18    8   36 1
  19    9   11 1
  20    9   10 1
  21    9   37 1
  22   10   12 1
  23   10   38 1
  24   10   39 1
  25   11   40 1
  26   12   13 1
  27   13   14 ar
  28   13   18 ar
  29   14   15 ar
  30   14   41 1
  31   15   16 ar
  32   15   42 1
  33   16   17 ar
  34   16   19 1
  35   17   18 ar
  36   17   43 1
  37   18   44 1
  38   19   45 1
  39   20   21 1
  40   20   46 1
  41   20   47 1
  42   21   22 1
  43   21   48 1
  44   21   49 1
  45   22   23 1
  46   23   24 1
  47   23   50 1
  48   23   51 1
  49   24   52 1
  50   24   53 1
  51   25   26 ar
  52   25   30 ar
  53   26   27 ar
  54   26   54 1
  55   27   28 ar
  56   27   55 1
  57   28   29 ar
  58   28   56 1
  59   29   30 ar
  60   29   57 1
  61   30   58 1

#	End of record

