#	Name: ASD01840311
#	Creating user name:	WinNT
#	Creation time:	15. 06. 2019 19:37

#	Modifying user name:	WinNT
#	Modification time:	15. 06. 2019 19:37

#	Program:	/corina/corina34_cracker 3.40 0067  02.08.2006

@<TRIPOS>MOLECULE
ASD01840311
  55   59    0    0    0
SMALL
NO_CHARGES


@<TRIPOS>ATOM
   1 C1            -0.0178     1.4608     0.0101 C.3     
   2 N2             0.0021    -0.0041     0.0020 N.am    
   3 C3            -1.1791    -0.8744     0.0028 C.3     
   4 C4            -0.6603    -2.2911    -0.0073 C.ar    
   5 C5            -1.2814    -3.5197    -0.0111 C.ar    
   6 C6            -0.5275    -4.6785    -0.0204 C.ar    
   7 C7             0.8657    -4.6058    -0.0265 C.ar    
   8 C8             1.4987    -3.3661    -0.0232 C.ar    
   9 C9             0.7349    -2.2003    -0.0133 C.ar    
  10 C10            1.1053    -0.7716    -0.0131 C.2     
  11 O11            2.2451    -0.3495    -0.0226 O.2     
  12 C12            1.6723    -5.8491    -0.0360 C.ar    
  13 N13            2.8216    -5.8841    -0.6972 N.ar    
  14 C14            3.5692    -6.9704    -0.7307 C.ar    
  15 F15            4.7322    -6.9555    -1.4180 F       
  16 C16            3.1813    -8.1274    -0.0717 C.ar    
  17 C17            1.9901    -8.1428     0.6329 C.ar    
  18 C18            1.2182    -6.9798     0.6591 C.ar    
  19 C19           -0.0636    -6.9421     1.4050 C.2     
  20 C20           -0.4612    -5.9547     2.3280 C.2     
  21 N21           -1.6493    -6.2689     2.7720 N.2     
  22 N22           -2.0545    -7.4589     2.1557 N.pl3   
  23 C23           -3.3261    -8.1515     2.3783 C.3     
  24 C24           -3.5008    -8.4295     3.8727 C.3     
  25 C25           -2.3363    -9.2781     4.3871 C.3     
  26 C26           -3.5721    -7.1038     4.6506 C.3     
  27 C27           -4.9492    -7.0741     5.3453 C.3     
  28 C28           -5.3504    -8.5659     5.4573 C.3     
  29 C29           -4.8369    -9.1591     4.1218 C.3     
  30 C30           -1.0750    -7.8546     1.3176 C.2     
  31 H31            1.0048     1.8381     0.0023 H       
  32 H32           -0.5450     1.8219    -0.8730 H       
  33 H33           -0.5280     1.8123     0.9069 H       
  34 H34           -1.7727    -0.6993     0.9000 H       
  35 H35           -1.7810    -0.6896    -0.8870 H       
  36 H36           -2.3598    -3.5785    -0.0064 H       
  37 H37           -1.0175    -5.6410    -0.0227 H       
  38 H38            2.5771    -3.3078    -0.0275 H       
  39 H39            3.8036    -9.0094    -0.1083 H       
  40 H40            1.6675    -9.0322     1.1538 H       
  41 H41            0.1156    -5.0889     2.6181 H       
  42 H42           -4.1468    -7.5263     2.0267 H       
  43 H43           -3.3272    -9.0941     1.8308 H       
  44 H44           -1.3985    -8.7491     4.2177 H       
  45 H45           -2.4631    -9.4603     5.4542 H       
  46 H46           -2.3177   -10.2297     3.8558 H       
  47 H47           -2.7772    -7.0646     5.3953 H       
  48 H48           -3.4824    -6.2624     3.9635 H       
  49 H49           -4.8673    -6.6257     6.3354 H       
  50 H50           -5.6715    -6.5294     4.7374 H       
  51 H51           -4.8535    -9.0369     6.3055 H       
  52 H52           -6.4325    -8.6701     5.5356 H       
  53 H53           -5.5411    -8.9512     3.3163 H       
  54 H54           -4.6731   -10.2324     4.2191 H       
  55 H55           -1.0873    -8.7353     0.6927 H       
@<TRIPOS>BOND
   1    1    2 1
   2    1   31 1
   3    1   32 1
   4    1   33 1
   5    2   10 am
   6    2    3 1
   7    3    4 1
   8    3   34 1
   9    3   35 1
  10    4    9 ar
  11    4    5 ar
  12    5    6 ar
  13    5   36 1
  14    6    7 ar
  15    6   37 1
  16    7    8 ar
  17    7   12 1
  18    8    9 ar
  19    8   38 1
  20    9   10 1
  21   10   11 2
  22   12   18 ar
  23   12   13 ar
  24   13   14 ar
  25   14   15 1
  26   14   16 ar
  27   16   17 ar
  28   16   39 1
  29   17   18 ar
  30   17   40 1
  31   18   19 1
  32   19   30 2
  33   19   20 1
  34   20   21 2
  35   20   41 1
  36   21   22 1
  37   22   23 1
  38   22   30 1
  39   23   24 1
  40   23   42 1
  41   23   43 1
  42   24   29 1
  43   24   25 1
  44   24   26 1
  45   25   44 1
  46   25   45 1
  47   25   46 1
  48   26   27 1
  49   26   47 1
  50   26   48 1
  51   27   28 1
  52   27   49 1
  53   27   50 1
  54   28   29 1
  55   28   51 1
  56   28   52 1
  57   29   53 1
  58   29   54 1
  59   30   55 1

#	End of record

