#	Name: ASD01411194
#	Creating user name:	WinNT
#	Creation time:	15. 06. 2019 19:19

#	Modifying user name:	WinNT
#	Modification time:	15. 06. 2019 19:19

#	Program:	/corina/corina34_cracker 3.40 0067  02.08.2006

@<TRIPOS>MOLECULE
ASD01411194
  65   67    0    0    0
SMALL
NO_CHARGES


@<TRIPOS>ATOM
   1 C1            -1.3447     1.1139    -0.0761 C.ar    
   2 C2            -1.1156    -0.2394    -0.0632 C.ar    
   3 C3             0.1817    -0.7479    -0.0412 C.ar    
   4 C4             1.2533     0.1348    -0.0257 C.ar    
   5 C5             1.0219     1.4968    -0.0365 C.ar    
   6 C6            -0.2698     1.9892    -0.0627 C.ar    
   7 P7            -2.4841    -1.4365    -0.0689 P.3     
   8 N8            -1.8354    -2.9039     0.3056 N.2     
   9 C9            -0.5479    -3.0636     0.2830 C.2     
  10 N10            0.3828    -2.1237    -0.0414 N.pl3   
  11 C11           -0.0402    -4.3999     0.6463 C.2     
  12 C12           -0.8097    -5.4662     0.9994 C.2     
  13 C13            0.1397    -6.6078     1.2820 C.3     
  14 N14            1.4892    -6.0771     1.0542 N.am    
  15 C15            1.3711    -4.7912     0.6780 C.2     
  16 C16            2.7434    -6.8191     1.2043 C.3     
  17 C17            3.0192    -7.6180    -0.0711 C.3     
  18 C18            4.3291    -8.3929     0.0857 C.3     
  19 C19            4.2158    -9.3510     1.2731 C.3     
  20 C20            4.6048    -9.1917    -1.1898 C.3     
  21 C21            5.4765    -7.4108     0.3304 C.3     
  22 O22           -3.4932    -1.0559     0.9447 O.2     
  23 O23           -3.1615    -1.4908    -1.5285 O.3     
  24 O24           -2.1512    -5.4976     1.0808 O.3     
  25 O25            2.3028    -4.0574     0.4063 O.2     
  26 C26           -3.7598    -0.3525    -2.1517 C.3     
  27 C27           -4.3048    -0.7504    -3.5248 C.3     
  28 C28           -0.0073    -7.0686     2.7335 C.3     
  29 C29           -1.4914    -7.1373     3.0989 C.3     
  30 C30            0.6225    -8.4535     2.8953 C.3     
  31 C31            0.7001    -6.0756     3.6579 C.3     
  32 H32           -2.3552     1.4941    -0.1010 H       
  33 H33            2.2651    -0.2423    -0.0051 H       
  34 H34            1.8564     2.1823    -0.0244 H       
  35 H35           -0.4414     3.0554    -0.0731 H       
  36 H36            1.2632    -2.4421    -0.2953 H       
  37 H37           -0.0573    -7.4370     0.6025 H       
  38 H38            3.5609    -6.1194     1.3786 H       
  39 H39            2.6627    -7.5017     2.0502 H       
  40 H40            2.2018    -8.3176    -0.2455 H       
  41 H41            3.0999    -6.9354    -0.9171 H       
  42 H42            3.3984   -10.0507     1.0988 H       
  43 H43            5.1490    -9.9031     1.3848 H       
  44 H44            4.0194    -8.7819     2.1817 H       
  45 H45            4.6855    -8.5092    -2.0357 H       
  46 H46            5.5380    -9.7438    -1.0781 H       
  47 H47            3.7874    -9.8914    -1.3641 H       
  48 H48            5.2800    -6.8417     1.2390 H       
  49 H49            6.4097    -7.9629     0.4421 H       
  50 H50            5.5572    -6.7282    -0.5156 H       
  51 H51           -2.6232    -4.6811     0.8672 H       
  52 H52           -4.5758     0.0154    -1.5296 H       
  53 H53           -3.0119     0.4315    -2.2709 H       
  54 H54           -3.4889    -1.1183    -4.1469 H       
  55 H55           -5.0527    -1.5344    -3.4056 H       
  56 H56           -4.7612     0.1178    -4.0001 H       
  57 H57           -1.9953    -7.8448     2.4404 H       
  58 H58           -1.5961    -7.4656     4.1331 H       
  59 H59           -1.9401    -6.1507     2.9837 H       
  60 H60            1.6710    -8.4126     2.6002 H       
  61 H61            0.5501    -8.7662     3.9370 H       
  62 H62            0.0950    -9.1685     2.2639 H       
  63 H63            0.2514    -5.0889     3.5427 H       
  64 H64            0.5953    -6.4038     4.6920 H       
  65 H65            1.7574    -6.0266     3.3976 H       
@<TRIPOS>BOND
   1    1    2 ar
   2    1    6 ar
   3    1   32 1
   4    2    3 ar
   5    2    7 1
   6    3    4 ar
   7    3   10 1
   8    4    5 ar
   9    4   33 1
  10    5    6 ar
  11    5   34 1
  12    6   35 1
  13    7    8 1
  14    7   22 2
  15    7   23 1
  16    8    9 2
  17    9   10 1
  18    9   11 1
  19   10   36 1
  20   11   12 2
  21   11   15 1
  22   12   13 1
  23   12   24 1
  24   13   14 1
  25   13   28 1
  26   13   37 1
  27   14   15 am
  28   14   16 1
  29   15   25 2
  30   16   17 1
  31   16   38 1
  32   16   39 1
  33   17   18 1
  34   17   40 1
  35   17   41 1
  36   18   19 1
  37   18   20 1
  38   18   21 1
  39   19   42 1
  40   19   43 1
  41   19   44 1
  42   20   45 1
  43   20   46 1
  44   20   47 1
  45   21   48 1
  46   21   49 1
  47   21   50 1
  48   23   26 1
  49   24   51 1
  50   26   27 1
  51   26   52 1
  52   26   53 1
  53   27   54 1
  54   27   55 1
  55   27   56 1
  56   28   29 1
  57   28   30 1
  58   28   31 1
  59   29   57 1
  60   29   58 1
  61   29   59 1
  62   30   60 1
  63   30   61 1
  64   30   62 1
  65   31   63 1
  66   31   64 1
  67   31   65 1

#	End of record

