#	Name: ASD03430134
#	Creating user name:	WinNT
#	Creation time:	15. 06. 2019 20:40

#	Modifying user name:	WinNT
#	Modification time:	15. 06. 2019 20:40

#	Program:	/corina/corina34_cracker 3.40 0067  02.08.2006

@<TRIPOS>MOLECULE
ASD03430134
  62   68    0    0    0
SMALL
NO_CHARGES


@<TRIPOS>ATOM
   1 C1            -0.0166     1.3733     0.0096 C.ar    
   2 C2             0.0021    -0.0041     0.0020 C.ar    
   3 C3             1.2046    -0.6794    -0.0030 C.ar    
   4 C4             2.4069     0.0233     0.0085 C.ar    
   5 C5             2.3790     1.4127     0.0049 C.ar    
   6 C6             1.1697     2.0974     0.0022 C.ar    
   7 O7             3.4731    -0.8261     0.0367 O.3     
   8 C8             1.5603    -2.1406    -0.0303 C.3     
   9 C9             3.0513    -2.1333    -0.3962 C.3     
  10 C10            0.4410    -3.8652     1.0131 C.ar    
  11 C11            1.3104    -2.8157     1.2856 C.ar    
  12 C12            0.7475    -2.9099    -1.0320 C.2     
  13 N13            0.1312    -3.8955    -0.3493 N.am    
  14 O14            0.6621    -2.6878    -2.2213 O.2     
  15 C15            1.7558    -2.5861     2.5837 C.ar    
  16 C16            1.3261    -3.4193     3.6219 C.ar    
  17 C17            0.4653    -4.4618     3.3480 C.ar    
  18 C18            0.0240    -4.6870     2.0590 C.ar    
  19 C19            2.6768    -1.4699     2.8635 C.2     
  20 C20           -1.1517     2.3779     0.0358 C.3     
  21 C21           -0.4173     3.6807     0.4318 C.3     
  22 O22            0.9265     3.4375    -0.0173 O.3     
  23 C23           -0.7593    -4.8832    -0.9639 C.3     
  24 C24           -2.1963    -4.3583    -0.9410 C.3     
  25 C25           -3.1415    -5.3905    -1.5857 C.3     
  26 C26           -4.1645    -5.7167    -0.4704 C.3     
  27 C27           -4.0376    -4.4820     0.4578 C.3     
  28 O28           -2.6277    -4.1739     0.4177 O.3     
  29 C29            4.0257    -0.1348     4.3968 C.ar    
  30 C30            3.1048    -1.2509     4.1170 C.2     
  31 C31            4.4729     0.0957     5.7006 C.ar    
  32 C32            5.3348     1.1411     5.9559 C.ar    
  33 C33            5.3217     1.7359     3.6265 C.ar    
  34 C34            4.4598     0.6937     3.3585 C.ar    
  35 C35            5.7573     1.9629     4.9227 C.ar    
  36 F36            6.6011     2.9863     5.1793 F       
  37 H37           -0.9263    -0.5559     0.0003 H       
  38 H38            3.3066     1.9660     0.0048 H       
  39 H39            3.1863    -2.2470    -1.4718 H       
  40 H40            3.5868    -2.9122     0.1466 H       
  41 H41            1.6667    -3.2476     4.6323 H       
  42 H42            0.1340    -5.1072     4.1480 H       
  43 H43           -0.6501    -5.5070     1.8595 H       
  44 H44            3.0074    -0.8282     2.0602 H       
  45 H45           -1.6103     2.4732    -0.9485 H       
  46 H46           -1.8948     2.1065     0.7855 H       
  47 H47           -0.8477     4.5388    -0.0845 H       
  48 H48           -0.4433     3.8256     1.5118 H       
  49 H49           -0.4524    -5.0570    -1.9953 H       
  50 H50           -0.7051    -5.8181    -0.4062 H       
  51 H51           -2.2544    -3.4138    -1.4821 H       
  52 H52           -3.6449    -4.9588    -2.4508 H       
  53 H53           -2.5903    -6.2863    -1.8716 H       
  54 H54           -5.1724    -5.7951    -0.8779 H       
  55 H55           -3.8874    -6.6297     0.0566 H       
  56 H56           -4.6238    -3.6486     0.0703 H       
  57 H57           -4.3474    -4.7313     1.4727 H       
  58 H58            2.7742    -1.8926     4.9203 H       
  59 H59            4.1439    -0.5435     6.5065 H       
  60 H60            5.6811     1.3203     6.9631 H       
  61 H61            5.6582     2.3767     2.8249 H       
  62 H62            4.1214     0.5176     2.3481 H       
@<TRIPOS>BOND
   1    1    2 ar
   2    1    6 ar
   3    1   20 1
   4    2    3 ar
   5    2   37 1
   6    3    4 ar
   7    3    8 1
   8    4    5 ar
   9    4    7 1
  10    5    6 ar
  11    5   38 1
  12    6   22 1
  13    7    9 1
  14    8    9 1
  15    8   11 1
  16    8   12 1
  17    9   39 1
  18    9   40 1
  19   10   11 ar
  20   10   13 1
  21   10   18 ar
  22   11   15 ar
  23   12   13 am
  24   12   14 2
  25   13   23 1
  26   15   16 ar
  27   15   19 1
  28   16   17 ar
  29   16   41 1
  30   17   18 ar
  31   17   42 1
  32   18   43 1
  33   19   30 2
  34   19   44 1
  35   20   21 1
  36   20   45 1
  37   20   46 1
  38   21   22 1
  39   21   47 1
  40   21   48 1
  41   23   24 1
  42   23   49 1
  43   23   50 1
  44   24   25 1
  45   24   28 1
  46   24   51 1
  47   25   26 1
  48   25   52 1
  49   25   53 1
  50   26   27 1
  51   26   54 1
  52   26   55 1
  53   27   28 1
  54   27   56 1
  55   27   57 1
  56   29   30 1
  57   29   31 ar
  58   29   34 ar
  59   30   58 1
  60   31   32 ar
  61   31   59 1
  62   32   35 ar
  63   32   60 1
  64   33   34 ar
  65   33   35 ar
  66   33   61 1
  67   34   62 1
  68   35   36 1

#	End of record

