#	Name: ASD05860003
#	Creating user name:	WinNT
#	Creation time:	15. 06. 2019 21:04

#	Modifying user name:	WinNT
#	Modification time:	15. 06. 2019 21:04

#	Program:	/corina/corina34_cracker 3.40 0067  02.08.2006

@<TRIPOS>MOLECULE
ASD05860003
  60   63    0    0    0
SMALL
NO_CHARGES


@<TRIPOS>ATOM
   1 C1             7.6231     6.1858     6.7283 C.ar    
   2 C2             8.3646     5.2207     7.3815 C.ar    
   3 C3             9.1178     4.3201     6.6476 C.ar    
   4 C4             9.1327     4.3811     5.2550 C.ar    
   5 C5             8.4061     5.3538     4.6091 C.ar    
   6 C6             7.6444     6.2513     5.3491 C.ar    
   7 C7             8.9130     4.2319     2.4114 C.3     
   8 C8             8.4187     5.5013     3.1168 C.3     
   9 C9            10.3650     2.4344     0.8969 C.3     
  10 C10           10.2583     3.8310     0.2862 C.3     
  11 C11            9.1306     4.6111     0.9490 C.3     
  12 C12           11.4667     1.6808     0.1743 C.2     
  13 C13           11.5941     1.8338    -1.2739 C.2     
  14 C14           10.8800     2.8092    -1.9238 C.2     
  15 C15            9.9352     3.7221    -1.2074 C.3     
  16 O16           12.2292     0.9635     0.7885 O.2     
  17 O17           12.5339     1.0208    -3.2464 O.2     
  18 C18           12.4869     0.9440    -2.0334 C.2     
  19 O19            9.8482     3.3703     7.2895 O.3     
  20 C20           10.2127     3.7674     3.0612 C.3     
  21 C21            9.9346     3.3547     4.5124 C.3     
  22 O22           11.1803     3.1644     5.1862 O.3     
  23 O23           10.2818     1.3654     3.0433 O.3     
  24 C24           10.7638     2.5261     2.3633 C.3     
  25 N25            8.5671     3.2103    -1.3633 N.4     
  26 C26            7.6643     4.3199    -1.6975 C.3     
  27 C27            8.5372     2.2130    -2.4415 C.3     
  28 O28           11.0345     2.9493    -3.2488 O.3     
  29 O29            9.1230     1.7419     0.7553 O.3     
  30 N30           13.2523     0.0440    -1.3850 N.am    
  31 Cl31           6.7113     7.4655     4.5314 Cl      
  32 C32            7.0001     5.8151     2.6372 C.3     
  33 O33            9.2755     6.5899     2.7659 O.3     
  34 H34            7.0249     6.8844     7.2945 H       
  35 H35            8.3571     5.1690     8.4602 H       
  36 H36            8.1534     3.4532     2.4804 H       
  37 H37           11.2000     4.3625     0.4238 H       
  38 H38            8.2077     4.4273     0.3989 H       
  39 H39            9.3617     5.6749     0.8941 H       
  40 H40            9.9934     4.7141    -1.6554 H       
  41 H41            9.3700     2.5442     7.4440 H       
  42 H42           10.9471     4.5725     3.0384 H       
  43 H43            9.3878     2.4118     4.5126 H       
  44 H44           11.7526     3.9439     5.1823 H       
  45 H45           10.6317     0.5330     2.6970 H       
  46 H46           11.8516     2.5434     2.4297 H       
  47 H47            8.2679     2.7816    -0.5003 H       
  48 H48            7.9024     4.6949    -2.6929 H       
  49 H49            6.6330     3.9674    -1.6792 H       
  50 H50            7.7875     5.1208    -0.9684 H       
  51 H51            7.6390     1.6027    -2.3471 H       
  52 H52            8.5318     2.7207    -3.4060 H       
  53 H53            9.4186     1.5756    -2.3714 H       
  54 H54            9.1489     0.8228     1.0547 H       
  55 H55           13.8914    -0.4940    -1.8780 H       
  56 H56           13.1642    -0.0658    -0.4252 H       
  57 H57            6.2785     5.3437     3.3043 H       
  58 H58            6.8462     6.8941     2.6394 H       
  59 H59            6.8651     5.4309     1.6261 H       
  60 H60            9.0288     7.4315     3.1731 H       
@<TRIPOS>BOND
   1    1    2 ar
   2    1    6 ar
   3    1   34 1
   4    2    3 ar
   5    2   35 1
   6    3    4 ar
   7    3   19 1
   8    4    5 ar
   9    4   21 1
  10    5    6 ar
  11    5    8 1
  12    6   31 1
  13    7    8 1
  14    7   11 1
  15    7   20 1
  16    7   36 1
  17    8   32 1
  18    8   33 1
  19    9   10 1
  20    9   12 1
  21    9   29 1
  22    9   24 1
  23   10   11 1
  24   10   15 1
  25   10   37 1
  26   11   38 1
  27   11   39 1
  28   12   13 1
  29   12   16 2
  30   13   14 2
  31   13   18 1
  32   14   15 1
  33   14   28 1
  34   15   25 1
  35   15   40 1
  36   17   18 2
  37   18   30 am
  38   19   41 1
  39   20   21 1
  40   20   24 1
  41   20   42 1
  42   21   22 1
  43   21   43 1
  44   22   44 1
  45   23   24 1
  46   23   45 1
  47   24   46 1
  48   25   26 1
  49   25   27 1
  50   25   47 1
  51   26   48 1
  52   26   49 1
  53   26   50 1
  54   27   51 1
  55   27   52 1
  56   27   53 1
  57   29   54 1
  58   30   55 1
  59   30   56 1
  60   32   57 1
  61   32   58 1
  62   32   59 1
  63   33   60 1

#	End of record

