#	Name: ASD03240465
#	Creating user name:	WinNT
#	Creation time:	15. 06. 2019 20:35

#	Modifying user name:	WinNT
#	Modification time:	15. 06. 2019 20:35

#	Program:	/corina/corina34_cracker 3.40 0067  02.08.2006

@<TRIPOS>MOLECULE
ASD03240465
  42   44    0    0    0
SMALL
NO_CHARGES


@<TRIPOS>ATOM
   1 C1             0.0330     1.4782    -0.0440 C.ar    
   2 C2            -0.7138     4.0177     1.5376 C.ar    
   3 C3            -1.4710     2.8761     1.3124 C.ar    
   4 C4            -1.3319     2.1138     0.0199 C.3     
   5 C5            -0.8708     4.6884     2.7373 C.ar    
   6 C6            -1.7790     4.1976     3.6737 C.ar    
   7 N7            -2.4837     3.1028     3.4196 N.ar    
   8 C8            -2.3531     2.4451     2.2847 C.ar    
   9 C9            -1.9586     4.9049     4.9651 C.2     
  10 C10           -1.3066     6.0365     5.3631 C.2     
  11 N11           -1.7546     6.3536     6.5933 N.pl3   
  12 N12           -2.7070     5.4000     6.9723 N.2     
  13 C13           -2.8379     4.5349     6.0022 C.2     
  14 C14            0.1583     0.1027     0.0126 C.ar    
  15 C15           -1.5032     3.0736    -1.1593 C.3     
  16 N16           -1.4871     2.3132    -2.4160 N.3     
  17 C17           -1.6495     3.2042    -3.5726 C.3     
  18 C18            1.1594     2.2704    -0.1651 C.ar    
  19 C19            2.4110     1.6870    -0.2295 C.ar    
  20 C20            2.5363     0.3116    -0.1724 C.ar    
  21 C21            1.4099    -0.4806    -0.0517 C.ar    
  22 C22           -3.7607     3.3436     5.9972 C.3     
  23 H23           -0.0145     4.3718     0.7946 H       
  24 H24           -2.0964     1.3384    -0.0288 H       
  25 H25           -0.2974     5.5797     2.9455 H       
  26 H26           -2.9436     1.5574     2.1125 H       
  27 H27           -0.5654     6.5788     4.7948 H       
  28 H28           -1.4667     7.1120     7.1251 H       
  29 H29           -0.7217    -0.5162     0.1076 H       
  30 H30           -2.4534     3.5992    -1.0648 H       
  31 H31           -0.6870     3.7961    -1.1612 H       
  32 H32           -0.6432     1.7660    -2.4968 H       
  33 H33           -2.6007     3.7307    -3.4949 H       
  34 H34           -0.8343     3.9275    -3.5913 H       
  35 H35           -1.6340     2.6154    -4.4898 H       
  36 H36            1.0615     3.3450    -0.2097 H       
  37 H37            3.2910     2.3059    -0.3247 H       
  38 H38            3.5140    -0.1442    -0.2234 H       
  39 H39            1.5077    -1.5552    -0.0068 H       
  40 H40           -4.7260     3.6334     5.5821 H       
  41 H41           -3.3268     2.5504     5.3884 H       
  42 H42           -3.8968     2.9852     7.0176 H       
@<TRIPOS>BOND
   1    1   14 ar
   2    1   18 ar
   3    1    4 1
   4    2    3 ar
   5    2    5 ar
   6    2   23 1
   7    3    4 1
   8    3    8 ar
   9    4   15 1
  10    4   24 1
  11    5    6 ar
  12    5   25 1
  13    6    7 ar
  14    6    9 1
  15    7    8 ar
  16    8   26 1
  17    9   10 2
  18    9   13 1
  19   10   11 1
  20   10   27 1
  21   11   12 1
  22   11   28 1
  23   12   13 2
  24   13   22 1
  25   14   21 ar
  26   14   29 1
  27   15   16 1
  28   15   30 1
  29   15   31 1
  30   16   17 1
  31   16   32 1
  32   17   33 1
  33   17   34 1
  34   17   35 1
  35   18   19 ar
  36   18   36 1
  37   19   20 ar
  38   19   37 1
  39   20   21 ar
  40   20   38 1
  41   21   39 1
  42   22   40 1
  43   22   41 1
  44   22   42 1

#	End of record

