#	Name: ASD00670002
#	Creating user name:	WinNT
#	Creation time:	15. 06. 2019 18:37

#	Modifying user name:	WinNT
#	Modification time:	15. 06. 2019 18:37

#	Program:	/corina/corina34_cracker 3.40 0067  02.08.2006

@<TRIPOS>MOLECULE
ASD00670002
  59   63    0    0    0
SMALL
NO_CHARGES


@<TRIPOS>ATOM
   1 C1             0.0829     1.3481     0.0174 C.ar    
   2 C2             0.0405    -0.0308     0.1712 C.ar    
   3 C3            -1.1741    -0.6794     0.3159 C.ar    
   4 C4            -2.3603     0.0497     0.3082 C.ar    
   5 C5            -2.3024     1.4298     0.1539 C.ar    
   6 C6            -1.0942     2.0756     0.0153 C.ar    
   7 N7            -3.6874    -0.3661     0.4348 N.am    
   8 C8            -4.5502     0.6622     0.3751 C.2     
   9 C9            -3.7313     1.9215     0.1874 C.3     
  10 N10           -3.9327     2.8371     1.3132 N.am    
  11 C11           -4.0941     2.6049    -1.1325 C.3     
  12 C12           -5.5543     3.0594    -1.0870 C.3     
  13 C13           -5.8839     3.8176    -2.3470 C.2     
  14 O14           -7.1175     4.3147    -2.5279 O.3     
  15 O15           -5.0377     3.9780    -3.1944 O.2     
  16 C16           -3.6338     2.4405     2.5661 C.2     
  17 C17           -3.7344     3.3984     3.6889 C.ar    
  18 O18           -3.2816     1.2958     2.7735 O.2     
  19 C19           -3.4240     2.9753     4.9695 C.ar    
  20 C20           -3.5252     3.8992     6.0243 C.ar    
  21 C21           -3.9415     5.2225     5.7230 C.ar    
  22 C22           -4.2346     5.5541     4.3870 C.ar    
  23 N23           -4.1177     4.6544     3.4440 N.ar    
  24 C24           -3.2301     3.5513     7.3507 C.ar    
  25 C25           -3.3473     4.4894     8.3321 C.ar    
  26 C26           -3.7557     5.7883     8.0373 C.ar    
  27 C27           -4.0498     6.1606     6.7597 C.ar    
  28 O28           -5.7586     0.5941     0.4557 O.2     
  29 C29           -4.0748    -1.7022     0.6040 C.ar    
  30 C30           -4.1941    -2.2355     1.8796 C.ar    
  31 C31           -4.5767    -3.5531     2.0436 C.ar    
  32 C32           -4.8409    -4.3412     0.9389 C.ar    
  33 C33           -4.7230    -3.8146    -0.3345 C.ar    
  34 C34           -4.3462    -2.4953    -0.5059 C.ar    
  35 F35           -4.2309    -1.9806    -1.7497 F       
  36 O36            1.1956    -0.7470     0.1793 O.3     
  37 C37            1.0805    -2.1620     0.3415 C.3     
  38 I38            1.9230     2.3253    -0.2020 I       
  39 H39           -1.2015    -1.7525     0.4345 H       
  40 H40           -1.0659     3.1486    -0.1035 H       
  41 H41           -4.2811     3.7287     1.1568 H       
  42 H42           -3.4487     3.4703    -1.2829 H       
  43 H43           -3.9576     1.9026    -1.9548 H       
  44 H44           -6.2038     2.1877    -1.0071 H       
  45 H45           -5.7067     3.7065    -0.2232 H       
  46 H46           -7.2814     4.7936    -3.3518 H       
  47 H47           -3.1113     1.9582     5.1544 H       
  48 H48           -4.5528     6.5558     4.1385 H       
  49 H49           -2.9128     2.5476     7.5923 H       
  50 H50           -3.1205     4.2220     9.3536 H       
  51 H51           -3.8402     6.5122     8.8342 H       
  52 H52           -4.3652     7.1714     6.5472 H       
  53 H53           -3.9877    -1.6212     2.7436 H       
  54 H54           -4.6691    -3.9681     3.0364 H       
  55 H55           -5.1397    -5.3707     1.0707 H       
  56 H56           -4.9294    -4.4331    -1.1955 H       
  57 H57            0.4862    -2.5741    -0.4741 H       
  58 H58            2.0736    -2.6110     0.3302 H       
  59 H59            0.5938    -2.3804     1.2920 H       
@<TRIPOS>BOND
   1    1    2 ar
   2    1   38 1
   3    1    6 ar
   4    2    3 ar
   5    2   36 1
   6    3    4 ar
   7    3   39 1
   8    4    5 ar
   9    4    7 1
  10    5    6 ar
  11    5    9 1
  12    6   40 1
  13    7    8 am
  14    7   29 1
  15    8    9 1
  16    8   28 2
  17    9   10 1
  18    9   11 1
  19   10   16 am
  20   10   41 1
  21   11   12 1
  22   11   42 1
  23   11   43 1
  24   12   13 1
  25   12   44 1
  26   12   45 1
  27   13   14 1
  28   13   15 2
  29   14   46 1
  30   16   17 1
  31   16   18 2
  32   17   19 ar
  33   17   23 ar
  34   19   20 ar
  35   19   47 1
  36   20   21 ar
  37   20   24 ar
  38   21   22 ar
  39   21   27 ar
  40   22   23 ar
  41   22   48 1
  42   24   25 ar
  43   24   49 1
  44   25   26 ar
  45   25   50 1
  46   26   27 ar
  47   26   51 1
  48   27   52 1
  49   29   30 ar
  50   29   34 ar
  51   30   31 ar
  52   30   53 1
  53   31   32 ar
  54   31   54 1
  55   32   33 ar
  56   32   55 1
  57   33   34 ar
  58   33   56 1
  59   34   35 1
  60   36   37 1
  61   37   57 1
  62   37   58 1
  63   37   59 1

#	End of record

