#	Name: ASD05143324
#	Creating user name:	WinNT
#	Creation time:	15. 06. 2019 20:57

#	Modifying user name:	WinNT
#	Modification time:	15. 06. 2019 20:57

#	Program:	/corina/corina34_cracker 3.40 0067  02.08.2006

@<TRIPOS>MOLECULE
ASD05143324
  53   55    0    0    0
SMALL
NO_CHARGES


@<TRIPOS>ATOM
   1 C1            -0.0674     1.4706     0.4310 C.2     
   2 N2             0.0665     0.1612     0.3544 N.2     
   3 S3            -1.4900    -0.4430     0.0388 S.3     
   4 C4            -2.2444     1.1054     0.0261 C.2     
   5 N5            -1.2788     1.9653     0.2646 N.2     
   6 N6            -3.5819     1.3843    -0.1851 N.pl3   
   7 C7            -4.0278     2.7115    -0.1908 C.ar    
   8 C8            -5.3934     2.9899    -0.1988 C.ar    
   9 C9            -5.8286     4.3045    -0.2045 C.ar    
  10 C10           -4.9091     5.3378    -0.2022 C.ar    
  11 C11           -3.5545     5.0626    -0.1943 C.ar    
  12 C12           -3.1117     3.7530    -0.1828 C.ar    
  13 C13            1.2225    -0.5632     0.4995 C.ar    
  14 C14            2.3614    -0.2187    -0.2280 C.ar    
  15 C15            1.2666    -1.6490     1.3831 C.ar    
  16 C16            2.4373    -2.3738     1.5227 C.ar    
  17 C17            3.5594    -2.0263     0.7921 C.ar    
  18 C18            3.5217    -0.9514    -0.0779 C.ar    
  19 C19            1.0938     2.3494     0.6990 C.ar    
  20 C20            1.2966     3.5009    -0.0703 C.ar    
  21 C21            1.9870     2.0371     1.7226 C.ar    
  22 C22            3.0676     2.8598     1.9680 C.ar    
  23 C23            3.2682     3.9943     1.2017 C.ar    
  24 C24            2.3857     4.3170     0.1878 C.ar    
  25 O25            0.1640    -1.9892     2.1012 O.3     
  26 C26            0.2834    -3.1078     2.9824 C.3     
  27 O27            0.4290     3.8167    -1.0666 O.3     
  28 C28            0.7596     4.9425    -1.8822 C.3     
  29 O29           -6.2963     1.9729    -0.2015 O.3     
  30 C30           -7.6791     2.3332    -0.2098 C.3     
  31 H31           -4.2114     0.6605    -0.3292 H       
  32 H32           -6.8862     4.5230    -0.2111 H       
  33 H33           -5.2505     6.3624    -0.2070 H       
  34 H34           -2.8403     5.8727    -0.1929 H       
  35 H35           -2.0528     3.5409    -0.1766 H       
  36 H36            2.3355     0.6199    -0.9081 H       
  37 H37            2.4750    -3.2117     2.2031 H       
  38 H38            4.4709    -2.5946     0.9045 H       
  39 H39            4.4020    -0.6869    -0.6448 H       
  40 H40            1.8335     1.1527     2.3230 H       
  41 H41            3.7590     2.6173     2.7615 H       
  42 H42            4.1159     4.6336     1.3999 H       
  43 H43            2.5482     5.2037    -0.4069 H       
  44 H44            1.0624    -2.9090     3.7184 H       
  45 H45           -0.6657    -3.2710     3.4929 H       
  46 H46            0.5445    -3.9966     2.4079 H       
  47 H47            0.7623     5.8453    -1.2715 H       
  48 H48            1.7474     4.7968    -2.3195 H       
  49 H49            0.0215     5.0442    -2.6778 H       
  50 H50           -7.9060     2.9239     0.6777 H       
  51 H51           -7.8964     2.9201    -1.1022 H       
  52 H52           -8.2898     1.4303    -0.2111 H       
  53 Br53           9.4709    11.3624     8.7184 Br      
@<TRIPOS>BOND
   1    1    2 2
   2    1   19 1
   3    1    5 1
   4    2    3 1
   5    2   13 1
   6    3    4 1
   7    4    5 2
   8    4    6 1
   9    6    7 1
  10    6   31 1
  11    7    8 ar
  12    7   12 ar
  13    8    9 ar
  14    8   29 1
  15    9   10 ar
  16    9   32 1
  17   10   11 ar
  18   10   33 1
  19   11   12 ar
  20   11   34 1
  21   12   35 1
  22   13   14 ar
  23   13   15 ar
  24   14   18 ar
  25   14   36 1
  26   15   16 ar
  27   15   25 1
  28   16   17 ar
  29   16   37 1
  30   17   18 ar
  31   17   38 1
  32   18   39 1
  33   19   20 ar
  34   19   21 ar
  35   20   27 1
  36   20   24 ar
  37   21   22 ar
  38   21   40 1
  39   22   23 ar
  40   22   41 1
  41   23   24 ar
  42   23   42 1
  43   24   43 1
  44   25   26 1
  45   26   44 1
  46   26   45 1
  47   26   46 1
  48   27   28 1
  49   28   47 1
  50   28   48 1
  51   28   49 1
  52   29   30 1
  53   30   50 1
  54   30   51 1
  55   30   52 1

#	End of record

