#	Name: ASD03092731
#	Creating user name:	WinNT
#	Creation time:	15. 06. 2019 20:33

#	Modifying user name:	WinNT
#	Modification time:	15. 06. 2019 20:33

#	Program:	/corina/corina34_cracker 3.40 0067  02.08.2006

@<TRIPOS>MOLECULE
ASD03092731
  45   47    0    0    0
SMALL
NO_CHARGES


@<TRIPOS>ATOM
   1 C1             0.0246     1.1858     0.0030 C.2     
   2 O2            -0.6774     1.1949     0.9960 O.2     
   3 C3             2.5225     1.2867     0.1078 C.ar    
   4 C4             1.2859     1.9474    -0.0145 C.ar    
   5 C5             1.2744     3.3389    -0.1535 C.ar    
   6 C6             2.4959     4.0113    -0.1644 C.ar    
   7 C7             3.6777     3.2812    -0.0377 C.ar    
   8 N8             3.6564     1.9704     0.0917 N.ar    
   9 N9             2.5535    -0.0873     0.2517 N.pl3   
  10 C10            3.8369    -0.7936     0.2655 C.3     
  11 C11            2.5383     5.4874    -0.3098 C.ar    
  12 C12            3.7626     6.1531    -0.3200 C.ar    
  13 C13            3.7988     7.5252    -0.4557 C.ar    
  14 C14            2.6174     8.2430    -0.5817 C.ar    
  15 C15            1.3963     7.5827    -0.5719 C.ar    
  16 C16            1.3541     6.2102    -0.4422 C.ar    
  17 O17            2.6561     9.5949    -0.7144 O.3     
  18 C18            1.4032    10.2706    -0.8395 C.3     
  19 C19            1.6467    11.7748    -0.9779 C.3     
  20 C20           -0.3841     0.4062    -1.1836 C.ar    
  21 C21           -1.5157    -0.4110    -1.1301 C.ar    
  22 C22           -1.8923    -1.1357    -2.2409 C.ar    
  23 C23           -1.1506    -1.0550    -3.4082 C.ar    
  24 C24           -0.0273    -0.2463    -3.4676 C.ar    
  25 C25            0.3562     0.4877    -2.3654 C.ar    
  26 Cl26          -1.6306    -1.9714    -4.8023 Cl      
  27 H27            0.3438     3.8785    -0.2501 H       
  28 H28            4.6255     3.7988    -0.0462 H       
  29 H29            1.7254    -0.5841     0.3435 H       
  30 H30            4.4437    -0.4284     1.0940 H       
  31 H31            3.6620    -1.8626     0.3869 H       
  32 H32            4.3598    -0.6154    -0.6741 H       
  33 H33            4.6821     5.5953    -0.2213 H       
  34 H34            4.7473     8.0416    -0.4637 H       
  35 H35            0.4788     8.1438    -0.6697 H       
  36 H36            0.4040     5.6966    -0.4388 H       
  37 H37            0.8795     9.9046    -1.7225 H       
  38 H38            0.7978    10.0806     0.0468 H       
  39 H39            2.1704    12.1409    -0.0948 H       
  40 H40            2.2521    11.9648    -1.8641 H       
  41 H41            0.6910    12.2903    -1.0733 H       
  42 H42           -2.0943    -0.4753    -0.2204 H       
  43 H43           -2.7670    -1.7678    -2.2008 H       
  44 H44            0.5468    -0.1876    -4.3805 H       
  45 H45            1.2297     1.1209    -2.4141 H       
@<TRIPOS>BOND
   1    1    2 2
   2    1    4 1
   3    1   20 1
   4    3    4 ar
   5    3    8 ar
   6    3    9 1
   7    4    5 ar
   8    5    6 ar
   9    5   27 1
  10    6    7 ar
  11    6   11 1
  12    7    8 ar
  13    7   28 1
  14    9   10 1
  15    9   29 1
  16   10   30 1
  17   10   31 1
  18   10   32 1
  19   11   12 ar
  20   11   16 ar
  21   12   13 ar
  22   12   33 1
  23   13   14 ar
  24   13   34 1
  25   14   15 ar
  26   14   17 1
  27   15   16 ar
  28   15   35 1
  29   16   36 1
  30   17   18 1
  31   18   19 1
  32   18   37 1
  33   18   38 1
  34   19   39 1
  35   19   40 1
  36   19   41 1
  37   20   21 ar
  38   20   25 ar
  39   21   22 ar
  40   21   42 1
  41   22   23 ar
  42   22   43 1
  43   23   24 ar
  44   23   26 1
  45   24   25 ar
  46   24   44 1
  47   25   45 1

#	End of record

