#	Name: ASD03331377
#	Creating user name:	WinNT
#	Creation time:	15. 06. 2019 20:39

#	Modifying user name:	WinNT
#	Modification time:	15. 06. 2019 20:39

#	Program:	/corina/corina34_cracker 3.40 0067  02.08.2006

@<TRIPOS>MOLECULE
ASD03331377
  61   63    0    0    0
SMALL
NO_CHARGES


@<TRIPOS>ATOM
   1 C1             0.8672     1.7704    -0.6778 C.3     
   2 C2             0.7101     0.2731    -0.5917 C.2     
   3 C3             1.7299    -0.5976    -0.7848 C.2     
   4 C4             3.1370    -0.1625    -1.1124 C.3     
   5 C5             3.0829     1.3037    -1.5640 C.3     
   6 N6             2.3030     2.0895    -0.5983 N.3     
   7 N7            -0.1256    -1.7485    -0.3366 N.2     
   8 N8             1.2430    -1.8519    -0.6313 N.am    
   9 C9            -0.4473    -0.4709    -0.3129 C.2     
  10 C10            1.9469    -2.9959    -0.7421 C.2     
  11 O11            3.1329    -2.9565    -1.0027 O.2     
  12 N12            1.3352    -4.1835    -0.5638 N.am    
  13 C13            2.5334     3.5286    -0.7822 C.3     
  14 C14            1.1714    -6.5546    -1.0540 C.2     
  15 C15            2.1003    -5.4270    -0.6843 C.3     
  16 C16            2.7770    -5.7409     0.6515 C.3     
  17 C17            1.7115    -5.9013     1.7377 C.3     
  18 O18           -0.0214    -6.4446    -0.8644 O.2     
  19 C19            3.5765    -7.0393     0.5256 C.3     
  20 C20            3.7198    -4.5959     1.0271 C.3     
  21 N21            1.6662    -7.6853    -1.5954 N.am    
  22 C22            0.7757    -8.8147    -1.8741 C.3     
  23 C23            1.5834    -9.9632    -2.4818 C.3     
  24 O24            2.5199   -10.4491    -1.5180 O.3     
  25 C25           -1.7960     0.0840    -0.0394 C.ar    
  26 C26           -2.9323    -0.5947    -0.4758 C.ar    
  27 C27           -4.1859    -0.0745    -0.2184 C.ar    
  28 C28           -4.3132     1.1220     0.4731 C.ar    
  29 C29           -3.1857     1.7981     0.9076 C.ar    
  30 C30           -1.9298     1.2819     0.6594 C.ar    
  31 F31           -5.5405     1.6287     0.7225 F       
  32 F32           -5.2887    -0.7308    -0.6405 F       
  33 H33            0.4631     2.1285    -1.6247 H       
  34 H34            0.3392     2.2435     0.1501 H       
  35 H35            3.7667    -0.2530    -0.2273 H       
  36 H36            3.5370    -0.7814    -1.9155 H       
  37 H37            4.0955     1.7028    -1.6230 H       
  38 H38            2.6118     1.3641    -2.5450 H       
  39 H39            0.3883    -4.2149    -0.3558 H       
  40 H40            2.0086     4.0829    -0.0041 H       
  41 H41            3.6015     3.7365    -0.7188 H       
  42 H42            2.1611     3.8342    -1.7600 H       
  43 H43            2.8594    -5.3130    -1.4582 H       
  44 H44            1.0399    -6.7170     1.4702 H       
  45 H45            2.1936    -6.1249     2.6894 H       
  46 H46            1.1420    -4.9763     1.8275 H       
  47 H47            4.3456    -6.9199    -0.2375 H       
  48 H48            4.0461    -7.2710     1.4816 H       
  49 H49            2.9074    -7.8520     0.2430 H       
  50 H50            3.1502    -3.6708     1.1168 H       
  51 H51            4.2019    -4.8195     1.9788 H       
  52 H52            4.4789    -4.4815     0.2533 H       
  53 H53            2.6120    -7.7513    -1.8006 H       
  54 H54            0.3109    -9.1484    -0.9463 H       
  55 H55            0.0024    -8.5030    -2.5762 H       
  56 H56            0.9086   -10.7689    -2.7709 H       
  57 H57            2.1194    -9.6052    -3.3608 H       
  58 H58            3.0677   -11.1800    -1.8356 H       
  59 H59           -2.8330    -1.5255    -1.0145 H       
  60 H60           -3.2892     2.7289     1.4454 H       
  61 H61           -1.0516     1.8084     1.0026 H       
@<TRIPOS>BOND
   1    1    2 1
   2    1    6 1
   3    1   33 1
   4    1   34 1
   5    2    3 2
   6    2    9 1
   7    3    4 1
   8    3    8 1
   9    4    5 1
  10    4   35 1
  11    4   36 1
  12    5    6 1
  13    5   37 1
  14    5   38 1
  15    6   13 1
  16    7    8 1
  17    7    9 2
  18    8   10 am
  19    9   25 1
  20   10   11 2
  21   10   12 am
  22   12   15 1
  23   12   39 1
  24   13   40 1
  25   13   41 1
  26   13   42 1
  27   14   18 2
  28   14   21 am
  29   14   15 1
  30   15   16 1
  31   15   43 1
  32   16   17 1
  33   16   19 1
  34   16   20 1
  35   17   44 1
  36   17   45 1
  37   17   46 1
  38   19   47 1
  39   19   48 1
  40   19   49 1
  41   20   50 1
  42   20   51 1
  43   20   52 1
  44   21   22 1
  45   21   53 1
  46   22   23 1
  47   22   54 1
  48   22   55 1
  49   23   24 1
  50   23   56 1
  51   23   57 1
  52   24   58 1
  53   25   26 ar
  54   25   30 ar
  55   26   27 ar
  56   26   59 1
  57   27   28 ar
  58   27   32 1
  59   28   29 ar
  60   28   31 1
  61   29   30 ar
  62   29   60 1
  63   30   61 1

#	End of record

