#	Name: ASD00440003
#	Creating user name:	WinNT
#	Creation time:	15. 06. 2019 18:35

#	Modifying user name:	WinNT
#	Modification time:	15. 06. 2019 18:35

#	Program:	/corina/corina34_cracker 3.40 0067  02.08.2006

@<TRIPOS>MOLECULE
ASD00440003
  66   70    0    0    0
SMALL
NO_CHARGES


@<TRIPOS>ATOM
   1 S1            -0.0172     1.4168     0.0098 S.o2    
   2 O2             0.0021    -0.0041     0.0020 O.2     
   3 O3             1.1617     2.2101     0.0028 O.2     
   4 O4            -0.8288     1.8423    -1.2054 O.3     
   5 N5            -0.8748     1.8654     1.3536 N.am    
   6 C6            -0.7927     3.2469    -1.4656 C.3     
   7 O7            -3.0330     3.2951    -2.4371 O.3     
   8 C8            -1.6380     3.5584    -2.7023 C.3     
   9 C9            -1.5763     5.0668    -3.0299 C.3     
  10 C10           -3.0037     5.4041    -3.5157 C.3     
  11 C11           -3.7589     4.0596    -3.4242 C.3     
  12 O12           -2.9757     5.8718    -4.8658 O.3     
  13 O13           -0.6231     5.3158    -4.0650 O.3     
  14 N14           -6.8695     4.4933    -1.6721 N.2     
  15 C15           -5.5895     4.2593    -1.6989 C.2     
  16 N16           -5.1394     4.2789    -2.9855 N.pl3   
  17 C17           -6.2161     4.5420    -3.7940 C.ar    
  18 N18           -6.3949     4.6791    -5.1037 N.ar    
  19 C19           -7.5887     4.9382    -5.5944 C.ar    
  20 N20           -8.6556     5.0743    -4.8284 N.ar    
  21 C21           -8.5743     4.9543    -3.5073 C.ar    
  22 C22           -7.3208     4.6774    -2.9361 C.ar    
  23 N23           -9.6980     5.0992    -2.7127 N.pl3   
  24 C24           -2.0691     1.2967     1.6117 C.2     
  25 C25           -2.8495     1.7050     2.8346 C.3     
  26 C26           -4.1583     0.9146     2.8917 C.3     
  27 C27           -4.9506     1.3291     4.1332 C.3     
  28 C28           -6.2594     0.5388     4.1903 C.3     
  29 C29           -8.4420    -2.1091     5.7507 C.2     
  30 N30           -8.7513    -1.6627     6.9756 N.am    
  31 C31           -8.7435    -0.1914     6.9666 C.3     
  32 C32           -8.3756     0.1691     5.5221 C.3     
  33 N33           -8.2123    -1.1346     4.8601 N.am    
  34 C34           -7.7014     0.3167     7.9821 C.3     
  35 C35           -7.0517     0.9533     5.4318 C.3     
  36 S36           -6.1740     0.4438     6.9656 S.3     
  37 O37           -8.3711    -3.2909     5.4738 O.2     
  38 H38           -9.1847     0.7308     5.0553 H       
  39 H39           -9.7339     0.1927     7.2110 H       
  40 O40           -2.5157     0.4563     0.8599 O.2     
  41 H41           -0.5175     2.5375     1.9549 H       
  42 H42           -1.1928     3.7859    -0.6069 H       
  43 H43            0.2372     3.5574    -1.6419 H       
  44 H44           -1.2962     2.9708    -3.5544 H       
  45 H45           -1.3309     5.6418    -2.1370 H       
  46 H46           -3.4640     6.1459    -2.8631 H       
  47 H47           -3.7425     3.5488    -4.3870 H       
  48 H48           -2.4629     6.6820    -4.9908 H       
  49 H49           -0.5436     6.2477    -4.3105 H       
  50 H50           -4.9747     4.0769    -0.8300 H       
  51 H51           -7.6995     5.0436    -6.6635 H       
  52 H52          -10.5578     5.2906    -3.1188 H       
  53 H53           -9.6258     5.0093    -1.7495 H       
  54 H54           -2.2603     1.4972     3.7277 H       
  55 H55           -3.0707     2.7711     2.7852 H       
  56 H56           -4.7475     1.1224     1.9985 H       
  57 H57           -3.9370    -0.1515     2.9411 H       
  58 H58           -4.3614     1.1213     5.0264 H       
  59 H59           -5.1718     2.3953     4.0838 H       
  60 H60           -6.8486     0.7466     3.2971 H       
  61 H61           -6.0382    -0.5274     4.2397 H       
  62 H62           -8.9485    -2.2199     7.7447 H       
  63 H63           -7.9761    -1.2674     3.9287 H       
  64 H64           -7.9874     1.2930     8.3735 H       
  65 H65           -7.5684    -0.4013     8.7913 H       
  66 H66           -7.2380     2.0273     5.4318 H       
@<TRIPOS>BOND
   1    1    2 2
   2    1    3 2
   3    1    4 1
   4    1    5 am
   5    4    6 1
   6    5   24 am
   7    5   41 1
   8    6    8 1
   9    6   42 1
  10    6   43 1
  11    7    8 1
  12    7   11 1
  13    8    9 1
  14    8   44 1
  15    9   10 1
  16    9   13 1
  17    9   45 1
  18   10   11 1
  19   10   12 1
  20   10   46 1
  21   11   16 1
  22   11   47 1
  23   12   48 1
  24   13   49 1
  25   14   15 2
  26   14   22 1
  27   15   16 1
  28   15   50 1
  29   16   17 1
  30   17   18 ar
  31   17   22 ar
  32   18   19 ar
  33   19   20 ar
  34   19   51 1
  35   20   21 ar
  36   21   22 ar
  37   21   23 1
  38   23   52 1
  39   23   53 1
  40   24   25 1
  41   24   40 2
  42   25   26 1
  43   25   54 1
  44   25   55 1
  45   26   27 1
  46   26   56 1
  47   26   57 1
  48   27   28 1
  49   27   58 1
  50   27   59 1
  51   28   35 1
  52   28   60 1
  53   28   61 1
  54   29   30 am
  55   29   33 am
  56   29   37 2
  57   30   31 1
  58   30   62 1
  59   31   32 1
  60   31   34 1
  61   31   39 1
  62   32   33 1
  63   32   38 1
  64   32   35 1
  65   33   63 1
  66   34   36 1
  67   34   64 1
  68   34   65 1
  69   35   36 1
  70   35   66 1

#	End of record

