#	Name: ASD04590884
#	Creating user name:	WinNT
#	Creation time:	15. 06. 2019 20:51

#	Modifying user name:	WinNT
#	Modification time:	15. 06. 2019 20:51

#	Program:	/corina/corina34_cracker 3.40 0067  02.08.2006

@<TRIPOS>MOLECULE
ASD04590884
  63   68    0    0    0
SMALL
NO_CHARGES


@<TRIPOS>ATOM
   1 N1            -0.0171     1.3233    -0.0119 N.ar    
   2 C2             0.0017    -0.0035    -0.0051 C.ar    
   3 N3             1.1298    -0.6949    -0.0118 N.ar    
   4 C4             2.3050    -0.0727    -0.0262 C.ar    
   5 C5             2.3189     1.3367    -0.0341 C.ar    
   6 C6             1.1071     2.0203    -0.0261 C.ar    
   7 N7             3.6029    -0.5189    -0.0362 N.pl3   
   8 C8             4.4817     0.5514    -0.0506 C.ar    
   9 C9             3.7311     1.7389    -0.0499 C.ar    
  10 C10            5.8705     0.6466    -0.0645 C.ar    
  11 N11            6.4580     1.8276    -0.0762 N.ar    
  12 C12            5.7742     2.9591    -0.0759 C.ar    
  13 C13            4.4066     2.9601    -0.0632 C.ar    
  14 N14           -1.2020    -0.6888     0.0098 N.pl3   
  15 C15           -2.4019     0.0119     0.1303 C.ar    
  16 N16           -2.3784     1.3196     0.3309 N.ar    
  17 C17           -3.4885     2.0229     0.4509 C.ar    
  18 C18           -4.7291     1.4086     0.3703 C.ar    
  19 C19           -4.7935     0.0320     0.1596 C.ar    
  20 C20           -3.6094    -0.6709     0.0326 C.ar    
  21 N21           -5.9024     2.1614     0.4995 N.3     
  22 C22            4.0024    -1.9284    -0.0315 C.3     
  23 C23            3.4019    -2.6437     1.1963 C.3     
  24 C24            3.4389    -2.6400    -1.2740 C.3     
  25 C25            2.5156    -3.7630    -0.7578 C.3     
  26 C26            2.1027    -3.2939     0.6594 C.3     
  27 C27           -5.5956     3.5813     0.7146 C.3     
  28 C28           -6.8902     4.3474     0.9957 C.3     
  29 C29           -7.8414     4.1860    -0.1933 C.3     
  30 C30           -8.1064     2.6960    -0.4263 C.3     
  31 C31           -6.7765     1.9777    -0.6661 C.3     
  32 N32           -9.1087     4.8707     0.0953 N.3     
  33 C33           -9.7920     5.2586    -1.1459 C.3     
  34 F34            6.6208    -0.4769    -0.0655 F       
  35 H35            1.0847     3.1001    -0.0322 H       
  36 H36            6.3051     3.8995    -0.0855 H       
  37 H37            3.8583     3.8906    -0.0633 H       
  38 H38           -1.2104    -1.6560    -0.0635 H       
  39 H39           -3.4302     3.0889     0.6140 H       
  40 H40           -5.7459    -0.4729     0.0929 H       
  41 H41           -3.6221    -1.7383    -0.1314 H       
  42 H42            5.0893    -2.0081    -0.0164 H       
  43 H43            4.0864    -3.4075     1.5654 H       
  44 H44            3.1719    -1.9243     1.9823 H       
  45 H45            2.8682    -1.9367    -1.8804 H       
  46 H46            4.2523    -3.0659    -1.8614 H       
  47 H47            1.6389    -3.8605    -1.3980 H       
  48 H48            3.0570    -4.7076    -0.7043 H       
  49 H49            1.8115    -4.1429     1.2778 H       
  50 H50            1.2980    -2.5607     0.6044 H       
  51 H51           -4.9218     3.6824     1.5654 H       
  52 H52           -5.1186     3.9889    -0.1767 H       
  53 H53           -7.3607     3.9494     1.8947 H       
  54 H54           -6.6640     5.4038     1.1398 H       
  55 H55           -7.3872     4.6189    -1.0846 H       
  56 H56           -8.5960     2.2720     0.4504 H       
  57 H57           -8.7490     2.5726    -1.2980 H       
  58 H58           -6.2940     2.3929    -1.5510 H       
  59 H59           -6.9604     0.9142    -0.8182 H       
  60 H60           -9.7057     4.2980     0.6730 H       
  61 H61           -9.1531     5.9320    -1.7172 H       
  62 H62          -10.0029     4.3681    -1.7381 H       
  63 H63          -10.7271     5.7634    -0.9033 H       
@<TRIPOS>BOND
   1    1    2 ar
   2    1    6 ar
   3    2    3 ar
   4    2   14 1
   5    3    4 ar
   6    4    5 ar
   7    4    7 1
   8    5    6 ar
   9    5    9 1
  10    6   35 1
  11    7    8 1
  12    7   22 1
  13    8    9 ar
  14    8   10 ar
  15    9   13 ar
  16   10   11 ar
  17   10   34 1
  18   11   12 ar
  19   12   13 ar
  20   12   36 1
  21   13   37 1
  22   14   15 1
  23   14   38 1
  24   15   16 ar
  25   15   20 ar
  26   16   17 ar
  27   17   18 ar
  28   17   39 1
  29   18   19 ar
  30   18   21 1
  31   19   20 ar
  32   19   40 1
  33   20   41 1
  34   21   27 1
  35   21   31 1
  36   22   24 1
  37   22   23 1
  38   22   42 1
  39   23   26 1
  40   23   43 1
  41   23   44 1
  42   24   25 1
  43   24   45 1
  44   24   46 1
  45   25   26 1
  46   25   47 1
  47   25   48 1
  48   26   49 1
  49   26   50 1
  50   27   28 1
  51   27   51 1
  52   27   52 1
  53   28   29 1
  54   28   53 1
  55   28   54 1
  56   29   30 1
  57   29   32 1
  58   29   55 1
  59   30   31 1
  60   30   56 1
  61   30   57 1
  62   31   58 1
  63   31   59 1
  64   32   33 1
  65   32   60 1
  66   33   61 1
  67   33   62 1
  68   33   63 1

#	End of record

