#	Name: ASD01410092
#	Creating user name:	WinNT
#	Creation time:	15. 06. 2019 19:16

#	Modifying user name:	WinNT
#	Modification time:	15. 06. 2019 19:16

#	Program:	/corina/corina34_cracker 3.40 0067  02.08.2006

@<TRIPOS>MOLECULE
ASD01410092
  73   77    0    0    0
SMALL
NO_CHARGES


@<TRIPOS>ATOM
   1 C1            -0.0169     1.3986     0.0097 C.ar    
   2 C2             0.0021    -0.0041     0.0020 C.ar    
   3 C3            -1.1621    -0.7094     0.0098 C.ar    
   4 C4            -2.3912    -0.0347     0.0256 C.ar    
   5 C5            -2.4204     1.3751     0.0335 C.ar    
   6 C6            -1.2305     2.0850     0.0308 C.ar    
   7 C7            -3.7374    -0.4722     0.0366 C.2     
   8 C8            -4.5317     0.6283     0.0504 C.2     
   9 N9            -3.7465     1.7566     0.0487 N.pl3   
  10 C10           -6.0103     0.6156     0.0650 C.ar    
  11 C11           -6.7099     1.4583     0.9300 C.ar    
  12 C12           -8.0893     1.4419     0.9383 C.ar    
  13 C13           -8.7792     0.5924     0.0917 C.ar    
  14 C14           -8.0917    -0.2456    -0.7682 C.ar    
  15 C15           -6.7122    -0.2351    -0.7902 C.ar    
  16 C16           -4.2054    -1.9047     0.0331 C.3     
  17 C17            1.2513     2.1499     0.0017 C.2     
  18 O18            2.4258     1.4892    -0.0131 O.3     
  19 C19           -4.2368     3.1371     0.0614 C.3     
  20 C20           -4.3904     3.6025     1.4865 C.2     
  21 N21           -4.8314     4.8497     1.7443 N.am    
  22 O22            1.2377     3.3650     0.0083 O.2     
  23 O23           -4.1172     2.8547     2.4014 O.2     
  24 C24           -4.9807     5.3021     3.1296 C.3     
  25 C25           -3.6734     5.9425     3.6007 C.3     
  26 C26           -5.1614     5.7530     0.6391 C.3     
  27 C27           -3.4038     7.2108     2.7878 C.3     
  28 N28           -2.1601     7.8373     3.2538 N.3     
  29 C29           -2.2633     8.2390     4.6625 C.3     
  30 C30           -2.4989     7.0014     5.5313 C.3     
  31 C31           -3.7881     6.3072     5.0834 C.3     
  32 C32           -1.7965     8.9803     2.4057 C.3     
  33 C33           -3.6941    -2.6232    -1.2279 C.3     
  34 C34           -2.8067    -3.7878    -0.7422 C.3     
  35 C35           -3.3098    -4.0753     0.6942 C.3     
  36 C36           -3.6109    -2.6578     1.2410 C.3     
  37 H37            0.9465    -0.5277    -0.0105 H       
  38 H38           -1.1391    -1.7891     0.0034 H       
  39 H39           -1.2430     3.1649     0.0368 H       
  40 H40           -6.1725     2.1216     1.5916 H       
  41 H41           -8.6319     2.0932     1.6074 H       
  42 H42           -9.8591     0.5831     0.1024 H       
  43 H43           -8.6361    -0.9063    -1.4265 H       
  44 H44           -6.1767    -0.8894    -1.4621 H       
  45 H45           -5.2942    -1.9416     0.0682 H       
  46 H46            3.2308     2.0250    -0.0179 H       
  47 H47           -3.5251     3.7802    -0.4561 H       
  48 H48           -5.2023     3.1844    -0.4423 H       
  49 H49           -5.7858     6.0346     3.1878 H       
  50 H50           -5.2180     4.4500     3.7665 H       
  51 H51           -2.8525     5.2392     3.4607 H       
  52 H52           -6.2116     5.6330     0.3730 H       
  53 H53           -4.9796     6.7832     0.9452 H       
  54 H54           -4.5386     5.5148    -0.2232 H       
  55 H55           -3.3075     6.9527     1.7332 H       
  56 H56           -4.2320     7.9077     2.9168 H       
  57 H57           -1.3386     8.7276     4.9695 H       
  58 H58           -3.0968     8.9311     4.7826 H       
  59 H59           -1.6592     6.3150     5.4223 H       
  60 H60           -2.5910     7.3017     6.5751 H       
  61 H61           -4.6334     6.9798     5.2288 H       
  62 H62           -3.9370     5.4012     5.6709 H       
  63 H63           -2.5940     9.7227     2.4349 H       
  64 H64           -0.8719     9.4256     2.7730 H       
  65 H65           -1.6537     8.6406     1.3799 H       
  66 H66           -4.5347    -3.0095    -1.8043 H       
  67 H67           -3.1075    -1.9357    -1.8373 H       
  68 H68           -2.9446    -4.6630    -1.3771 H       
  69 H69           -1.7588    -3.4881    -0.7265 H       
  70 H70           -4.2156    -4.6813     0.6721 H       
  71 H71           -2.5334    -4.5606     1.2855 H       
  72 H72           -2.6929    -2.1756     1.5770 H       
  73 H73           -4.3357    -2.7084     2.0535 H       
@<TRIPOS>BOND
   1    1    2 ar
   2    1   17 1
   3    1    6 ar
   4    2    3 ar
   5    2   37 1
   6    3    4 ar
   7    3   38 1
   8    4    5 ar
   9    4    7 1
  10    5    6 ar
  11    5    9 1
  12    6   39 1
  13    7    8 2
  14    7   16 1
  15    8    9 1
  16    8   10 1
  17    9   19 1
  18   10   11 ar
  19   10   15 ar
  20   11   12 ar
  21   11   40 1
  22   12   13 ar
  23   12   41 1
  24   13   14 ar
  25   13   42 1
  26   14   15 ar
  27   14   43 1
  28   15   44 1
  29   16   33 1
  30   16   36 1
  31   16   45 1
  32   17   18 1
  33   17   22 2
  34   18   46 1
  35   19   20 1
  36   19   47 1
  37   19   48 1
  38   20   21 am
  39   20   23 2
  40   21   24 1
  41   21   26 1
  42   24   25 1
  43   24   49 1
  44   24   50 1
  45   25   27 1
  46   25   31 1
  47   25   51 1
  48   26   52 1
  49   26   53 1
  50   26   54 1
  51   27   28 1
  52   27   55 1
  53   27   56 1
  54   28   29 1
  55   28   32 1
  56   29   30 1
  57   29   57 1
  58   29   58 1
  59   30   31 1
  60   30   59 1
  61   30   60 1
  62   31   61 1
  63   31   62 1
  64   32   63 1
  65   32   64 1
  66   32   65 1
  67   33   34 1
  68   33   66 1
  69   33   67 1
  70   34   35 1
  71   34   68 1
  72   34   69 1
  73   35   36 1
  74   35   70 1
  75   35   71 1
  76   36   72 1
  77   36   73 1

#	End of record

