#	Name: ASD01880211
#	Creating user name:	WinNT
#	Creation time:	15. 06. 2019 19:40

#	Modifying user name:	WinNT
#	Modification time:	15. 06. 2019 19:40

#	Program:	/corina/corina34_cracker 3.40 0067  02.08.2006

@<TRIPOS>MOLECULE
ASD01880211
  50   52    0    0    0
SMALL
NO_CHARGES


@<TRIPOS>ATOM
   1 C1            -0.0184     1.5028     0.0103 C.3     
   2 C2             0.0021    -0.0041     0.0020 C.ar    
   3 C3             0.0229    -0.7006     1.1962 C.ar    
   4 C4             0.0416    -2.0819     1.1913 C.ar    
   5 C5             0.0396    -2.7702    -0.0132 C.ar    
   6 C6             0.0187    -2.0690    -1.2101 C.ar    
   7 C7            -0.0057    -0.6878    -1.1997 C.ar    
   8 O8             0.0585    -4.1290    -0.0207 O.3     
   9 C9             0.0551    -4.7709    -1.2974 C.3     
  10 N10            1.3560     2.0099    -0.0001 N.am    
  11 C11            2.1471     2.3124    -1.2027 C.3     
  12 C12            3.4948     2.8051    -0.6411 C.3     
  13 O13            3.3236     2.7294     0.8038 O.3     
  14 C14            2.0955     2.2792     1.0845 C.2     
  15 C15            4.6325     1.8884    -1.0952 C.3     
  16 O16            1.6905     2.1211     2.2191 O.2     
  17 C17            0.0781    -6.2886    -1.1053 C.3     
  18 C18            0.0745    -6.9758    -2.4723 C.3     
  19 C19            0.2231    -8.4869    -2.2839 C.3     
  20 C20            0.2195    -9.1741    -3.6508 C.3     
  21 C21           -1.0991    -8.8768    -4.3676 C.3     
  22 C22           -1.2478    -7.3657    -4.5560 C.3     
  23 C23           -1.2441    -6.6785    -3.1891 C.3     
  24 H24           -0.5455     1.8639    -0.8728 H       
  25 H25           -0.5286     1.8543     0.9071 H       
  26 H26            0.0248    -0.1643     2.1337 H       
  27 H27            0.0582    -2.6255     2.1244 H       
  28 H28            0.0171    -2.6025    -2.1491 H       
  29 H29           -0.0220    -0.1414    -2.1312 H       
  30 H30           -0.8443    -4.4875    -1.8442 H       
  31 H31            0.9354    -4.4626    -1.8614 H       
  32 H32            2.2883     1.4143    -1.8041 H       
  33 H33            1.6675     3.0958    -1.7895 H       
  34 H34            3.6846     3.8330    -0.9500 H       
  35 H35            4.6832     1.8842    -2.1840 H       
  36 H36            5.5763     2.2520    -0.6889 H       
  37 H37            4.4485     0.8758    -0.7361 H       
  38 H38            0.9775    -6.5720    -0.5585 H       
  39 H39           -0.8023    -6.5968    -0.5413 H       
  40 H40            0.9054    -6.6007    -3.0697 H       
  41 H41            1.1625    -8.6987    -1.7732 H       
  42 H42           -0.6078    -8.8620    -1.6864 H       
  43 H43            1.0504    -8.7990    -4.2483 H       
  44 H44            0.3254   -10.2506    -3.5166 H       
  45 H45           -1.1017    -9.3664    -5.3415 H       
  46 H46           -1.9300    -9.2519    -3.7702 H       
  47 H47           -0.4168    -6.9906    -5.1535 H       
  48 H48           -2.1872    -7.1539    -5.0667 H       
  49 H49           -2.0751    -7.0536    -2.5916 H       
  50 H50           -1.3500    -5.6020    -3.3233 H       
@<TRIPOS>BOND
   1    1    2 1
   2    1   10 1
   3    1   24 1
   4    1   25 1
   5    2    3 ar
   6    2    7 ar
   7    3    4 ar
   8    3   26 1
   9    4    5 ar
  10    4   27 1
  11    5    6 ar
  12    5    8 1
  13    6    7 ar
  14    6   28 1
  15    7   29 1
  16    8    9 1
  17    9   17 1
  18    9   30 1
  19    9   31 1
  20   10   11 1
  21   10   14 am
  22   11   12 1
  23   11   32 1
  24   11   33 1
  25   12   13 1
  26   12   15 1
  27   12   34 1
  28   13   14 1
  29   14   16 2
  30   15   35 1
  31   15   36 1
  32   15   37 1
  33   17   18 1
  34   17   38 1
  35   17   39 1
  36   18   19 1
  37   18   23 1
  38   18   40 1
  39   19   20 1
  40   19   41 1
  41   19   42 1
  42   20   21 1
  43   20   43 1
  44   20   44 1
  45   21   22 1
  46   21   45 1
  47   21   46 1
  48   22   23 1
  49   22   47 1
  50   22   48 1
  51   23   49 1
  52   23   50 1

#	End of record

