#	Name: ASD00450046
#	Creating user name:	WinNT
#	Creation time:	15. 06. 2019 18:36

#	Modifying user name:	WinNT
#	Modification time:	15. 06. 2019 18:36

#	Program:	/corina/corina34_cracker 3.40 0067  02.08.2006

@<TRIPOS>MOLECULE
ASD00450046
  49   51    0    0    0
SMALL
NO_CHARGES


@<TRIPOS>ATOM
   1 C1            -0.1965     1.4554     0.2885 C.ar    
   2 C2            -0.3561     0.0613     0.3155 C.ar    
   3 C3             0.7505    -0.7549     0.4752 C.ar    
   4 C4             2.0137    -0.2008     0.6085 C.ar    
   5 C5             2.1837     1.1731     0.5839 C.ar    
   6 C6             1.0885     2.0086     0.4244 C.ar    
   7 C7            -1.3645     2.3309     0.1133 C.2     
   8 O8            -1.9782     2.7282     1.0856 O.2     
   9 N9            -1.7554     2.6933    -1.1246 N.am    
  10 N10            1.2607     3.3870     0.3991 N.pl3   
  11 C11            2.3407     3.9695     1.0710 C.ar    
  12 C12            2.7575     5.2542     0.7386 C.ar    
  13 C13            2.9953     3.2688     2.0751 C.ar    
  14 C14            4.0611     3.8465     2.7373 C.ar    
  15 C15            4.4774     5.1223     2.4017 C.ar    
  16 C16            3.8251     5.8265     1.4056 C.ar    
  17 F17            3.0867    -1.0068     0.7639 F       
  18 F18            2.1206     5.9416    -0.2345 F       
  19 I19            6.0940     5.9933     3.4102 I       
  20 O20           -1.5911    -0.4846     0.1858 O.3     
  21 C21           -1.7129    -1.8297     0.3356 C.ar    
  22 C22           -1.6995    -2.3904     1.6035 C.ar    
  23 C23           -1.8241    -3.7646     1.7529 C.ar    
  24 C24           -1.8565    -2.6425    -0.7802 C.ar    
  25 C25           -1.9810    -4.0107    -0.6295 C.ar    
  26 N26           -1.8116    -4.3333     3.0285 N.am    
  27 C27           -1.9619    -4.5739     0.6315 C.ar    
  28 S28           -2.9226    -5.4943     3.4284 S.o2    
  29 N29           -2.6202    -6.8122     2.4723 N.am    
  30 O30           -2.6281    -5.8894     4.7612 O.2     
  31 O31           -4.1902    -4.9913     3.0290 O.2     
  32 C32           -1.3608    -7.5470     2.6148 C.3     
  33 H33            0.6289    -1.8279     0.4965 H       
  34 H34            3.1722     1.5952     0.6893 H       
  35 H35           -1.2660     2.3765    -1.8999 H       
  36 H36           -2.5260     3.2709    -1.2402 H       
  37 H37            0.6321     3.9455    -0.0845 H       
  38 H38            2.6712     2.2728     2.3386 H       
  39 H39            4.5699     3.3014     3.5186 H       
  40 H40            4.1499     6.8240     1.1486 H       
  41 H41           -1.5920    -1.7591     2.4732 H       
  42 H42           -1.8714    -2.2052    -1.7676 H       
  43 H43           -2.0930    -4.6408    -1.4995 H       
  44 H44           -1.1521    -4.0482     3.6801 H       
  45 H45           -2.0590    -5.6433     0.7465 H       
  46 H46           -3.2769    -7.0976     1.8179 H       
  47 H47           -0.5247    -6.8776     2.4126 H       
  48 H48           -1.2790    -7.9341     3.6304 H       
  49 H49           -1.3418    -8.3760     1.9073 H       
@<TRIPOS>BOND
   1    1    2 ar
   2    1    6 ar
   3    1    7 1
   4    2    3 ar
   5    2   20 1
   6    3    4 ar
   7    3   33 1
   8    4    5 ar
   9    4   17 1
  10    5    6 ar
  11    5   34 1
  12    6   10 1
  13    7    8 2
  14    7    9 am
  15    9   35 1
  16    9   36 1
  17   10   11 1
  18   10   37 1
  19   11   13 ar
  20   11   12 ar
  21   12   16 ar
  22   12   18 1
  23   13   14 ar
  24   13   38 1
  25   14   15 ar
  26   14   39 1
  27   15   16 ar
  28   15   19 1
  29   16   40 1
  30   20   21 1
  31   21   22 ar
  32   21   24 ar
  33   22   23 ar
  34   22   41 1
  35   23   27 ar
  36   23   26 1
  37   24   25 ar
  38   24   42 1
  39   25   27 ar
  40   25   43 1
  41   26   28 am
  42   26   44 1
  43   27   45 1
  44   28   29 am
  45   28   30 2
  46   28   31 2
  47   29   32 1
  48   29   46 1
  49   32   47 1
  50   32   48 1
  51   32   49 1

#	End of record

