#	Name: ASD04560160
#	Creating user name:	WinNT
#	Creation time:	15. 06. 2019 20:49

#	Modifying user name:	WinNT
#	Modification time:	15. 06. 2019 20:49

#	Program:	/corina/corina34_cracker 3.40 0067  02.08.2006

@<TRIPOS>MOLECULE
ASD04560160
  50   52    0    0    0
SMALL
NO_CHARGES


@<TRIPOS>ATOM
   1 C1             0.0065     1.2918    -0.2911 C.ar    
   2 C2             0.1072    -0.0640    -0.4667 C.ar    
   3 C3             1.2694    -0.6139    -1.0029 C.ar    
   4 C4             2.3323     0.2117    -1.3623 C.ar    
   5 C5             2.2375     1.5682    -1.1887 C.ar    
   6 C6             1.0719     2.1232    -0.6510 C.ar    
   7 C7             0.9666     3.5819    -0.4634 C.2     
   8 O8             1.9735     4.2608    -0.3976 O.2     
   9 N9            -0.2455     4.1629    -0.3648 N.am    
  10 C10           -0.3455     5.5280    -0.0725 C.ar    
  11 C11            0.7897     6.2505     0.2708 C.ar    
  12 C12           -1.6754     7.5102     0.1575 C.ar    
  13 C13           -1.5791     6.1630    -0.1309 C.ar    
  14 S14            1.3954    -2.3571    -1.2265 S.3     
  15 C15            0.6888     7.5976     0.5584 C.ar    
  16 C16           -0.5432     8.2276     0.5051 C.ar    
  17 F17           -0.6396     9.5454     0.7868 F       
  18 C18            3.0534    -2.5589    -1.9343 C.3     
  19 C19            3.3170    -4.0209    -2.1874 C.ar    
  20 C20            3.0723    -4.5668    -3.4462 C.ar    
  21 C21            3.8065    -4.8204    -1.1747 C.ar    
  22 C22            3.3189    -5.9199    -3.6734 C.ar    
  23 C23            3.8033    -6.7111    -2.6524 C.ar    
  24 C24           -1.4583     3.3656    -0.5636 C.3     
  25 C25            4.0494    -6.1627    -1.4058 C.ar    
  26 B26            2.5205    -3.6612    -4.6039 Du      
  27 O27            2.9105    -3.9092    -5.9466 O.3     
  28 O28            1.6316    -2.5940    -4.3083 O.3     
  29 C29           -2.1038     3.0919     0.7704 C.2     
  30 O30           -1.6021     3.5189     1.7832 O.2     
  31 O31           -3.2360     2.3736     0.8334 O.3     
  32 H32           -0.8965     1.7180     0.1205 H       
  33 H33           -0.7151    -0.7066    -0.1886 H       
  34 H34            3.2321    -0.2174    -1.7778 H       
  35 H35            3.0622     2.2077    -1.4668 H       
  36 H36            1.7506     5.7594     0.3131 H       
  37 H37           -2.6346     8.0045     0.1121 H       
  38 H38           -2.4624     5.6039    -0.4020 H       
  39 H39            1.5714     8.1599     0.8254 H       
  40 H40            3.1165    -2.0103    -2.8741 H       
  41 H41            3.7959    -2.1712    -1.2368 H       
  42 H42            4.0007    -4.3975    -0.2002 H       
  43 H43            3.1307    -6.3481    -4.6469 H       
  44 H44            3.9946    -7.7595    -2.8273 H       
  45 H45           -2.1541     3.9147    -1.1980 H       
  46 H46           -1.1981     2.4214    -1.0419 H       
  47 H47            4.4286    -6.7857    -0.6093 H       
  48 H48            2.5199    -3.3004    -6.5884 H       
  49 H49            1.3461    -2.0933    -5.0848 H       
  50 H50           -3.6128     2.2241     1.7113 H       
@<TRIPOS>BOND
   1    1    2 ar
   2    1    6 ar
   3    1   32 1
   4    2    3 ar
   5    2   33 1
   6    3    4 ar
   7    3   14 1
   8    4    5 ar
   9    4   34 1
  10    5    6 ar
  11    5   35 1
  12    6    7 1
  13    7    8 2
  14    7    9 am
  15    9   10 1
  16    9   24 1
  17   10   11 ar
  18   10   13 ar
  19   11   15 ar
  20   11   36 1
  21   12   13 ar
  22   12   16 ar
  23   12   37 1
  24   13   38 1
  25   14   18 1
  26   15   16 ar
  27   15   39 1
  28   16   17 1
  29   18   19 1
  30   18   40 1
  31   18   41 1
  32   19   20 ar
  33   19   21 ar
  34   20   26 1
  35   20   22 ar
  36   21   25 ar
  37   21   42 1
  38   22   23 ar
  39   22   43 1
  40   23   25 ar
  41   23   44 1
  42   24   29 1
  43   24   45 1
  44   24   46 1
  45   25   47 1
  46   26   27 1
  47   26   28 1
  48   27   48 1
  49   28   49 1
  50   29   30 2
  51   29   31 1
  52   31   50 1

#	End of record

