#	Name: ASD07930056
#	Creating user name:	WinNT
#	Creation time:	15. 06. 2019 21:11

#	Modifying user name:	WinNT
#	Modification time:	15. 06. 2019 21:11

#	Program:	/corina/corina34_cracker 3.40 0067  02.08.2006

@<TRIPOS>MOLECULE
ASD07930056
  51   53    0    0    0
SMALL
NO_CHARGES


@<TRIPOS>ATOM
   1 C1            -0.2487     1.3479     0.1722 C.ar    
   2 C2             1.0725     2.0583     0.0282 C.3     
   3 C3             1.9765     1.7168     1.2170 C.3     
   4 C4             1.5168     2.4568     2.4422 C.2     
   5 N5             0.7723     3.5701     2.3736 N.am    
   6 C6             0.3363     4.0631     1.1689 C.2     
   7 N7             0.8562     3.5163     0.0232 N.pl3   
   8 C8             1.7496     1.6316    -1.2758 C.3     
   9 N9            -0.5600     5.0373     1.1140 N.2     
  10 O10            1.8305     2.0310     3.5331 O.2     
  11 C11            0.4168     4.2736     3.6085 C.3     
  12 C12           -0.2894    -0.0354     0.2161 C.ar    
  13 C13           -1.5032    -0.6878     0.3484 C.ar    
  14 C14           -2.6748     0.0437     0.4367 C.ar    
  15 C15           -2.6316     1.4273     0.3927 C.ar    
  16 C16           -1.4189     2.0776     0.2663 C.ar    
  17 C17            3.3949     2.1125     0.8966 C.ar    
  18 C18            4.3935     1.1567     0.8859 C.ar    
  19 C19            5.6945     1.5197     0.5920 C.ar    
  20 C20            5.9969     2.8384     0.3084 C.ar    
  21 C21            4.9982     3.7940     0.3182 C.ar    
  22 C22            3.6964     3.4303     0.6078 C.ar    
  23 F23            0.8550    -0.7482     0.1293 F       
  24 F24           -3.8600    -0.5917     0.5655 F       
  25 S25            7.7007     3.3139    -0.0752 Du      
  26 F26            7.1747     4.2023    -1.3105 F       
  27 F27            7.5645     4.5882     0.8993 F       
  28 F28            7.8369     2.0395    -1.0497 F       
  29 F29            9.2162     3.7368    -0.4164 F       
  30 F30            8.2268     2.4254     1.1601 F       
  31 C31           -1.2179     5.4003     2.2146 C.2     
  32 C32           -1.1419     6.8240     2.7028 C.3     
  33 F33           -1.9087     6.9600     3.8651 F       
  34 F34            0.1895     7.1510     2.9816 F       
  35 F35           -1.6360     7.6827     1.7151 F       
  36 O36           -1.8791     4.5832     2.8246 O.2     
  37 H37            1.9359     0.6440     1.4058 H       
  38 H38            1.0711     4.0617    -0.7496 H       
  39 H39            1.1082     1.8879    -2.1190 H       
  40 H40            2.7044     2.1479    -1.3754 H       
  41 H41            1.9186     0.5548    -1.2620 H       
  42 H42            1.1612     4.0599     4.3755 H       
  43 H43            0.3874     5.3468     3.4196 H       
  44 H44           -0.5626     3.9377     3.9490 H       
  45 H45           -1.5359    -1.7667     0.3823 H       
  46 H46           -3.5458     1.9983     0.4612 H       
  47 H47           -1.3862     3.1565     0.2319 H       
  48 H48            4.1572     0.1264     1.1075 H       
  49 H49            6.4748     0.7730     0.5844 H       
  50 H50            5.2345     4.8244     0.0970 H       
  51 H51            2.9161     4.1769     0.6155 H       
@<TRIPOS>BOND
   1    1   12 ar
   2    1    2 1
   3    1   16 ar
   4    2    8 1
   5    2    3 1
   6    2    7 1
   7    3    4 1
   8    3   17 1
   9    3   37 1
  10    4    5 am
  11    4   10 2
  12    5    6 1
  13    5   11 1
  14    6    7 1
  15    6    9 2
  16    7   38 1
  17    8   39 1
  18    8   40 1
  19    8   41 1
  20    9   31 1
  21   11   42 1
  22   11   43 1
  23   11   44 1
  24   12   13 ar
  25   12   23 1
  26   13   14 ar
  27   13   45 1
  28   14   15 ar
  29   14   24 1
  30   15   16 ar
  31   15   46 1
  32   16   47 1
  33   17   18 ar
  34   17   22 ar
  35   18   19 ar
  36   18   48 1
  37   19   20 ar
  38   19   49 1
  39   20   21 ar
  40   20   25 1
  41   21   22 ar
  42   21   50 1
  43   22   51 1
  44   25   26 1
  45   25   27 1
  46   25   28 1
  47   25   29 1
  48   25   30 1
  49   31   32 1
  50   31   36 2
  51   32   33 1
  52   32   34 1
  53   32   35 1

#	End of record

