#	Name: ASD01816079
#	Creating user name:	WinNT
#	Creation time:	15. 06. 2019 19:34

#	Modifying user name:	WinNT
#	Modification time:	15. 06. 2019 19:34

#	Program:	/corina/corina34_cracker 3.40 0067  02.08.2006

@<TRIPOS>MOLECULE
ASD01816079
  61   66    0    0    0
SMALL
NO_CHARGES


@<TRIPOS>ATOM
   1 C1             0.0884     1.4204    -0.0022 C.ar    
   2 C2             0.0897     0.0349    -0.0066 C.ar    
   3 C3             1.2772    -0.6670    -0.0226 C.ar    
   4 C4             2.4890     0.0146    -0.0345 C.ar    
   5 C5             2.4843     1.4194    -0.0305 C.ar    
   6 C6             1.2803     2.1158    -0.0143 C.ar    
   7 N7             3.6841    -0.6837    -0.0496 N.pl3   
   8 C8             4.8835    -0.0802    -0.0611 C.2     
   9 C9             5.0037     1.2872    -0.0586 C.2     
  10 C10            3.7812     2.1226    -0.0433 C.2     
  11 C11            6.1129     2.2359    -0.0677 C.2     
  12 N12            5.5559     3.4662    -0.0583 N.am    
  13 N13            4.1623     3.3677    -0.0438 N.2     
  14 O14            7.3040     1.9708    -0.0804 O.2     
  15 C15            3.6382    -2.1480    -0.0527 C.3     
  16 C16            3.6065    -2.6466    -1.4745 C.ar    
  17 C17            4.7796    -2.7153    -2.2082 C.ar    
  18 C18            4.7550    -3.1721    -3.5129 C.ar    
  19 C19            3.5477    -3.5631    -4.0880 C.ar    
  20 C20            2.3711    -3.4914    -3.3439 C.ar    
  21 C21            2.4072    -3.0393    -2.0406 C.ar    
  22 F22            5.9488    -2.3350    -1.6483 F       
  23 C23            6.2730     4.6694    -0.0624 C.ar    
  24 C24            6.0474     5.6187     0.9285 C.ar    
  25 C25            7.2150     4.9147    -1.0525 C.ar    
  26 C26            7.9206     6.1021    -1.0541 C.ar    
  27 C27            7.6906     7.0472    -0.0710 C.ar    
  28 C28            6.7578     6.8054     0.9206 C.ar    
  29 F29            5.1356     5.3824     1.8970 F       
  30 C30            3.5145    -4.0536    -5.4872 C.ar    
  31 C31            2.8673    -5.2553    -5.7957 C.ar    
  32 C32            2.8412    -5.7056    -7.1077 C.ar    
  33 C33            3.4526    -4.9694    -8.1040 C.ar    
  34 C34            4.0937    -3.7807    -7.8011 C.ar    
  35 C35            4.1224    -3.3174    -6.5014 C.ar    
  36 N36            2.2502    -5.9990    -4.7864 N.am    
  37 C37            1.1249    -6.6916    -5.0518 C.2     
  38 O38            0.5914    -6.5894    -6.1362 O.2     
  39 C39            0.5296    -7.5932    -4.0012 C.3     
  40 H40           -0.8483     1.9579     0.0061 H       
  41 H41           -0.8480    -0.5007     0.0029 H       
  42 H42            1.2656    -1.7469    -0.0256 H       
  43 H43            1.2783     3.1958    -0.0112 H       
  44 H44            5.7771    -0.6866    -0.0723 H       
  45 H45            4.5220    -2.5403     0.4503 H       
  46 H46            2.7431    -2.4846     0.4703 H       
  47 H47            5.6694    -3.2253    -4.0850 H       
  48 H48            1.4328    -3.7932    -3.7856 H       
  49 H49            1.4957    -2.9841    -1.4640 H       
  50 H50            7.3960     4.1775    -1.8207 H       
  51 H51            8.6535     6.2926    -1.8241 H       
  52 H52            8.2444     7.9744    -0.0750 H       
  53 H53            6.5806     7.5456     1.6868 H       
  54 H54            2.3428    -6.6325    -7.3503 H       
  55 H55            3.4306    -5.3233    -9.1241 H       
  56 H56            4.5700    -3.2115    -8.5856 H       
  57 H57            4.6238    -2.3894    -6.2694 H       
  58 H58            2.6317    -6.0167    -3.8948 H       
  59 H59            1.1425    -7.5556    -3.1005 H       
  60 H60           -0.4814    -7.2599    -3.7669 H       
  61 H61            0.4972    -8.6161    -4.3762 H       
@<TRIPOS>BOND
   1    1    2 ar
   2    1    6 ar
   3    1   40 1
   4    2    3 ar
   5    2   41 1
   6    3    4 ar
   7    3   42 1
   8    4    5 ar
   9    4    7 1
  10    5    6 ar
  11    5   10 1
  12    6   43 1
  13    7    8 1
  14    7   15 1
  15    8    9 2
  16    8   44 1
  17    9   10 1
  18    9   11 1
  19   10   13 2
  20   11   12 am
  21   11   14 2
  22   12   13 1
  23   12   23 1
  24   15   16 1
  25   15   45 1
  26   15   46 1
  27   16   17 ar
  28   16   21 ar
  29   17   18 ar
  30   17   22 1
  31   18   19 ar
  32   18   47 1
  33   19   20 ar
  34   19   30 1
  35   20   21 ar
  36   20   48 1
  37   21   49 1
  38   23   24 ar
  39   23   25 ar
  40   24   29 1
  41   24   28 ar
  42   25   26 ar
  43   25   50 1
  44   26   27 ar
  45   26   51 1
  46   27   28 ar
  47   27   52 1
  48   28   53 1
  49   30   31 ar
  50   30   35 ar
  51   31   32 ar
  52   31   36 1
  53   32   33 ar
  54   32   54 1
  55   33   34 ar
  56   33   55 1
  57   34   35 ar
  58   34   56 1
  59   35   57 1
  60   36   37 am
  61   36   58 1
  62   37   38 2
  63   37   39 1
  64   39   59 1
  65   39   60 1
  66   39   61 1

#	End of record

