#	Name: ASD01913863
#	Creating user name:	WinNT
#	Creation time:	15. 06. 2019 20:02

#	Modifying user name:	WinNT
#	Modification time:	15. 06. 2019 20:02

#	Program:	/corina/corina34_cracker 3.40 0067  02.08.2006

@<TRIPOS>MOLECULE
ASD01913863
  43   45    0    0    0
SMALL
NO_CHARGES


@<TRIPOS>ATOM
   1 C1            -0.0176     1.4278     0.0039 C.ar    
   2 C2             0.0019    -0.0041    -0.0022 C.1     
   3 C3             0.0179    -1.1779    -0.0072 C.1     
   4 C4             0.0373    -2.6098    -0.0133 C.ar    
   5 C5            -1.1606    -3.3385     0.0313 C.ar    
   6 C6             0.1561    -5.3344    -0.0280 C.ar    
   7 N7             1.2696    -4.6187    -0.0751 N.ar    
   8 C8             1.2491    -3.3021    -0.0695 C.ar    
   9 C9            -1.0901    -4.7171     0.0234 C.ar    
  10 C10            1.1800     2.1463    -0.0407 C.ar    
  11 C11            1.1542     3.5255    -0.0345 C.ar    
  12 C12           -1.2347     2.1131     0.0486 C.ar    
  13 C13           -0.0536     4.1981     0.0157 C.ar    
  14 N14            0.2332    -6.7251    -0.0369 N.am    
  15 C15           -1.2454     3.4932     0.0542 C.ar    
  16 C16            0.3812    -7.3503     1.1316 C.2     
  17 C17            0.5262    -8.8393     1.2627 C.3     
  18 C18            0.0500    -9.5239    -0.0208 C.3     
  19 C19            0.7081    -8.8243    -1.2162 C.3     
  20 C20            0.1413    -7.4061    -1.3223 C.3     
  21 C21            0.4566   -10.9987     0.0007 C.3     
  22 C22           -1.4718    -9.4101    -0.1312 C.3     
  23 O23            0.4000    -6.6806     2.1426 O.2     
  24 Cl24          -2.7554     4.3474     0.1165 Cl      
  25 H25           -2.1144    -2.8334     0.0711 H       
  26 H26            2.1779    -2.7524    -0.1090 H       
  27 H27           -1.9921    -5.3101     0.0572 H       
  28 H28            2.1239     1.6229    -0.0796 H       
  29 H29            2.0793     4.0816    -0.0686 H       
  30 H30           -2.1643     1.5643     0.0783 H       
  31 H31           -0.0676     5.2780     0.0203 H       
  32 H32            1.5731    -9.0870     1.4382 H       
  33 H33           -0.0731    -9.1888     2.1034 H       
  34 H34            1.7868    -8.7807    -1.0659 H       
  35 H35            0.4857    -9.3752    -2.1301 H       
  36 H36           -0.9013    -7.4573    -1.6361 H       
  37 H37            0.7104    -6.8452    -2.0637 H       
  38 H38            0.0019   -11.4885     0.8618 H       
  39 H39            0.1159   -11.4830    -0.9145 H       
  40 H40            1.5417   -11.0755     0.0701 H       
  41 H41           -1.7566    -8.3582    -0.1554 H       
  42 H42           -1.8073    -9.8985    -1.0460 H       
  43 H43           -1.9356    -9.8923     0.7293 H       
@<TRIPOS>BOND
   1    1    2 1
   2    1   10 ar
   3    1   12 ar
   4    2    3 3
   5    3    4 1
   6    4    5 ar
   7    4    8 ar
   8    5    9 ar
   9    5   25 1
  10    6    7 ar
  11    6   14 1
  12    6    9 ar
  13    7    8 ar
  14    8   26 1
  15    9   27 1
  16   10   11 ar
  17   10   28 1
  18   11   13 ar
  19   11   29 1
  20   12   15 ar
  21   12   30 1
  22   13   15 ar
  23   13   31 1
  24   14   16 am
  25   14   20 1
  26   15   24 1
  27   16   17 1
  28   16   23 2
  29   17   18 1
  30   17   32 1
  31   17   33 1
  32   18   19 1
  33   18   21 1
  34   18   22 1
  35   19   20 1
  36   19   34 1
  37   19   35 1
  38   20   36 1
  39   20   37 1
  40   21   38 1
  41   21   39 1
  42   21   40 1
  43   22   41 1
  44   22   42 1
  45   22   43 1

#	End of record

