#	Name: ASD09420001
#	Creating user name:	WinNT
#	Creation time:	15. 06. 2019 21:22

#	Modifying user name:	WinNT
#	Modification time:	15. 06. 2019 21:22

#	Program:	/corina/corina34_cracker 3.40 0067  02.08.2006

@<TRIPOS>MOLECULE
ASD09420001
 102  104    0    0    0
SMALL
NO_CHARGES


@<TRIPOS>ATOM
   1 C1             0.2616     0.5568     0.4855 C.3     
   2 O2             0.1175    -0.8648     0.4704 O.3     
   3 P3            -1.3103    -1.6025     0.5660 P.3     
   4 O4            -1.0872    -3.1946     0.6524 O.3     
   5 P5            -2.0284    -4.4354     1.0606 P.3     
   6 O6            -1.1108    -5.7003     1.4482 O.3     
   7 C7            -1.6466    -6.9244     1.9545 C.3     
   8 C8            -0.5064    -7.9102     2.2173 C.3     
   9 C9            -1.0801    -9.2208     2.7595 C.3     
  10 C10            0.0258   -10.2358     2.8936 C.2     
  11 N11            0.0528   -11.3138     2.0852 N.am    
  12 C12            1.0595   -12.3582     2.2902 C.3     
  13 C13            0.8710   -13.4604     1.2459 C.3     
  14 C14            1.9066   -14.5346     1.4568 C.2     
  15 N15            1.9336   -15.6127     0.6484 N.am    
  16 C16            2.9403   -16.6570     0.8534 C.3     
  17 C17            2.7518   -17.7592    -0.1909 C.3     
  18 S18            3.9957   -19.0495     0.0624 S.3     
  19 C19            3.5700   -20.1247    -1.1999 C.2     
  20 C20            4.3505   -21.3981    -1.4004 C.3     
  21 C21            3.8478   -22.1120    -2.6568 C.3     
  22 C22            4.0215   -21.1945    -3.8687 C.3     
  23 C23            3.5263   -21.8977    -5.1062 C.2     
  24 O24            3.0802   -23.0178    -5.0269 O.2     
  25 O25            3.5808   -21.2798    -6.2965 O.3     
  26 O26           -2.0255    -1.1383     1.7757 O.2     
  27 O27           -2.8652    -4.0587     2.2218 O.2     
  28 O28            2.6398   -19.8615    -1.9332 O.2     
  29 O29            2.7158   -14.4291     2.3540 O.2     
  30 O30            0.8915   -10.0825     3.7291 O.2     
  31 C31            4.6518   -23.3962    -2.8698 C.3     
  32 C32            0.2430    -8.1830     0.9116 C.3     
  33 C33            0.4581    -7.3124     3.2437 C.3     
  34 O34            2.4650   -22.4364    -2.4992 O.3     
  35 O35           -2.0733    -9.7148     1.8586 O.3     
  36 O36           -2.9769    -4.8210    -0.1818 O.3     
  37 O37           -2.1834    -1.2531    -0.7408 O.3     
  38 O38            2.2640     0.5372    -0.9129 O.3     
  39 C39            1.7440     0.9203     0.3789 C.3     
  40 C40            1.9276     2.4530     0.4396 C.3     
  41 C41            3.0777     2.7329    -0.5535 C.3     
  42 C42            3.4529     1.3363    -1.0967 C.3     
  43 O43            2.2946     2.8615     1.7588 O.3     
  44 P44            1.4111     3.8795     2.6392 P.3     
  45 O45            0.0275     3.3653     2.7474 O.2     
  46 O46            2.0511     4.0113     4.1106 O.3     
  47 O47            1.3926     5.3250     1.9306 O.3     
  48 O48            4.1901     3.3229     0.1221 O.3     
  49 N49            3.5845     1.3900    -4.6902 N.2     
  50 C50            2.9431     1.2492    -3.5665 C.2     
  51 N51            3.7979     1.4177    -2.5181 N.pl3   
  52 C52            5.0405     1.6780    -3.0383 C.ar    
  53 N53            6.2412     1.9214    -2.5234 N.ar    
  54 C54            7.2757     2.1404    -3.3076 C.ar    
  55 N55            7.1812     2.1312    -4.6247 N.ar    
  56 C56            6.0214     1.8968    -5.2299 C.ar    
  57 C57            4.8879     1.6570    -4.4350 C.ar    
  58 N58            5.9321     1.8897    -6.6109 N.pl3   
  59 H59           -0.2792     0.9858    -0.3580 H       
  60 H60           -0.1436     0.9532     1.4165 H       
  61 H61           -2.1805    -6.7301     2.8848 H       
  62 H62           -2.3338    -7.3503     1.2234 H       
  63 H63           -1.5310    -9.0437     3.7359 H       
  64 H64           -0.5944   -11.3982     1.3676 H       
  65 H65            2.0557   -11.9276     2.1883 H       
  66 H66            0.9467   -12.7805     3.2887 H       
  67 H67           -0.1252   -13.8909     1.3479 H       
  68 H68            0.9838   -13.0380     0.2475 H       
  69 H69            1.2864   -15.6971    -0.0692 H       
  70 H70            3.9365   -16.2264     0.7515 H       
  71 H71            2.8276   -17.0794     1.8519 H       
  72 H72            1.7557   -18.1898    -0.0889 H       
  73 H73            2.8646   -17.3368    -1.1893 H       
  74 H74            5.4083   -21.1616    -1.5156 H       
  75 H75            4.2155   -22.0471    -0.5351 H       
  76 H76            3.4487   -20.2797    -3.7169 H       
  77 H77            5.0762   -20.9471    -3.9889 H       
  78 H78            3.2515   -21.7709    -7.0617 H       
  79 H79            4.4782   -24.0762    -2.0358 H       
  80 H80            4.3368   -23.8723    -3.7984 H       
  81 H81            5.7133   -23.1550    -2.9271 H       
  82 H82            0.6517    -7.2492     0.5254 H       
  83 H83            1.0554    -8.8852     1.0989 H       
  84 H84           -0.4441    -8.6088     0.1805 H       
  85 H85           -0.0806    -7.0978     4.1666 H       
  86 H86            1.2586    -8.0237     3.4472 H       
  87 H87            0.8835    -6.3900     2.8483 H       
  88 H88            1.8943   -21.6684    -2.3598 H       
  89 H89           -1.7419    -9.8951     0.9683 H       
  90 H90           -2.4949    -5.0789    -0.9795 H       
  91 H91           -1.7746    -1.5295    -1.5724 H       
  92 H92            2.3119     0.4383     1.1747 H       
  93 H93            1.0164     2.9596     0.1214 H       
  94 H94            2.7351     3.3780    -1.3626 H       
  95 H95            4.2829     0.9181    -0.5272 H       
  96 H96            1.5691     4.6104     4.6970 H       
  97 H97            2.2676     5.7232     1.8265 H       
  98 H98            4.9411     3.5197    -0.4544 H       
  99 H99            1.8891     1.0314    -3.4778 H       
 100 H100           8.2376     2.3351    -2.8569 H       
 101 H101           6.7218     2.0570    -7.1488 H       
 102 H102           5.0799     1.7174    -7.0410 H       
@<TRIPOS>BOND
   1    1    2 1
   2    1   39 1
   3    1   59 1
   4    1   60 1
   5    2    3 1
   6    3    4 1
   7    3   26 2
   8    3   37 1
   9    4    5 1
  10    5    6 1
  11    5   27 2
  12    5   36 1
  13    6    7 1
  14    7    8 1
  15    7   61 1
  16    7   62 1
  17    8    9 1
  18    8   32 1
  19    8   33 1
  20    9   10 1
  21    9   35 1
  22    9   63 1
  23   10   11 am
  24   10   30 2
  25   11   12 1
  26   11   64 1
  27   12   13 1
  28   12   65 1
  29   12   66 1
  30   13   14 1
  31   13   67 1
  32   13   68 1
  33   14   15 am
  34   14   29 2
  35   15   16 1
  36   15   69 1
  37   16   17 1
  38   16   70 1
  39   16   71 1
  40   17   18 1
  41   17   72 1
  42   17   73 1
  43   18   19 1
  44   19   20 1
  45   19   28 2
  46   20   21 1
  47   20   74 1
  48   20   75 1
  49   21   22 1
  50   21   31 1
  51   21   34 1
  52   22   23 1
  53   22   76 1
  54   22   77 1
  55   23   24 2
  56   23   25 1
  57   25   78 1
  58   31   79 1
  59   31   80 1
  60   31   81 1
  61   32   82 1
  62   32   83 1
  63   32   84 1
  64   33   85 1
  65   33   86 1
  66   33   87 1
  67   34   88 1
  68   35   89 1
  69   36   90 1
  70   37   91 1
  71   38   39 1
  72   38   42 1
  73   39   40 1
  74   39   92 1
  75   40   41 1
  76   40   43 1
  77   40   93 1
  78   41   42 1
  79   41   48 1
  80   41   94 1
  81   42   51 1
  82   42   95 1
  83   43   44 1
  84   44   45 2
  85   44   46 1
  86   44   47 1
  87   46   96 1
  88   47   97 1
  89   48   98 1
  90   49   50 2
  91   49   57 1
  92   50   51 1
  93   50   99 1
  94   51   52 1
  95   52   53 ar
  96   52   57 ar
  97   53   54 ar
  98   54   55 ar
  99   54  100 1
 100   55   56 ar
 101   56   57 ar
 102   56   58 1
 103   58  101 1
 104   58  102 1

#	End of record

