#	Name: ASD07930365
#	Creating user name:	WinNT
#	Creation time:	15. 06. 2019 21:12

#	Modifying user name:	WinNT
#	Modification time:	15. 06. 2019 21:12

#	Program:	/corina/corina34_cracker 3.40 0067  02.08.2006

@<TRIPOS>MOLECULE
ASD07930365
  52   53    0    0    0
SMALL
NO_CHARGES


@<TRIPOS>ATOM
   1 N1            -0.0057     1.4467     0.2174 N.pl3   
   2 C2             0.0021    -0.0041     0.0020 C.3     
   3 C3             0.8306    -0.6737     1.1077 C.3     
   4 S4             2.4899     0.0759     1.1072 S.o2    
   5 N5             2.1539     1.7080     1.1107 N.am    
   6 C6             1.1735     2.1400     0.2469 C.2     
   7 C7            -1.4106    -0.5271     0.0446 C.ar    
   8 C8            -2.1694    -0.3775     1.1934 C.ar    
   9 C9             2.8669     2.6374     1.9904 C.3     
  10 C10            0.6228    -0.3151    -1.3614 C.3     
  11 C11           -1.9494    -1.1501    -1.0638 C.ar    
  12 C12           -3.2516    -1.6319    -1.0240 C.ar    
  13 C13           -4.0086    -1.4859     0.1308 C.ar    
  14 C14           -3.4673    -0.8574     1.2355 C.ar    
  15 O15            3.1487    -0.1562     2.3447 O.2     
  16 O16            3.1459    -0.1516    -0.1326 O.2     
  17 N17           -3.7993    -2.2626    -2.1452 N.pl3   
  18 C18            4.0382     3.2626     1.2300 C.3     
  19 F19           -1.6422     0.2372     2.2747 F       
  20 N20            1.3652     3.1941    -0.5311 N.2     
  21 O21            0.5928     4.6707    -2.1566 O.3     
  22 C22           -0.4828     5.0437    -3.0202 C.3     
  23 C23           -1.7200     5.3712    -2.1818 C.3     
  24 C24           -0.0790     6.2739    -3.8355 C.3     
  25 C25           -0.8009     3.8856    -3.9681 C.3     
  26 C26            0.3974     3.5963    -1.3636 C.2     
  27 O27           -0.6591     2.9930    -1.4055 O.2     
  28 H28           -0.8469     1.9151     0.3350 H       
  29 H29            0.3538    -0.5110     2.0743 H       
  30 H30            0.9100    -1.7429     0.9114 H       
  31 H31            2.1857     3.4228     2.3178 H       
  32 H32            3.2442     2.0982     2.8593 H       
  33 H33            1.6453     0.0614    -1.3895 H       
  34 H34            0.6282    -1.3934    -1.5206 H       
  35 H35            0.0371     0.1650    -2.1453 H       
  36 H36           -1.3589    -1.2623    -1.9611 H       
  37 H37           -5.0214    -1.8595     0.1639 H       
  38 H38           -4.0558    -0.7436     2.1339 H       
  39 H39           -3.2699    -2.3640    -2.9517 H       
  40 H40           -4.7087    -2.5989    -2.1166 H       
  41 H41            3.6609     3.8018     0.3611 H       
  42 H42            4.5687     3.9541     1.8846 H       
  43 H43            4.7194     2.4772     0.9026 H       
  44 H44           -1.4934     6.1963    -1.5066 H       
  45 H45           -2.5405     5.6558    -2.8406 H       
  46 H46           -2.0077     4.4948    -1.6010 H       
  47 H47            0.8024     6.0406    -4.4328 H       
  48 H48           -0.8995     6.5584    -4.4943 H       
  49 H49            0.1476     7.0989    -3.1603 H       
  50 H50           -1.0886     3.0093    -3.3873 H       
  51 H51           -1.6214     4.1702    -4.6269 H       
  52 H52            0.0805     3.6523    -4.5654 H       
@<TRIPOS>BOND
   1    1    2 1
   2    1    6 1
   3    1   28 1
   4    2    3 1
   5    2    7 1
   6    2   10 1
   7    3    4 1
   8    3   29 1
   9    3   30 1
  10    4    5 am
  11    4   15 2
  12    4   16 2
  13    5    6 1
  14    5    9 1
  15    6   20 2
  16    7   11 ar
  17    7    8 ar
  18    8   19 1
  19    8   14 ar
  20    9   18 1
  21    9   31 1
  22    9   32 1
  23   10   33 1
  24   10   34 1
  25   10   35 1
  26   11   12 ar
  27   11   36 1
  28   12   13 ar
  29   12   17 1
  30   13   14 ar
  31   13   37 1
  32   14   38 1
  33   17   39 1
  34   17   40 1
  35   18   41 1
  36   18   42 1
  37   18   43 1
  38   20   26 1
  39   21   22 1
  40   21   26 1
  41   22   23 1
  42   22   24 1
  43   22   25 1
  44   23   44 1
  45   23   45 1
  46   23   46 1
  47   24   47 1
  48   24   48 1
  49   24   49 1
  50   25   50 1
  51   25   51 1
  52   25   52 1
  53   26   27 2

#	End of record

