#	Name: ASD02030700
#	Creating user name:	WinNT
#	Creation time:	15. 06. 2019 20:15

#	Modifying user name:	WinNT
#	Modification time:	15. 06. 2019 20:15

#	Program:	/corina/corina34_cracker 3.40 0067  02.08.2006

@<TRIPOS>MOLECULE
ASD02030700
  31   32    0    0    0
SMALL
NO_CHARGES


@<TRIPOS>ATOM
   1 N1            -0.0169     1.3957     0.0097 N.2     
   2 N2             0.0021    -0.0041     0.0020 N.am    
   3 C3             1.1646    -0.6797    -0.0123 C.2     
   4 N4             2.3448    -0.0325    -0.0200 N.am    
   5 C5             2.3757     1.3164    -0.0131 C.2     
   6 C6             1.1074     2.0610     0.0026 C.2     
   7 O7             1.1494    -1.8958    -0.0178 O.2     
   8 O8             3.4386     1.9089    -0.0192 O.2     
   9 C9            -1.2627    -0.7434     0.0101 C.3     
  10 C10           -1.6892    -1.0085     1.4554 C.3     
  11 C11           -3.0100    -1.7806     1.4638 C.3     
  12 C12           -3.4301    -2.0417     2.8873 C.ar    
  13 C13           -4.2269    -1.1280     3.5515 C.ar    
  14 C14           -4.6122    -1.3675     4.8573 C.ar    
  15 C15           -4.2012    -2.5210     5.4987 C.ar    
  16 C16           -3.4052    -3.4352     4.8342 C.ar    
  17 C17           -3.0234    -3.1977     3.5270 C.ar    
  18 O18            1.1051     3.4197     0.0094 O.3     
  19 H19            3.1737    -0.5362    -0.0303 H       
  20 H20           -2.0303    -0.1556    -0.4933 H       
  21 H21           -1.1322    -1.6923    -0.5101 H       
  22 H22           -0.9215    -1.5962     1.9587 H       
  23 H23           -1.8197    -0.0596     1.9756 H       
  24 H24           -3.7777    -1.1929     0.9604 H       
  25 H25           -2.8795    -2.7295     0.9436 H       
  26 H26           -4.5480    -0.2268     3.0504 H       
  27 H27           -5.2341    -0.6533     5.3765 H       
  28 H28           -4.5016    -2.7078     6.5191 H       
  29 H29           -3.0837    -4.3362     5.3355 H       
  30 H30           -2.4046    -3.9137     3.0066 H       
  31 H31            0.2211     3.8114     0.0197 H       
@<TRIPOS>BOND
   1    1    2 1
   2    1    6 2
   3    2    3 am
   4    2    9 1
   5    3    4 am
   6    3    7 2
   7    4    5 am
   8    4   19 1
   9    5    6 1
  10    5    8 2
  11    6   18 1
  12    9   10 1
  13    9   20 1
  14    9   21 1
  15   10   11 1
  16   10   22 1
  17   10   23 1
  18   11   12 1
  19   11   24 1
  20   11   25 1
  21   12   13 ar
  22   12   17 ar
  23   13   14 ar
  24   13   26 1
  25   14   15 ar
  26   14   27 1
  27   15   16 ar
  28   15   28 1
  29   16   17 ar
  30   16   29 1
  31   17   30 1
  32   18   31 1

#	End of record

