#	Name: ASD00840928
#	Creating user name:	WinNT
#	Creation time:	15. 06. 2019 18:40

#	Modifying user name:	WinNT
#	Modification time:	15. 06. 2019 18:40

#	Program:	/corina/corina34_cracker 3.40 0067  02.08.2006

@<TRIPOS>MOLECULE
ASD00840928
  97  102    0    0    0
SMALL
NO_CHARGES


@<TRIPOS>ATOM
   1 F1             6.0650    -1.9523    -2.0312 F       
   2 N2             1.0634     1.4586    -0.7543 N.ar    
   3 C3             1.3248     0.1666    -0.8608 C.ar    
   4 C4             1.2445    -0.6656     0.2487 C.ar    
   5 C5             0.8867    -0.1250     1.4712 C.ar    
   6 C6             0.6204     1.2358     1.5410 C.ar    
   7 C7             0.7198     2.0029     0.3976 C.ar    
   8 C8             1.5428    -2.1374     0.1225 C.3     
   9 C9             1.2605    -2.8495     1.4282 C.2     
  10 C10            0.7224    -2.7537    -1.0124 C.3     
  11 C11           -0.7396    -2.4630    -0.7906 C.2     
  12 N12           -1.6640    -2.9844    -1.6214 N.am    
  13 O13           -1.0844    -1.7598     0.1354 O.2     
  14 C14           -3.0813    -2.6214    -1.4868 C.3     
  15 C15           -3.9099    -3.9045    -1.3690 C.3     
  16 C16           -3.6047    -4.8152    -2.5605 C.3     
  17 C17           -2.1222    -5.1947    -2.5481 C.3     
  18 C18           -1.2726    -3.9219    -2.6828 C.3     
  19 N19           -4.4223    -6.0322    -2.4683 N.3     
  20 C20           -4.2442    -6.8776    -3.6570 C.3     
  21 C21           -5.0484    -8.1686    -3.4867 C.3     
  22 N22           -6.4661    -7.8368    -3.2876 N.3     
  23 C23           -6.6442    -6.9914    -2.0989 C.3     
  24 C24           -5.8400    -5.7004    -2.2691 C.3     
  25 C25           -7.2836    -9.0538    -3.1954 C.3     
  26 O26            0.1885    -2.9249     1.9906 O.2     
  27 N27            2.4205    -3.3828     1.8470 N.am    
  28 C28            3.0200    -2.3605    -0.1065 C.ar    
  29 C29            3.4728    -3.1143     0.9691 C.ar    
  30 C30            3.8806    -1.9712    -1.1083 C.ar    
  31 C31            5.2172    -2.3318    -1.0502 C.ar    
  32 C32            5.6813    -3.0840     0.0183 C.ar    
  33 C33            4.8173    -3.4744     1.0233 C.ar    
  34 F34            6.9841    -3.4366     0.0768 F       
  35 C35            2.2908    -5.9469     2.8384 C.ar    
  36 C36            1.0362    -6.3476     2.4021 C.ar    
  37 C37            3.3125    -6.8708     2.9499 C.ar    
  38 C38            3.0877    -8.1951     2.6270 C.ar    
  39 C39            1.8344    -8.6009     2.1901 C.ar    
  40 C40            0.8079    -7.6763     2.0778 C.ar    
  41 O41            1.6138    -9.9038     1.8731 O.3     
  42 O42            0.0317    -5.4387     2.2930 O.3     
  43 C43           -1.2337    -5.9218     1.8375 C.3     
  44 C44            2.7169   -10.8014     2.0130 C.3     
  45 C45           -8.6980    -8.6850    -2.7433 C.3     
  46 C46           -9.5495    -9.9526    -2.6472 C.3     
  47 S47            2.5837    -4.2573     3.2437 S.o2    
  48 O48            3.9517    -4.1656     3.6171 O.2     
  49 O49            1.5175    -3.8580     4.0940 O.2     
  50 O50            1.6741    -0.3513    -2.0652 O.3     
  51 C51            2.1657    -0.1914    -4.4260 C.3     
  52 C52            1.6309     0.5315    -3.1881 C.3     
  53 H53            0.8158    -0.7475     2.3509 H       
  54 H54            0.3381     1.6892     2.4797 H       
  55 H55            0.5140     3.0620     0.4466 H       
  56 H56            1.0380    -2.3246    -1.9634 H       
  57 H57            0.8797    -3.8321    -1.0303 H       
  58 H58           -3.2195    -2.0138    -0.5924 H       
  59 H59           -3.3998    -2.0601    -2.3652 H       
  60 H60           -3.6539    -4.4191    -0.4428 H       
  61 H61           -4.9706    -3.6535    -1.3651 H       
  62 H62           -3.8377    -4.2908    -3.4873 H       
  63 H63           -1.8831    -5.6972    -1.6109 H       
  64 H64           -1.9106    -5.8621    -3.3836 H       
  65 H65           -1.4448    -3.4692    -3.6593 H       
  66 H66           -0.2175    -4.1738    -2.5755 H       
  67 H67           -4.5965    -6.3433    -4.5393 H       
  68 H68           -3.1881    -7.1200    -3.7759 H       
  69 H69           -4.9410    -8.7844    -4.3797 H       
  70 H70           -4.6779    -8.7162    -2.6202 H       
  71 H71           -7.7003    -6.7490    -1.9799 H       
  72 H72           -6.2918    -7.5256    -1.2165 H       
  73 H73           -5.9474    -5.0846    -1.3762 H       
  74 H74           -6.2105    -5.1528    -3.1357 H       
  75 H75           -7.3285    -9.5362    -4.1718 H       
  76 H76           -6.8378    -9.7372    -2.4727 H       
  77 H77            3.5142    -1.3857    -1.9385 H       
  78 H78            5.1853    -4.0599     1.8529 H       
  79 H79            4.2885    -6.5569     3.2897 H       
  80 H80            3.8880    -8.9151     2.7143 H       
  81 H81           -0.1681    -7.9902     1.7384 H       
  82 H82           -1.9442    -5.0962     1.7961 H       
  83 H83           -1.1210    -6.3544     0.8435 H       
  84 H84           -1.6010    -6.6831     2.5257 H       
  85 H85            3.5332   -10.4771     1.3676 H       
  86 H86            3.0530   -10.8051     3.0498 H       
  87 H87            2.4059   -11.8065     1.7282 H       
  88 H88           -8.6532    -8.2026    -1.7669 H       
  89 H89           -9.1439    -8.0017    -3.4660 H       
  90 H90           -9.5944   -10.4350    -3.6236 H       
  91 H91           -9.1036   -10.6359    -1.9245 H       
  92 H92          -10.5571    -9.6898    -2.3251 H       
  93 H93            2.2147     0.5068    -5.2616 H       
  94 H94            3.1628    -0.5793    -4.2177 H       
  95 H95            1.5006    -1.0166    -4.6805 H       
  96 H96            0.6017     0.8433    -3.3658 H       
  97 H97            2.2462     1.4080    -2.9851 H       
@<TRIPOS>BOND
   1    1   31 1
   2    2    3 ar
   3    2    7 ar
   4    3    4 ar
   5    3   50 1
   6    4    5 ar
   7    4    8 1
   8    5    6 ar
   9    5   53 1
  10    6    7 ar
  11    6   54 1
  12    7   55 1
  13    8    9 1
  14    8   10 1
  15    8   28 1
  16    9   26 2
  17    9   27 am
  18   10   11 1
  19   10   56 1
  20   10   57 1
  21   11   12 am
  22   11   13 2
  23   12   14 1
  24   12   18 1
  25   14   15 1
  26   14   58 1
  27   14   59 1
  28   15   16 1
  29   15   60 1
  30   15   61 1
  31   16   17 1
  32   16   19 1
  33   16   62 1
  34   17   18 1
  35   17   63 1
  36   17   64 1
  37   18   65 1
  38   18   66 1
  39   19   20 1
  40   19   24 1
  41   20   21 1
  42   20   67 1
  43   20   68 1
  44   21   22 1
  45   21   69 1
  46   21   70 1
  47   22   23 1
  48   22   25 1
  49   23   24 1
  50   23   71 1
  51   23   72 1
  52   24   73 1
  53   24   74 1
  54   25   45 1
  55   25   75 1
  56   25   76 1
  57   27   47 am
  58   27   29 1
  59   28   29 ar
  60   28   30 ar
  61   29   33 ar
  62   30   31 ar
  63   30   77 1
  64   31   32 ar
  65   32   33 ar
  66   32   34 1
  67   33   78 1
  68   35   36 ar
  69   35   37 ar
  70   35   47 1
  71   36   42 1
  72   36   40 ar
  73   37   38 ar
  74   37   79 1
  75   38   39 ar
  76   38   80 1
  77   39   40 ar
  78   39   41 1
  79   40   81 1
  80   41   44 1
  81   42   43 1
  82   43   82 1
  83   43   83 1
  84   43   84 1
  85   44   85 1
  86   44   86 1
  87   44   87 1
  88   45   46 1
  89   45   88 1
  90   45   89 1
  91   46   90 1
  92   46   91 1
  93   46   92 1
  94   47   48 2
  95   47   49 2
  96   50   52 1
  97   51   52 1
  98   51   93 1
  99   51   94 1
 100   51   95 1
 101   52   96 1
 102   52   97 1

#	End of record

