#	Name: ASD01913008
#	Creating user name:	WinNT
#	Creation time:	15. 06. 2019 20:00

#	Modifying user name:	WinNT
#	Modification time:	15. 06. 2019 20:00

#	Program:	/corina/corina34_cracker 3.40 0067  02.08.2006

@<TRIPOS>MOLECULE
ASD01913008
  40   43    0    0    0
SMALL
NO_CHARGES


@<TRIPOS>ATOM
   1 C1            -0.5186     1.3800     0.5784 C.2     
   2 C2            -0.6743    -0.0369     0.7154 C.1     
   3 C3            -0.8018    -1.1986     0.8277 C.1     
   4 C4            -0.9575    -2.6155     0.9647 C.ar    
   5 C5            -2.2164    -3.2025     0.8067 C.ar    
   6 C6             0.1498    -3.4193     1.2513 C.ar    
   7 C7            -0.0079    -4.7831     1.3812 C.ar    
   8 C8            -1.2582    -5.3564     1.2282 C.ar    
   9 C9            -2.3582    -4.5677     0.9397 C.ar    
  10 N10            0.5999     2.0330     0.7034 N.2     
  11 C11            0.5727     3.3455     0.5472 C.2     
  12 C12           -0.6504     3.8420     0.2650 C.2     
  13 S13           -1.8086     2.5192     0.2061 S.3     
  14 C14            1.8080     4.2265     0.6805 C.3     
  15 C15            1.5462     5.5668    -0.0090 C.3     
  16 N16            0.2331     6.0768     0.4135 N.am    
  17 C17           -0.9598     5.3036     0.0290 C.3     
  18 C18            0.1251     7.2137     1.1292 C.2     
  19 O19           -0.9655     7.5878     1.5152 O.2     
  20 N20            1.2260     7.9360     1.4170 N.am    
  21 C21            1.5237     9.1485     2.1942 C.3     
  22 C22            2.7257     9.3814     1.2684 C.3     
  23 C23            2.6592     7.8549     1.0973 C.3     
  24 F24            2.4255    10.1062     0.1100 F       
  25 H25           -3.0757    -2.5882     0.5815 H       
  26 H26            1.1262    -2.9735     1.3702 H       
  27 H27            0.8465    -5.4055     1.6026 H       
  28 H28           -1.3754    -6.4251     1.3305 H       
  29 H29           -3.3308    -5.0222     0.8217 H       
  30 H30            2.0226     4.3956     1.7357 H       
  31 H31            2.6588     3.7345     0.2092 H       
  32 H32            2.3217     6.2792     0.2726 H       
  33 H33            1.5525     5.4279    -1.0901 H       
  34 H34           -1.1841     5.4688    -1.0248 H       
  35 H35           -1.8097     5.6056     0.6409 H       
  36 H36            0.7557     9.9174     2.1102 H       
  37 H37            1.8047     8.9438     3.2272 H       
  38 H38            3.6219     9.7332     1.7794 H       
  39 H39            3.2426     7.3092     1.8390 H       
  40 H40            2.8565     7.5233     0.0779 H       
@<TRIPOS>BOND
   1    1    2 1
   2    1   10 2
   3    1   13 1
   4    2    3 3
   5    3    4 1
   6    4    5 ar
   7    4    6 ar
   8    5    9 ar
   9    5   25 1
  10    6    7 ar
  11    6   26 1
  12    7    8 ar
  13    7   27 1
  14    8    9 ar
  15    8   28 1
  16    9   29 1
  17   10   11 1
  18   11   12 2
  19   11   14 1
  20   12   13 1
  21   12   17 1
  22   14   15 1
  23   14   30 1
  24   14   31 1
  25   15   16 1
  26   15   32 1
  27   15   33 1
  28   16   17 1
  29   16   18 am
  30   17   34 1
  31   17   35 1
  32   18   19 2
  33   18   20 am
  34   20   21 1
  35   20   23 1
  36   21   22 1
  37   21   36 1
  38   21   37 1
  39   22   23 1
  40   22   24 1
  41   22   38 1
  42   23   39 1
  43   23   40 1

#	End of record

