#	Name: ASD05170020
#	Creating user name:	WinNT
#	Creation time:	15. 06. 2019 20:57

#	Modifying user name:	WinNT
#	Modification time:	15. 06. 2019 20:57

#	Program:	/corina/corina34_cracker 3.40 0067  02.08.2006

@<TRIPOS>MOLECULE
ASD05170020
  45   48    0    0    0
SMALL
NO_CHARGES


@<TRIPOS>ATOM
   1 C1            -0.1485     1.6333    -0.0191 C.3     
   2 N2            -0.2165     0.1919    -0.2720 N.pl3   
   3 C3            -0.0927    -0.7535     0.8402 C.3     
   4 C4            -1.4585    -1.0438     1.4071 C.2     
   5 C5            -2.2783    -2.1286     1.0677 C.2     
   6 C6            -3.4031    -1.9742     1.8270 C.2     
   7 C7            -4.6286    -2.7803     1.9350 C.2     
   8 O8            -4.7176    -3.8832     1.4297 O.2     
   9 N9            -5.6529    -2.2270     2.6287 N.am    
  10 C10           -5.6234    -0.8291     3.0455 C.3     
  11 C11           -4.2453    -0.3948     3.5424 C.3     
  12 N12           -3.2237    -0.8386     2.5861 N.pl3   
  13 N13           -2.0878    -0.3284     2.3100 N.2     
  14 C14           -6.7640    -3.0140     2.9521 C.ar    
  15 C15           -7.9964    -2.7502     2.3688 C.ar    
  16 C16           -9.0915    -3.5284     2.6890 C.ar    
  17 C17           -8.9614    -4.5708     3.5913 C.ar    
  18 F18          -10.0341    -5.3305     3.9034 F       
  19 C19           -7.7334    -4.8358     4.1737 C.ar    
  20 C20           -6.6345    -4.0635     3.8523 C.ar    
  21 C21           -0.3995    -0.2814    -1.5748 C.ar    
  22 C22           -0.4698    -1.6474    -1.8150 C.ar    
  23 C23           -0.6506    -2.1127    -3.1028 C.ar    
  24 C24           -0.7613    -1.2184    -4.1541 C.ar    
  25 F25           -0.9376    -1.6757    -5.4130 F       
  26 C26           -0.6919     0.1440    -3.9169 C.ar    
  27 C27           -0.5170     0.6140    -2.6299 C.ar    
  28 H28            0.8869     1.9663    -0.0905 H       
  29 H29           -0.7516     2.1608    -0.7581 H       
  30 H30           -0.5303     1.8454     0.9796 H       
  31 H31            0.3561    -1.6798     0.4815 H       
  32 H32            0.5384    -0.3208     1.6165 H       
  33 H33           -2.0668    -2.9157     0.3591 H       
  34 H34           -5.9064    -0.2029     2.1994 H       
  35 H35           -6.3485    -0.6847     3.8465 H       
  36 H36           -4.2153     0.6913     3.6292 H       
  37 H37           -4.0514    -0.8439     4.5165 H       
  38 H38           -8.0984    -1.9369     1.6656 H       
  39 H39          -10.0501    -3.3236     2.2357 H       
  40 H40           -7.6340    -5.6495     4.8768 H       
  41 H41           -5.6759    -4.2731     4.3036 H       
  42 H42           -0.3828    -2.3454    -0.9954 H       
  43 H43           -0.7053    -3.1750    -3.2900 H       
  44 H44           -0.7789     0.8399    -4.7383 H       
  45 H45           -0.4674     1.6769    -2.4448 H       
@<TRIPOS>BOND
   1    1    2 1
   2    1   28 1
   3    1   29 1
   4    1   30 1
   5    2    3 1
   6    2   21 1
   7    3    4 1
   8    3   31 1
   9    3   32 1
  10    4   13 2
  11    4    5 1
  12    5    6 2
  13    5   33 1
  14    6   12 1
  15    6    7 1
  16    7    8 2
  17    7    9 am
  18    9   10 1
  19    9   14 1
  20   10   11 1
  21   10   34 1
  22   10   35 1
  23   11   12 1
  24   11   36 1
  25   11   37 1
  26   12   13 1
  27   14   20 ar
  28   14   15 ar
  29   15   16 ar
  30   15   38 1
  31   16   17 ar
  32   16   39 1
  33   17   18 1
  34   17   19 ar
  35   19   20 ar
  36   19   40 1
  37   20   41 1
  38   21   27 ar
  39   21   22 ar
  40   22   23 ar
  41   22   42 1
  42   23   24 ar
  43   23   43 1
  44   24   25 1
  45   24   26 ar
  46   26   27 ar
  47   26   44 1
  48   27   45 1

#	End of record

