#	Name: ASD09740576
#	Creating user name:	WinNT
#	Creation time:	15. 06. 2019 21:23

#	Modifying user name:	WinNT
#	Modification time:	15. 06. 2019 21:23

#	Program:	/corina/corina34_cracker 3.40 0067  02.08.2006

@<TRIPOS>MOLECULE
ASD09740576
  58   61    0    0    0
SMALL
NO_CHARGES


@<TRIPOS>ATOM
   1 N1             0.5960     0.9746     1.1711 N.2     
   2 C2             0.5081    -0.3110     0.9371 C.2     
   3 C3             1.7917     1.4737     1.3146 C.2     
   4 S4             2.9824     0.1876     1.1384 S.3     
   5 C5             1.6835    -0.9737     0.8718 C.2     
   6 C6             2.0996     2.8939     1.5819 C.ar    
   7 C7             1.0662     3.8202     1.7005 C.ar    
   8 C8             3.4280     3.3069     1.7214 C.ar    
   9 C9             3.7209     4.6303     1.9713 C.ar    
  10 C10            2.6997     5.5625     2.0866 C.ar    
  11 C11            1.3626     5.1585     1.9532 C.ar    
  12 O12            2.9937     6.8637     2.3334 O.3     
  13 C13            4.3649     7.1840     2.5773 C.3     
  14 C14            5.0835     7.3984     1.2437 C.3     
  15 C15            4.4490     8.4626     3.4133 C.3     
  16 C16            0.3066     6.1185     2.0713 C.1     
  17 N17           -0.5311     6.8801     2.1650 N.1     
  18 C18            1.8512    -2.4204     0.6206 C.ar    
  19 C19            2.7435    -2.8615    -0.3609 C.ar    
  20 C20            2.8954    -4.2135    -0.5906 C.ar    
  21 C21            2.1640    -5.1277     0.1517 C.ar    
  22 C22            1.2799    -4.6964     1.1233 C.ar    
  23 C23            1.1233    -3.3478     1.3666 C.ar    
  24 C24            3.6437    -2.0783    -1.2920 C.3     
  25 C25            4.6775    -3.1013    -1.8089 C.3     
  26 C26            3.9088    -4.4348    -1.6933 C.3     
  27 N27            3.2291    -4.7407    -2.9546 N.am    
  28 C28            2.9358    -6.0179    -3.2694 C.2     
  29 N29            2.2223    -6.2913    -4.3797 N.am    
  30 O30            3.3147    -6.9233    -2.5519 O.2     
  31 C31            1.8028    -7.6666    -4.6605 C.3     
  32 C32            1.8662    -5.2134    -5.3056 C.3     
  33 H33           -0.4414    -0.8086     0.8055 H       
  34 H34            0.0392     3.5027     1.5968 H       
  35 H35            4.2275     2.5863     1.6335 H       
  36 H36            4.7491     4.9428     2.0780 H       
  37 H37            4.8388     6.3646     3.1178 H       
  38 H38            4.6096     8.2178     0.7032 H       
  39 H39            6.1294     7.6427     1.4297 H       
  40 H40            5.0236     6.4875     0.6481 H       
  41 H41            3.9370     8.3098     4.3634 H       
  42 H42            5.4949     8.7069     3.5994 H       
  43 H43            3.9751     9.2819     2.8729 H       
  44 H44            2.2854    -6.1852    -0.0307 H       
  45 H45            0.7145    -5.4168     1.6958 H       
  46 H46            0.4331    -3.0107     2.1257 H       
  47 H47            3.0667    -1.6711    -2.1222 H       
  48 H48            4.1440    -1.2766    -0.7488 H       
  49 H49            4.9418    -2.8950    -2.8460 H       
  50 H50            5.5648    -3.1094    -1.1759 H       
  51 H51            4.5901    -5.2420    -1.4245 H       
  52 H52            2.9903    -4.0240    -3.5630 H       
  53 H53            0.8272    -7.8482    -4.2094 H       
  54 H54            1.7375    -7.8136    -5.7386 H       
  55 H55            2.5313    -8.3613    -4.2425 H       
  56 H56            2.3398    -4.2861    -4.9831 H       
  57 H57            2.2100    -5.4673    -6.3083 H       
  58 H58            0.7839    -5.0846    -5.3144 H       
@<TRIPOS>BOND
   1    1    2 1
   2    1    3 2
   3    2    5 2
   4    2   33 1
   5    3    4 1
   6    3    6 1
   7    4    5 1
   8    5   18 1
   9    6    7 ar
  10    6    8 ar
  11    7   11 ar
  12    7   34 1
  13    8    9 ar
  14    8   35 1
  15    9   10 ar
  16    9   36 1
  17   10   11 ar
  18   10   12 1
  19   11   16 1
  20   12   13 1
  21   13   14 1
  22   13   15 1
  23   13   37 1
  24   14   38 1
  25   14   39 1
  26   14   40 1
  27   15   41 1
  28   15   42 1
  29   15   43 1
  30   16   17 3
  31   18   19 ar
  32   18   23 ar
  33   19   20 ar
  34   19   24 1
  35   20   21 ar
  36   20   26 1
  37   21   22 ar
  38   21   44 1
  39   22   23 ar
  40   22   45 1
  41   23   46 1
  42   24   25 1
  43   24   47 1
  44   24   48 1
  45   25   26 1
  46   25   49 1
  47   25   50 1
  48   26   27 1
  49   26   51 1
  50   27   28 am
  51   27   52 1
  52   28   29 am
  53   28   30 2
  54   29   31 1
  55   29   32 1
  56   31   53 1
  57   31   54 1
  58   31   55 1
  59   32   56 1
  60   32   57 1
  61   32   58 1

#	End of record

