#	Name: ASD04882056
#	Creating user name:	WinNT
#	Creation time:	15. 06. 2019 20:54

#	Modifying user name:	WinNT
#	Modification time:	15. 06. 2019 20:54

#	Program:	/corina/corina34_cracker 3.40 0067  02.08.2006

@<TRIPOS>MOLECULE
ASD04882056
  80   84    0    0    0
SMALL
NO_CHARGES


@<TRIPOS>ATOM
   1 N1            -0.1362     1.5550    -0.0364 N.am    
   2 C2            -0.0763     0.1554    -0.0458 C.ar    
   3 C3            -1.2526    -0.5955     0.0296 C.ar    
   4 C4            -1.1946    -1.9845     0.0209 C.ar    
   5 C5             0.0215    -2.6255    -0.0625 C.ar    
   6 C6             1.2017    -1.8806    -0.1381 C.ar    
   7 C7             1.1458    -0.4840    -0.1353 C.ar    
   8 N8            -2.4844     0.0484     0.1140 N.3     
   9 C9            -2.6118     0.7772     1.3837 C.3     
  10 C10           -3.5898    -0.9050    -0.0559 C.3     
  11 C11           -4.9200    -0.1483    -0.0362 C.3     
  12 N12           -5.0474     0.5805     1.2335 N.3     
  13 C13           -3.9420     1.5339     1.4033 C.3     
  14 C14           -6.2829     1.2264     1.3181 C.ar    
  15 C15           -7.1623     0.9145     2.3470 C.ar    
  16 C16           -8.3831     1.5555     2.4280 C.ar    
  17 C17           -8.7304     2.5063     1.4862 C.ar    
  18 C18           -7.8571     2.8192     0.4603 C.ar    
  19 C19           -6.6326     2.1864     0.3767 C.ar    
  20 C20            0.8455     2.2676     0.5510 C.2     
  21 O21            1.7295     1.6967     1.1625 O.2     
  22 C22            0.8484     3.7307     0.4533 C.2     
  23 O23           -0.0671     4.4841    -0.1904 O.3     
  24 C24            1.7751     4.5697     1.0030 C.2     
  25 C25            1.3897     5.8756     0.6618 C.2     
  26 C26            0.2571     5.7780    -0.0687 C.2     
  27 C27            2.5043    -2.5675    -0.2269 C.2     
  28 N28            2.5568    -3.9142    -0.2350 N.am    
  29 C29           -6.7851    -0.1223     3.3735 C.3     
  30 C30           -0.5139     6.9344    -0.6512 C.3     
  31 C31            2.9781     4.1709     1.8184 C.3     
  32 O32            3.5306    -1.9186    -0.2926 O.2     
  33 C33            3.8504    -4.5963    -0.3231 C.3     
  34 C34            3.6302    -6.1104    -0.3138 C.3     
  35 C35            4.9811    -6.8227    -0.4058 C.3     
  36 N36            4.7703    -8.2725    -0.3968 N.am    
  37 C37            4.5710    -9.0877    -1.6008 C.3     
  38 C38            3.9688   -10.4198    -1.1015 C.3     
  39 C39            4.4890   -10.4752     0.3537 C.3     
  40 C40            4.7403    -9.0277     0.7148 C.2     
  41 O41            4.8861    -8.6086     1.8435 O.2     
  42 H42           -0.8822     2.0114    -0.4562 H       
  43 H43           -2.1052    -2.5622     0.0800 H       
  44 H44            0.0633    -3.7047    -0.0690 H       
  45 H45            2.0561     0.0942    -0.1940 H       
  46 H46           -2.5831     0.0706     2.2131 H       
  47 H47           -1.7890     1.4856     1.4805 H       
  48 H48           -3.4801    -1.4230    -1.0086 H       
  49 H49           -3.5722    -1.6307     0.7572 H       
  50 H50           -4.9487     0.5583    -0.8656 H       
  51 H51           -5.7428    -0.8567    -0.1330 H       
  52 H52           -4.0517     2.0519     2.3561 H       
  53 H53           -3.9596     2.2596     0.5903 H       
  54 H54           -9.0674     1.3135     3.2278 H       
  55 H55           -9.6859     3.0055     1.5514 H       
  56 H56           -8.1315     3.5621    -0.2739 H       
  57 H57           -5.9510     2.4315    -0.4244 H       
  58 H58            1.9007     6.7872     0.9343 H       
  59 H59            1.7382    -4.4318    -0.1825 H       
  60 H60           -6.2707     0.3597     4.2048 H       
  61 H61           -7.6856    -0.6151     3.7400 H       
  62 H62           -6.1262    -0.8616     2.9180 H       
  63 H63           -0.1402     7.1532    -1.6514 H       
  64 H64           -1.5711     6.6749    -0.7071 H       
  65 H65           -0.3882     7.8115    -0.0164 H       
  66 H66            3.8303     4.0161     1.1568 H       
  67 H67            3.2112     4.9609     2.5323 H       
  68 H68            2.7628     3.2474     2.3558 H       
  69 H69            4.3511    -4.3077    -1.2473 H       
  70 H70            4.4689    -4.3138     0.5288 H       
  71 H71            3.1294    -6.3990     0.6104 H       
  72 H72            3.0117    -6.3929    -1.1657 H       
  73 H73            5.4819    -6.5341    -1.3299 H       
  74 H74            5.5996    -6.5403     0.4461 H       
  75 H75            3.8785    -8.5924    -2.2814 H       
  76 H76            5.5248    -9.2674    -2.0968 H       
  77 H77            2.8795   -10.3888    -1.1254 H       
  78 H78            4.3465   -11.2609    -1.6829 H       
  79 H79            3.7366   -10.9102     1.0115 H       
  80 H80            5.4173   -11.0440     0.4056 H       
@<TRIPOS>BOND
   1    1    2 1
   2    1   20 am
   3    1   42 1
   4    2    3 ar
   5    2    7 ar
   6    3    4 ar
   7    3    8 1
   8    4    5 ar
   9    4   43 1
  10    5    6 ar
  11    5   44 1
  12    6    7 ar
  13    6   27 1
  14    7   45 1
  15    8    9 1
  16    8   10 1
  17    9   13 1
  18    9   46 1
  19    9   47 1
  20   10   11 1
  21   10   48 1
  22   10   49 1
  23   11   12 1
  24   11   50 1
  25   11   51 1
  26   12   13 1
  27   12   14 1
  28   13   52 1
  29   13   53 1
  30   14   15 ar
  31   14   19 ar
  32   15   16 ar
  33   15   29 1
  34   16   17 ar
  35   16   54 1
  36   17   18 ar
  37   17   55 1
  38   18   19 ar
  39   18   56 1
  40   19   57 1
  41   20   21 2
  42   20   22 1
  43   22   23 1
  44   22   24 2
  45   23   26 1
  46   24   25 1
  47   24   31 1
  48   25   26 2
  49   25   58 1
  50   26   30 1
  51   27   28 am
  52   27   32 2
  53   28   33 1
  54   28   59 1
  55   29   60 1
  56   29   61 1
  57   29   62 1
  58   30   63 1
  59   30   64 1
  60   30   65 1
  61   31   66 1
  62   31   67 1
  63   31   68 1
  64   33   34 1
  65   33   69 1
  66   33   70 1
  67   34   35 1
  68   34   71 1
  69   34   72 1
  70   35   36 1
  71   35   73 1
  72   35   74 1
  73   36   37 1
  74   36   40 am
  75   37   38 1
  76   37   75 1
  77   37   76 1
  78   38   39 1
  79   38   77 1
  80   38   78 1
  81   39   40 1
  82   39   79 1
  83   39   80 1
  84   40   41 2

#	End of record

