#	Name: ASD01948080
#	Creating user name:	WinNT
#	Creation time:	15. 06. 2019 20:13

#	Modifying user name:	WinNT
#	Modification time:	15. 06. 2019 20:13

#	Program:	/corina/corina34_cracker 3.40 0067  02.08.2006

@<TRIPOS>MOLECULE
ASD01948080
  29   30    0    0    0
SMALL
NO_CHARGES


@<TRIPOS>ATOM
   1 C1             0.4097     1.7151     0.7604 C.3     
   2 S2             0.3111     0.0535     0.0395 S.o2    
   3 O3            -1.0120    -0.2218    -0.3996 O.2     
   4 O4             1.4286    -0.1915    -0.8034 O.2     
   5 O5             0.5181    -0.8853     1.2194 O.3     
   6 F6             1.5048     2.3952     0.2167 F       
   7 F7            -0.7652     2.4184     0.4737 F       
   8 F8             0.5656     1.6134     2.1470 F       
   9 C9             0.3135    -0.2192     4.8041 C.2     
  10 C10            0.7379    -0.7474     3.5995 C.2     
  11 C11            0.1117    -0.3755     2.4073 C.2     
  12 C12           -0.9376     0.5307     2.4724 C.2     
  13 C13           -1.3308     1.0356     3.7019 C.2     
  14 N14           -0.7134     0.6672     4.8642 N.am    
  15 S15            0.9364    -0.5384     6.4302 S.3     
  16 C16           -1.0767     1.1601     6.1922 C.3     
  17 C17           -0.2109     0.5690     7.3014 C.3     
  18 O18           -2.2553     1.8330     3.7478 O.2     
  19 N19            1.8611    -1.7115     3.5725 N.pl3   
  20 O20            2.4089    -2.0376     4.6103 O.2     
  21 O21            2.2373    -2.1787     2.5124 O.2     
  22 C22           -1.6447     0.9634     1.2139 C.3     
  23 H23           -0.9738     2.2452     6.2047 H       
  24 H24           -2.1185     0.9066     6.3884 H       
  25 H25           -0.8268     0.0054     8.0021 H       
  26 H26            0.3379     1.3545     7.8209 H       
  27 H27           -2.3649     0.1994     0.9208 H       
  28 H28           -2.1658     1.9035     1.3948 H       
  29 H29           -0.9150     1.1001     0.4158 H       
@<TRIPOS>BOND
   1    1    2 1
   2    1    6 1
   3    1    7 1
   4    1    8 1
   5    2    3 2
   6    2    4 2
   7    2    5 1
   8    5   11 1
   9    9   10 2
  10    9   14 1
  11    9   15 1
  12   10   11 1
  13   10   19 1
  14   11   12 2
  15   12   13 1
  16   12   22 1
  17   13   14 am
  18   13   18 2
  19   14   16 1
  20   15   17 1
  21   16   17 1
  22   16   23 1
  23   16   24 1
  24   17   25 1
  25   17   26 1
  26   19   20 2
  27   19   21 2
  28   22   27 1
  29   22   28 1
  30   22   29 1

#	End of record

