#	Name: ASD04910219
#	Creating user name:	WinNT
#	Creation time:	15. 06. 2019 20:55

#	Modifying user name:	WinNT
#	Modification time:	15. 06. 2019 20:55

#	Program:	/corina/corina34_cracker 3.40 0067  02.08.2006

@<TRIPOS>MOLECULE
ASD04910219
  28   30    0    0    0
SMALL
NO_CHARGES


@<TRIPOS>ATOM
   1 C1            -0.0168     1.3852     0.0097 C.ar    
   2 C2             0.0021    -0.0041     0.0020 C.ar    
   3 C3             1.2202    -0.6609    -0.0131 C.ar    
   4 C4             2.3822     0.0991    -0.0201 C.ar    
   5 C5             2.2882     1.4776    -0.0118 C.ar    
   6 N6             1.1122     2.0749     0.0026 N.ar    
   7 C7            -2.4736     1.4954     0.1177 C.2     
   8 N8            -3.3729     2.4384     0.0927 N.2     
   9 C9            -2.7610     3.6351    -0.0217 C.2     
  10 C10           -1.4214     3.4159    -0.0693 C.2     
  11 N11           -1.2408     2.0610     0.0191 N.pl3   
  12 C12           -3.4323     4.9565    -0.0850 C.ar    
  13 C13           -4.8223     5.0384    -0.0252 C.ar    
  14 C14           -5.4414     6.2704    -0.0840 C.ar    
  15 C15           -4.6851     7.4226    -0.2026 C.ar    
  16 C16           -3.3052     7.3472    -0.2624 C.ar    
  17 C17           -2.6751     6.1209    -0.1986 C.ar    
  18 I18            4.2577    -0.8341    -0.0423 I       
  19 H19           -0.9215    -0.5639     0.0082 H       
  20 H20            1.2659    -1.7399    -0.0190 H       
  21 H21            3.1889     2.0735    -0.0172 H       
  22 H22           -2.6744     0.4380     0.2069 H       
  23 H23           -0.6485     4.1648    -0.1593 H       
  24 H24           -5.4138     4.1395     0.0666 H       
  25 H25           -6.5185     6.3351    -0.0378 H       
  26 H26           -5.1739     8.3845    -0.2490 H       
  27 H27           -2.7196     8.2499    -0.3549 H       
  28 H28           -1.5975     6.0635    -0.2409 H       
@<TRIPOS>BOND
   1    1    2 ar
   2    1    6 ar
   3    1   11 1
   4    2    3 ar
   5    2   19 1
   6    3    4 ar
   7    3   20 1
   8    4    5 ar
   9    4   18 1
  10    5    6 ar
  11    5   21 1
  12    7    8 2
  13    7   11 1
  14    7   22 1
  15    8    9 1
  16    9   10 2
  17    9   12 1
  18   10   11 1
  19   10   23 1
  20   12   13 ar
  21   12   17 ar
  22   13   14 ar
  23   13   24 1
  24   14   15 ar
  25   14   25 1
  26   15   16 ar
  27   15   26 1
  28   16   17 ar
  29   16   27 1
  30   17   28 1

#	End of record

