#	Name: ASD07300316
#	Creating user name:	WinNT
#	Creation time:	15. 06. 2019 21:09

#	Modifying user name:	WinNT
#	Modification time:	15. 06. 2019 21:09

#	Program:	/corina/corina34_cracker 3.40 0067  02.08.2006

@<TRIPOS>MOLECULE
ASD07300316
  40   44    0    0    0
SMALL
NO_CHARGES


@<TRIPOS>ATOM
   1 C1            -0.0316     1.3794     0.1237 C.ar    
   2 C2            -0.0148    -0.0102     0.1780 C.ar    
   3 C3             1.1799    -0.6934     0.1280 C.ar    
   4 C4             2.3551     0.0419     0.0227 C.ar    
   5 C5             2.2776     1.4198    -0.0272 C.ar    
   6 N6             1.1174     2.0415     0.0223 N.ar    
   7 N7            -1.3418     1.8448     0.1962 N.am    
   8 C8            -1.4545    -0.4517     0.2894 C.3     
   9 C9            -2.2347     0.8461     0.2982 C.2     
  10 O10           -3.4394     0.9620     0.3777 O.2     
  11 C11           -1.6901     3.2027     0.1666 C.ar    
  12 C12           -3.0242     3.5793     0.2444 C.ar    
  13 C13           -3.3667     4.9166     0.2157 C.ar    
  14 C14           -2.3778     5.8841     0.1088 C.ar    
  15 C15           -1.0444     5.5082     0.0306 C.ar    
  16 C16           -0.7005     4.1714     0.0654 C.ar    
  17 O17           -2.7154     7.2006     0.0802 O.3     
  18 C18           -6.1855     7.3181    -0.2234 C.2     
  19 C19           -7.5185     6.8955    -0.3927 C.2     
  20 C20           -8.5172     7.8199    -0.3855 C.2     
  21 C21           -8.2063     9.1780    -0.2099 C.2     
  22 C22           -6.9237     9.5674    -0.0495 C.2     
  23 N23           -5.9134     8.6506    -0.0541 N.pl3   
  24 N24           -5.0368     6.6550    -0.1938 N.2     
  25 C25           -4.0347     7.5196    -0.0046 C.2     
  26 C26           -4.5550     8.7689     0.0847 C.2     
  27 H27            1.2033    -1.7723     0.1698 H       
  28 H28            3.3125    -0.4560    -0.0190 H       
  29 H29            3.1856     1.9987    -0.1090 H       
  30 H30           -1.7333    -1.0662    -0.5665 H       
  31 H31           -1.6167    -0.9950     1.2204 H       
  32 H32           -3.7941     2.8264     0.3269 H       
  33 H33           -4.4044     5.2096     0.2762 H       
  34 H34           -0.2751     6.2616    -0.0533 H       
  35 H35            0.3377     3.8792     0.0094 H       
  36 H36           -7.7457     5.8483    -0.5273 H       
  37 H37           -9.5438     7.5105    -0.5145 H       
  38 H38           -8.9966     9.9140    -0.2036 H       
  39 H39           -6.6952    10.6145     0.0841 H       
  40 H40           -4.0027     9.6848     0.2348 H       
@<TRIPOS>BOND
   1    1    2 ar
   2    1    6 ar
   3    1    7 1
   4    2    3 ar
   5    2    8 1
   6    3    4 ar
   7    3   27 1
   8    4    5 ar
   9    4   28 1
  10    5    6 ar
  11    5   29 1
  12    7    9 am
  13    7   11 1
  14    8    9 1
  15    8   30 1
  16    8   31 1
  17    9   10 2
  18   11   12 ar
  19   11   16 ar
  20   12   13 ar
  21   12   32 1
  22   13   14 ar
  23   13   33 1
  24   14   15 ar
  25   14   17 1
  26   15   16 ar
  27   15   34 1
  28   16   35 1
  29   17   25 1
  30   18   19 1
  31   18   23 1
  32   18   24 2
  33   19   20 2
  34   19   36 1
  35   20   21 1
  36   20   37 1
  37   21   22 2
  38   21   38 1
  39   22   23 1
  40   22   39 1
  41   23   26 1
  42   24   25 1
  43   25   26 2
  44   26   40 1

#	End of record

