#	Name: ASD03090375
#	Creating user name:	WinNT
#	Creation time:	15. 06. 2019 20:28

#	Modifying user name:	WinNT
#	Modification time:	15. 06. 2019 20:28

#	Program:	/corina/corina34_cracker 3.40 0067  02.08.2006

@<TRIPOS>MOLECULE
ASD03090375
  42   44    0    0    0
SMALL
NO_CHARGES


@<TRIPOS>ATOM
   1 C1            -0.0179     1.4706     0.0101 C.2     
   2 C2             0.0021    -0.0041     0.0020 C.ar    
   3 C3             1.2216    -0.6880    -0.0133 C.ar    
   4 C4             1.2372    -2.0588    -0.0203 C.ar    
   5 C5             0.0396    -2.7703    -0.0122 C.ar    
   6 C6            -1.1768    -2.0917     0.0030 C.ar    
   7 C7            -1.1984    -0.7210     0.0155 C.ar    
   8 O8             1.0268     2.0929     0.0035 O.2     
   9 N9            -1.1941     2.1285     0.0193 N.am    
  10 S10            0.0635    -4.5322    -0.0219 S.3     
  11 C11           -1.6982    -4.9642    -0.0067 C.3     
  12 F12           -2.3195    -4.4287    -1.1400 F       
  13 F13           -1.8370    -6.3563    -0.0128 F       
  14 F14           -2.2968    -4.4409     1.1444 F       
  15 C15           -1.2140     3.5934     0.0273 C.3     
  16 N16           -6.5834     5.3958     0.2950 N.3     
  17 C17           -6.6544     5.8748     1.6925 C.3     
  18 C18           -5.5435     5.0549     2.3879 C.3     
  19 C19           -4.5983     4.7341     1.2471 C.ar    
  20 C20           -3.2920     4.2918     1.2380 C.ar    
  21 C21           -2.6415     4.0763     0.0367 C.ar    
  22 C22           -3.3032     4.3053    -1.1560 C.ar    
  23 C23           -4.6101     4.7456    -1.1523 C.ar    
  24 C24           -5.2737     4.9624     0.0543 C.ar    
  25 C25           -6.9680     6.4567    -0.6454 C.3     
  26 H26            2.1504    -0.1369    -0.0199 H       
  27 H27            2.1788    -2.5876    -0.0325 H       
  28 H28           -2.1037    -2.6459     0.0089 H       
  29 H29           -2.1417    -0.1954     0.0315 H       
  30 H30           -2.0275     1.6321     0.0205 H       
  31 H31           -0.7009     3.9588     0.9169 H       
  32 H32           -0.7094     3.9685    -0.8630 H       
  33 H33           -6.4389     6.9419     1.7468 H       
  34 H34           -7.6287     5.6533     2.1281 H       
  35 H35           -5.0415     5.6524     3.1488 H       
  36 H36           -5.9512     4.1410     2.8200 H       
  37 H37           -2.7762     4.1142     2.1701 H       
  38 H38           -2.7943     4.1389    -2.0939 H       
  39 H39           -5.1209     4.9234    -2.0872 H       
  40 H40           -6.2944     7.3059    -0.5305 H       
  41 H41           -6.9049     6.0783    -1.6657 H       
  42 H42           -7.9903     6.7731    -0.4379 H       
@<TRIPOS>BOND
   1    1    2 1
   2    1    8 2
   3    1    9 am
   4    2    3 ar
   5    2    7 ar
   6    3    4 ar
   7    3   26 1
   8    4    5 ar
   9    4   27 1
  10    5    6 ar
  11    5   10 1
  12    6    7 ar
  13    6   28 1
  14    7   29 1
  15    9   15 1
  16    9   30 1
  17   10   11 1
  18   11   12 1
  19   11   13 1
  20   11   14 1
  21   15   21 1
  22   15   31 1
  23   15   32 1
  24   16   17 1
  25   16   24 1
  26   16   25 1
  27   17   18 1
  28   17   33 1
  29   17   34 1
  30   18   19 1
  31   18   35 1
  32   18   36 1
  33   19   20 ar
  34   19   24 ar
  35   20   21 ar
  36   20   37 1
  37   21   22 ar
  38   22   23 ar
  39   22   38 1
  40   23   24 ar
  41   23   39 1
  42   25   40 1
  43   25   41 1
  44   25   42 1

#	End of record

