#	Name: ASD08178387
#	Creating user name:	WinNT
#	Creation time:	15. 06. 2019 21:18

#	Modifying user name:	WinNT
#	Modification time:	15. 06. 2019 21:18

#	Program:	/corina/corina34_cracker 3.40 0067  02.08.2006

@<TRIPOS>MOLECULE
ASD08178387
  85   88    0    0    0
SMALL
NO_CHARGES


@<TRIPOS>ATOM
   1 N1            -0.0168     1.3902     0.0097 N.am    
   2 C2            -0.2173     0.0103     0.0231 C.ar    
   3 C3             0.8683    -0.8557    -0.0926 C.ar    
   4 N4            -1.4399    -0.4832     0.1513 N.ar    
   5 N5            -1.6667    -1.7463     0.1686 N.ar    
   6 C6            -0.7002    -2.6368     0.0602 C.ar    
   7 C7             0.6159    -2.2190    -0.0733 C.ar    
   8 C8            -1.0247    -4.1082     0.0874 C.3     
   9 C9            -1.8115    -4.4335     1.3586 C.3     
  10 C10           -2.1410    -5.9273     1.3862 C.3     
  11 C11           -2.9278    -6.2527     2.6574 C.3     
  12 C12           -3.2523    -7.7241     2.6845 C.2     
  13 N13           -2.5213    -8.6581     3.2049 N.2     
  14 N14           -2.9690    -9.8359     3.1257 N.2     
  15 C15           -4.1130   -10.0077     2.5350 C.2     
  16 S16           -4.6995    -8.4828     2.0200 S.3     
  17 N17           -4.7575   -11.2270     2.3553 N.am    
  18 C18           -4.1929   -12.3617     2.8139 C.2     
  19 C19           -4.8913   -13.6828     2.6192 C.3     
  20 O20           -3.1229   -12.3195     3.3832 O.2     
  21 C21           -4.0568   -14.7853     3.2184 C.ar    
  22 C22           -1.0750     2.2250     0.0167 C.2     
  23 C23           -0.8601     3.7130     0.1198 C.3     
  24 O24           -2.2000     1.7786    -0.0599 O.2     
  25 C25           -2.1935     4.4152     0.1067 C.ar    
  26 C26           -2.8557     4.6615     1.2940 C.ar    
  27 C27           -2.7504     4.8173    -1.0930 C.ar    
  28 C28           -3.9738     5.4618    -1.1085 C.ar    
  29 C29           -4.6424     5.7054     0.0753 C.ar    
  30 C30           -4.0829     5.3078     1.2812 C.ar    
  31 C31           -4.2366   -15.1477     4.5400 C.ar    
  32 C32           -3.4710   -16.1591     5.0898 C.ar    
  33 C33           -2.5260   -16.8081     4.3177 C.ar    
  34 C34           -2.3467   -16.4462     2.9955 C.ar    
  35 C35           -3.1151   -15.4380     2.4446 C.ar    
  36 C36           -5.0207   -18.1206     7.8146 C.2     
  37 O37           -5.9518   -19.0900     7.8923 O.3     
  38 C38           -6.2693   -19.5945     9.2163 C.3     
  39 O39           -4.4880   -17.7074     8.8256 O.2     
  40 C40           -6.7938   -18.4501    10.0859 C.3     
  41 C41           -7.3397   -20.6820     9.1045 C.3     
  42 C42           -5.0090   -20.1830     9.8536 C.3     
  43 N43           -4.6795   -17.6084     6.6156 N.am    
  44 C44           -3.6664   -16.5536     6.5311 C.3     
  45 O45           -4.7390     5.5459     2.4473 O.3     
  46 C46           -6.0010     6.2102     2.3577 C.3     
  47 F47           -6.8778     5.4432     1.5829 F       
  48 F48           -6.5340     6.3739     3.6408 F       
  49 F49           -5.8269     7.4638     1.7616 F       
  50 H50            0.8842     1.7494    -0.0006 H       
  51 H51            1.8745    -0.4770    -0.1944 H       
  52 H52            1.4199    -2.9345    -0.1636 H       
  53 H53           -1.6240    -4.3643    -0.7864 H       
  54 H54           -0.0997    -4.6845     0.0751 H       
  55 H55           -1.2123    -4.1774     2.2323 H       
  56 H56           -2.7366    -3.8571     1.3708 H       
  57 H57           -2.7402    -6.1835     0.5124 H       
  58 H58           -1.2159    -6.5037     1.3739 H       
  59 H59           -2.3286    -5.9966     3.5311 H       
  60 H60           -3.8529    -5.6763     2.6696 H       
  61 H61           -5.6133   -11.2607     1.9000 H       
  62 H62           -5.8640   -13.6554     3.1104 H       
  63 H63           -5.0274   -13.8683     1.5537 H       
  64 H64           -0.3385     3.9413     1.0493 H       
  65 H65           -0.2620     4.0532    -0.7255 H       
  66 H66           -2.4182     4.3508     2.2313 H       
  67 H67           -2.2290     4.6281    -2.0197 H       
  68 H68           -4.4067     5.7754    -2.0470 H       
  69 H69           -5.5978     6.2089     0.0627 H       
  70 H70           -4.9750   -14.6406     5.1433 H       
  71 H71           -1.9273   -17.5977     4.7474 H       
  72 H72           -1.6080   -16.9530     2.3922 H       
  73 H73           -2.9751   -15.1553     1.4117 H       
  74 H74           -7.6917   -18.0308     9.6319 H       
  75 H75           -7.0321   -18.8288    11.0798 H       
  76 H76           -6.0312   -17.6754    10.1655 H       
  77 H77           -6.9661   -21.4973     8.4850 H       
  78 H78           -7.5781   -21.0607    10.0984 H       
  79 H79           -8.2376   -20.2627     8.6505 H       
  80 H80           -4.2464   -19.4082     9.9332 H       
  81 H81           -5.2473   -20.5617    10.8475 H       
  82 H82           -4.6353   -20.9983     9.2340 H       
  83 H83           -5.1048   -17.9382     5.8085 H       
  84 H84           -2.7244   -16.9211     6.9381 H       
  85 H85           -3.9959   -15.6866     7.1036 H       
@<TRIPOS>BOND
   1    1    2 1
   2    1   22 am
   3    1   50 1
   4    2    3 ar
   5    2    4 ar
   6    3    7 ar
   7    3   51 1
   8    4    5 ar
   9    5    6 ar
  10    6    7 ar
  11    6    8 1
  12    7   52 1
  13    8    9 1
  14    8   53 1
  15    8   54 1
  16    9   10 1
  17    9   55 1
  18    9   56 1
  19   10   11 1
  20   10   57 1
  21   10   58 1
  22   11   12 1
  23   11   59 1
  24   11   60 1
  25   12   13 2
  26   12   16 1
  27   13   14 1
  28   14   15 2
  29   15   16 1
  30   15   17 1
  31   17   18 am
  32   17   61 1
  33   18   19 1
  34   18   20 2
  35   19   21 1
  36   19   62 1
  37   19   63 1
  38   21   31 ar
  39   21   35 ar
  40   22   23 1
  41   22   24 2
  42   23   25 1
  43   23   64 1
  44   23   65 1
  45   25   26 ar
  46   25   27 ar
  47   26   30 ar
  48   26   66 1
  49   27   28 ar
  50   27   67 1
  51   28   29 ar
  52   28   68 1
  53   29   30 ar
  54   29   69 1
  55   30   45 1
  56   31   32 ar
  57   31   70 1
  58   32   33 ar
  59   32   44 1
  60   33   34 ar
  61   33   71 1
  62   34   35 ar
  63   34   72 1
  64   35   73 1
  65   36   37 1
  66   36   39 2
  67   36   43 am
  68   37   38 1
  69   38   40 1
  70   38   41 1
  71   38   42 1
  72   40   74 1
  73   40   75 1
  74   40   76 1
  75   41   77 1
  76   41   78 1
  77   41   79 1
  78   42   80 1
  79   42   81 1
  80   42   82 1
  81   43   44 1
  82   43   83 1
  83   44   84 1
  84   44   85 1
  85   45   46 1
  86   46   47 1
  87   46   48 1
  88   46   49 1

#	End of record

