#	Name: ASD03330491
#	Creating user name:	WinNT
#	Creation time:	15. 06. 2019 20:37

#	Modifying user name:	WinNT
#	Modification time:	15. 06. 2019 20:37

#	Program:	/corina/corina34_cracker 3.40 0067  02.08.2006

@<TRIPOS>MOLECULE
ASD03330491
  58   60    0    0    0
SMALL
NO_CHARGES


@<TRIPOS>ATOM
   1 C1            -0.0179     1.4654     0.0101 C.3     
   2 N2             0.0021    -0.0041     0.0020 N.3     
   3 C3             0.4457    -0.5240    -1.3041 C.3     
   4 C4             1.7200     0.1875    -1.6793 C.2     
   5 N5             2.1510     1.3334    -1.0774 N.pl3   
   6 C6             1.4182     2.0053    -0.0007 C.3     
   7 C7             2.6370    -0.1388    -2.6242 C.2     
   8 N8             3.6124     0.7971    -2.5919 N.2     
   9 C9             3.3270     1.6850    -1.6633 C.2     
  10 C10            4.1430     2.8612    -1.3174 C.2     
  11 C11            2.5808    -1.3046    -3.5240 C.2     
  12 O12            1.6465    -2.0803    -3.4565 O.2     
  13 C13            3.5086    -2.6699    -5.3163 C.3     
  14 N14            3.5646    -1.5110    -4.4218 N.am    
  15 C15           -1.3117    -0.5504     0.3674 C.3     
  16 C16            4.0995    -3.8903    -4.6074 C.3     
  17 C17            4.3027    -2.3803    -6.5639 C.2     
  18 O18            4.8604    -1.3111    -6.6932 O.2     
  19 N19            4.3930    -3.3094    -7.5360 N.am    
  20 C20            5.1649    -3.0279    -8.7489 C.3     
  21 C21            3.8335     3.7415    -0.3772 C.2     
  22 C22            3.2210    -4.2599    -3.4106 C.3     
  23 C23            4.8872     4.8208    -0.2854 C.3     
  24 C24            5.6871     4.7060    -1.6031 C.3     
  25 C25            5.4505     3.2243    -1.9823 C.3     
  26 C26            1.8447    -4.7073    -3.9071 C.3     
  27 C27            3.8769    -5.4003    -2.6294 C.3     
  28 H28           -0.5469     1.8253    -0.8723 H       
  29 H29           -0.5299     1.8158     0.9063 H       
  30 H30            0.6300    -1.5959    -1.2307 H       
  31 H31           -0.3191    -0.3316    -2.0565 H       
  32 H32            1.4056     3.0804    -0.1795 H       
  33 H33            1.8969     1.7964     0.9560 H       
  34 H34            2.4716    -2.8723    -5.5843 H       
  35 H35            4.3096    -0.8923    -4.4757 H       
  36 H36           -2.0710    -0.1513    -0.3051 H       
  37 H37           -1.2888    -1.6371     0.2856 H       
  38 H38           -1.5501    -0.2682     1.3929 H       
  39 H39            4.1397    -4.7296    -5.3017 H       
  40 H40            5.1063    -3.6569    -4.2608 H       
  41 H41            3.9469    -4.1645    -7.4326 H       
  42 H42            4.7439    -2.1585    -9.2539 H       
  43 H43            6.2019    -2.8256    -8.4809 H       
  44 H44            5.1233    -3.8901    -9.4144 H       
  45 H45            2.9484     3.6942     0.2399 H       
  46 H46            3.1084    -3.3921    -2.7608 H       
  47 H47            4.4192     5.8023    -0.2099 H       
  48 H48            5.5384     4.6433     0.5705 H       
  49 H49            5.2859     5.3766    -2.3630 H       
  50 H50            6.7466     4.8986    -1.4347 H       
  51 H51            6.2613     2.6018    -1.6040 H       
  52 H52            5.3630     3.1188    -3.0637 H       
  53 H53            1.2188    -4.9707    -3.0544 H       
  54 H54            1.3775    -3.8949    -4.4636 H       
  55 H55            1.9573    -5.5751    -4.5569 H       
  56 H56            4.8574    -5.0816    -2.2757 H       
  57 H57            3.2510    -5.6637    -1.7768 H       
  58 H58            3.9895    -6.2681    -3.2792 H       
@<TRIPOS>BOND
   1    1    2 1
   2    1    6 1
   3    1   28 1
   4    1   29 1
   5    2    3 1
   6    2   15 1
   7    3    4 1
   8    3   30 1
   9    3   31 1
  10    4    5 1
  11    4    7 2
  12    5    6 1
  13    5    9 1
  14    6   32 1
  15    6   33 1
  16    7    8 1
  17    7   11 1
  18    8    9 2
  19    9   10 1
  20   10   21 2
  21   10   25 1
  22   11   12 2
  23   11   14 am
  24   13   14 1
  25   13   16 1
  26   13   17 1
  27   13   34 1
  28   14   35 1
  29   15   36 1
  30   15   37 1
  31   15   38 1
  32   16   22 1
  33   16   39 1
  34   16   40 1
  35   17   18 2
  36   17   19 am
  37   19   20 1
  38   19   41 1
  39   20   42 1
  40   20   43 1
  41   20   44 1
  42   21   23 1
  43   21   45 1
  44   22   26 1
  45   22   27 1
  46   22   46 1
  47   23   24 1
  48   23   47 1
  49   23   48 1
  50   24   25 1
  51   24   49 1
  52   24   50 1
  53   25   51 1
  54   25   52 1
  55   26   53 1
  56   26   54 1
  57   26   55 1
  58   27   56 1
  59   27   57 1
  60   27   58 1

#	End of record

