#	Name: ASD01200133
#	Creating user name:	WinNT
#	Creation time:	15. 06. 2019 19:08

#	Modifying user name:	WinNT
#	Modification time:	15. 06. 2019 19:08

#	Program:	/corina/corina34_cracker 3.40 0067  02.08.2006

@<TRIPOS>MOLECULE
ASD01200133
  41   44    0    0    0
SMALL
NO_CHARGES


@<TRIPOS>ATOM
   1 C1            -0.0167     1.3792     0.0096 C.ar    
   2 C2             0.0021    -0.0041     0.0020 C.ar    
   3 C3             1.2087    -0.6842    -0.0132 C.ar    
   4 C4             2.3920     0.0166    -0.0208 C.ar    
   5 C5             2.3846     1.4137    -0.0132 C.ar    
   6 C6             1.1648     2.0919     0.0022 C.ar    
   7 C7             3.8409    -0.4021    -0.0369 C.3     
   8 N8             4.6266     0.8371    -0.0378 N.am    
   9 C9             3.7832     1.8837    -0.0241 C.2     
  10 O10            4.1240     3.0505    -0.0207 O.2     
  11 S11            4.2232    -1.3815     1.4413 S.3     
  12 C12            6.0892     0.9201    -0.0514 C.3     
  13 C13            6.5770     0.9561    -1.4768 C.2     
  14 C14            3.6289    -3.0373     0.9988 C.3     
  15 C15            3.8791    -3.9837     2.1445 C.2     
  16 N16            3.5169    -5.2777     2.0411 N.am    
  17 O17            4.4064    -3.5808     3.1597 O.2     
  18 C18            3.7476    -6.1507     3.0979 C.2     
  19 N19            3.4393    -7.4097     3.1019 N.2     
  20 C20            3.7318    -8.0931     4.1925 C.2     
  21 C21            4.3151    -7.3774     5.1560 C.2     
  22 S22            4.4861    -5.7217     4.5790 S.3     
  23 C23            6.7700     2.0643    -2.2144 C.2     
  24 C24            7.2289     1.6380    -3.4819 C.2     
  25 C25            7.2889     0.2947    -3.4430 C.2     
  26 O26            6.8985    -0.1124    -2.2242 O.3     
  27 H27           -0.9607     1.9038     0.0169 H       
  28 H28           -0.9267    -0.5552     0.0083 H       
  29 H29            1.2202    -1.7641    -0.0188 H       
  30 H30            1.1457     3.1718     0.0078 H       
  31 H31            4.0535    -0.9810    -0.9357 H       
  32 H32            6.4065     1.8264     0.4643 H       
  33 H33            6.5072     0.0493     0.4538 H       
  34 H34            2.5601    -2.9956     0.7887 H       
  35 H35            4.1596    -3.3894     0.1142 H       
  36 H36            3.0951    -5.5999     1.2292 H       
  37 H37            3.5166    -9.1463     4.2967 H       
  38 H38            4.6302    -7.7491     6.1198 H       
  39 H39            6.6054     3.0841    -1.8991 H       
  40 H40            7.4822     2.2696    -4.3205 H       
  41 H41            7.6018    -0.3472    -4.2532 H       
@<TRIPOS>BOND
   1    1    2 ar
   2    1    6 ar
   3    1   27 1
   4    2    3 ar
   5    2   28 1
   6    3    4 ar
   7    3   29 1
   8    4    5 ar
   9    4    7 1
  10    5    6 ar
  11    5    9 1
  12    6   30 1
  13    7    8 1
  14    7   11 1
  15    7   31 1
  16    8    9 am
  17    8   12 1
  18    9   10 2
  19   11   14 1
  20   12   13 1
  21   12   32 1
  22   12   33 1
  23   13   23 2
  24   13   26 1
  25   14   15 1
  26   14   34 1
  27   14   35 1
  28   15   16 am
  29   15   17 2
  30   16   18 1
  31   16   36 1
  32   18   19 2
  33   18   22 1
  34   19   20 1
  35   20   21 2
  36   20   37 1
  37   21   22 1
  38   21   38 1
  39   23   24 1
  40   23   39 1
  41   24   25 2
  42   24   40 1
  43   25   26 1
  44   25   41 1

#	End of record

