#	Name: ASD00100058
#	Creating user name:	WinNT
#	Creation time:	15. 06. 2019 18:30

#	Modifying user name:	WinNT
#	Modification time:	15. 06. 2019 18:30

#	Program:	/corina/corina34_cracker 3.40 0067  02.08.2006

@<TRIPOS>MOLECULE
ASD00100058
  73   78    0    0    0
SMALL
NO_CHARGES


@<TRIPOS>ATOM
   1 C1            -0.0179     1.4724     0.0101 C.2     
   2 C2             0.0021    -0.0041     0.0020 C.ar    
   3 C3             1.2204    -0.6877    -0.0133 C.ar    
   4 C4             1.2353    -2.0648    -0.0203 C.ar    
   5 O5             1.0265     2.0946     0.0035 O.2     
   6 N6            -1.1942     2.1304     0.0193 N.am    
   7 C7            -1.2140     3.5952     0.0273 C.3     
   8 C8            -2.5253     4.0841     0.6459 C.3     
   9 C9            -2.5460     5.6139     0.6543 C.3     
  10 C10           -2.4341     6.1334    -0.7805 C.3     
  11 C11           -1.1228     5.6445    -1.3990 C.3     
  12 C12           -1.1021     4.1147    -1.4074 C.3     
  13 C13           -2.4548     7.6632    -0.7721 C.3     
  14 C14           -2.4686     8.1810    -2.2117 C.3     
  15 N15           -2.4885     9.6498    -2.2036 N.3     
  16 C16           -2.2640    10.1866    -3.5519 C.3     
  17 C17           -2.1463    11.7109    -3.4825 C.3     
  18 C18           -3.4334    12.2909    -2.8898 C.3     
  19 C19           -3.6696    11.6793    -1.5060 C.3     
  20 C20           -3.7432    10.1560    -1.6327 C.3     
  21 O21           -2.5776    15.7802    -2.1731 O.3     
  22 C22           -2.3873    14.4554    -2.0458 C.2     
  23 C23           -3.3002    13.7866    -2.7633 C.2     
  24 C24           -4.1442    14.8039    -3.4016 C.ar    
  25 C25           -3.6255    16.0401    -2.9809 C.ar    
  26 C26           -5.2450    14.7607    -4.2556 C.ar    
  27 C27           -5.8205    15.9367    -4.6840 C.ar    
  28 C28           -5.3088    17.1575    -4.2690 C.ar    
  29 C29           -4.2206    17.2139    -3.4246 C.ar    
  30 C30            0.0397    -2.7748    -0.0123 C.ar    
  31 C31           -1.1748    -2.0976     0.0025 C.ar    
  32 C32           -1.1972    -0.7207     0.0155 C.ar    
  33 N33            0.0586    -4.1730    -0.0195 N.pl3   
  34 N34            1.2016    -4.9830    -0.0342 N.2     
  35 C35            0.8176    -6.2336    -0.0369 C.2     
  36 C36           -0.5816    -6.2653    -0.0240 C.2     
  37 C37           -1.0278    -4.9883    -0.0075 C.2     
  38 H38            2.1493    -0.1369    -0.0199 H       
  39 H39            2.1767    -2.5940    -0.0325 H       
  40 H40           -2.0275     1.6340     0.0205 H       
  41 H41           -0.3745     3.9668     0.6148 H       
  42 H42           -3.3649     3.7126     0.0584 H       
  43 H43           -2.6051     3.7140     1.6680 H       
  44 H44           -3.4802     5.9622     1.0949 H       
  45 H45           -1.7064     5.9855     1.2418 H       
  46 H46           -3.2737     5.7619    -1.3680 H       
  47 H47           -1.0430     6.0146    -2.4211 H       
  48 H48           -0.2832     6.0161    -0.8115 H       
  49 H49           -0.1679     3.7664    -1.8480 H       
  50 H50           -1.9417     3.7432    -1.9949 H       
  51 H51           -3.3472     8.0116    -0.2521 H       
  52 H52           -1.5674     8.0358    -0.2604 H       
  53 H53           -1.5762     7.8326    -2.7317 H       
  54 H54           -3.3560     7.8084    -2.7234 H       
  55 H55           -1.3435     9.7695    -3.9603 H       
  56 H56           -3.1017     9.9160    -4.1947 H       
  57 H57           -1.3003    11.9821    -2.8510 H       
  58 H58           -1.9952    12.1102    -4.4854 H       
  59 H59           -4.2741    12.0529    -3.5415 H       
  60 H60           -2.8476    11.9501    -0.8434 H       
  61 H61           -4.6070    12.0562    -1.0968 H       
  62 H62           -4.5739     9.8855    -2.2845 H       
  63 H63           -3.8971     9.7166    -0.6471 H       
  64 H64           -1.6110    13.9966    -1.4514 H       
  65 H65           -5.6441    13.8109    -4.5797 H       
  66 H66           -6.6733    15.9081    -5.3460 H       
  67 H67           -5.7676    18.0733    -4.6114 H       
  68 H68           -3.8312    18.1703    -3.1082 H       
  69 H69           -2.1015    -2.6522     0.0084 H       
  70 H70           -2.1407    -0.1954     0.0270 H       
  71 H71            1.4692    -7.0948    -0.0473 H       
  72 H72           -1.1967    -7.1530    -0.0231 H       
  73 H73           -2.0610    -4.6738     0.0055 H       
@<TRIPOS>BOND
   1    1    2 1
   2    1    5 2
   3    1    6 am
   4    2    3 ar
   5    2   32 ar
   6    3    4 ar
   7    3   38 1
   8    4   30 ar
   9    4   39 1
  10    6    7 1
  11    6   40 1
  12    7    8 1
  13    7   12 1
  14    7   41 1
  15    8    9 1
  16    8   42 1
  17    8   43 1
  18    9   10 1
  19    9   44 1
  20    9   45 1
  21   10   11 1
  22   10   13 1
  23   10   46 1
  24   11   12 1
  25   11   47 1
  26   11   48 1
  27   12   49 1
  28   12   50 1
  29   13   14 1
  30   13   51 1
  31   13   52 1
  32   14   15 1
  33   14   53 1
  34   14   54 1
  35   15   16 1
  36   15   20 1
  37   16   17 1
  38   16   55 1
  39   16   56 1
  40   17   18 1
  41   17   57 1
  42   17   58 1
  43   18   19 1
  44   18   23 1
  45   18   59 1
  46   19   20 1
  47   19   60 1
  48   19   61 1
  49   20   62 1
  50   20   63 1
  51   21   22 1
  52   21   25 1
  53   22   23 2
  54   22   64 1
  55   23   24 1
  56   24   25 ar
  57   24   26 ar
  58   25   29 ar
  59   26   27 ar
  60   26   65 1
  61   27   28 ar
  62   27   66 1
  63   28   29 ar
  64   28   67 1
  65   29   68 1
  66   30   31 ar
  67   30   33 1
  68   31   32 ar
  69   31   69 1
  70   32   70 1
  71   33   34 1
  72   33   37 1
  73   34   35 2
  74   35   36 1
  75   35   71 1
  76   36   37 2
  77   36   72 1
  78   37   73 1

#	End of record

