#	Name: ASD02310003
#	Creating user name:	WinNT
#	Creation time:	15. 06. 2019 20:20

#	Modifying user name:	WinNT
#	Modification time:	15. 06. 2019 20:20

#	Program:	/corina/corina34_cracker 3.40 0067  02.08.2006

@<TRIPOS>MOLECULE
ASD02310003
  39   40    0    0    0
SMALL
NO_CHARGES


@<TRIPOS>ATOM
   1 C1            -0.0169     1.3967     0.0097 C.ar    
   2 C2             0.0021    -0.0041     0.0020 C.ar    
   3 C3             1.2044    -0.6732    -0.0131 C.ar    
   4 C4             2.3992     0.0385    -0.0202 C.ar    
   5 C5             2.3862     1.4291    -0.0121 C.ar    
   6 C6             1.1896     2.1085     0.0020 C.ar    
   7 O7             3.5821    -0.6264    -0.0346 O.3     
   8 C8            -1.2964     2.1159     0.0197 C.2     
   9 C9            -1.3119     3.4714     0.0271 C.2     
  10 C10           -2.5392     4.1613     0.0367 C.2     
  11 C11           -2.5564     5.6681     0.0450 C.3     
  12 C12           -3.9829     6.1541     0.0544 C.2     
  13 C13           -4.2560     7.5352     0.0632 C.2     
  14 C14           -5.5391     7.9723     0.0717 C.2     
  15 C15           -5.8238     9.4123     0.0809 C.ar    
  16 C16           -5.0442    11.6858     0.0832 C.ar    
  17 C17           -4.7715    10.3370     0.0750 C.ar    
  18 C18           -7.1489     9.8668     0.0896 C.ar    
  19 C19           -7.4101    11.2178     0.0977 C.ar    
  20 C20           -6.3615    12.1314     0.0972 C.ar    
  21 O21           -6.6248    13.4626     0.1052 O.3     
  22 O22           -4.8970     5.3542     0.0544 O.2     
  23 O23           -3.5841     3.5419     0.0383 O.2     
  24 H24           -0.9252    -0.5577     0.0083 H       
  25 H25            1.2202    -1.7531    -0.0190 H       
  26 H26            3.3170     1.9768    -0.0170 H       
  27 H27            1.1807     3.1885     0.0076 H       
  28 H28            3.9168    -0.8144    -0.9221 H       
  29 H29           -2.2255     1.5652     0.0211 H       
  30 H30           -0.3829     4.0221     0.0257 H       
  31 H31           -2.0426     6.0325     0.9345 H       
  32 H32           -2.0510     6.0422    -0.8454 H       
  33 H33           -3.4432     8.2464     0.0632 H       
  34 H34           -6.3519     7.2612     0.0717 H       
  35 H35           -4.2338    12.3996     0.0791 H       
  36 H36           -3.7482     9.9920     0.0645 H       
  37 H37           -7.9640     9.1582     0.0897 H       
  38 H38           -8.4312    11.5694     0.1041 H       
  39 H39           -6.7092    13.8522    -0.7758 H       
@<TRIPOS>BOND
   1    1    2 ar
   2    1    6 ar
   3    1    8 1
   4    2    3 ar
   5    2   24 1
   6    3    4 ar
   7    3   25 1
   8    4    5 ar
   9    4    7 1
  10    5    6 ar
  11    5   26 1
  12    6   27 1
  13    7   28 1
  14    8    9 2
  15    8   29 1
  16    9   10 1
  17    9   30 1
  18   10   11 1
  19   10   23 2
  20   11   12 1
  21   11   31 1
  22   11   32 1
  23   12   13 1
  24   12   22 2
  25   13   14 2
  26   13   33 1
  27   14   15 1
  28   14   34 1
  29   15   18 ar
  30   15   17 ar
  31   16   17 ar
  32   16   20 ar
  33   16   35 1
  34   17   36 1
  35   18   19 ar
  36   18   37 1
  37   19   20 ar
  38   19   38 1
  39   20   21 1
  40   21   39 1

#	End of record

