#	Name: ASD03080108
#	Creating user name:	WinNT
#	Creation time:	15. 06. 2019 20:26

#	Modifying user name:	WinNT
#	Modification time:	15. 06. 2019 20:26

#	Program:	/corina/corina34_cracker 3.40 0067  02.08.2006

@<TRIPOS>MOLECULE
ASD03080108
  28   30    0    0    0
SMALL
NO_CHARGES


@<TRIPOS>ATOM
   1 N1             0.0175    -1.1399    -0.0042 N.1     
   2 C2             0.0021    -0.0041     0.0020 C.1     
   3 C3            -0.0173     1.4278     0.0099 C.ar    
   4 C4             1.1808     2.1448     0.0023 C.ar    
   5 C5             1.1587     3.5247     0.0100 C.ar    
   6 C6            -0.0466     4.2012     0.0256 C.ar    
   7 C7            -1.2444     3.4968     0.0337 C.ar    
   8 C8            -1.2338     2.1116     0.0194 C.ar    
   9 N9            -2.4643     4.1885     0.0501 N.pl3   
  10 N10           -3.7454     3.6279     0.1583 N.2     
  11 N11           -4.6080     4.5833     0.1369 N.2     
  12 C12           -3.9791     5.7615     0.0198 C.2     
  13 C13           -2.6374     5.5364    -0.0301 C.2     
  14 C14           -4.6363     7.0912    -0.0391 C.ar    
  15 C15           -6.0275     7.1990     0.0282 C.ar    
  16 C16           -6.5919     8.4619    -0.0305 C.ar    
  17 C17           -5.7684     9.5658    -0.1528 C.ar    
  18 N18           -4.4574     9.4326    -0.2140 N.ar    
  19 C19           -3.8753     8.2524    -0.1567 C.ar    
  20 H20            2.1245     1.6198    -0.0092 H       
  21 H21            2.0863     4.0779     0.0041 H       
  22 H22           -0.0574     5.2811     0.0319 H       
  23 H23           -2.1639     1.5626     0.0257 H       
  24 H24           -1.8614     6.2818    -0.1225 H       
  25 H25           -6.6470     6.3195     0.1233 H       
  26 H26           -7.6640     8.5835     0.0183 H       
  27 H27           -6.2052    10.5524    -0.1992 H       
  28 H28           -2.7988     8.1835    -0.2096 H       
@<TRIPOS>BOND
   1    1    2 3
   2    2    3 1
   3    3    4 ar
   4    3    8 ar
   5    4    5 ar
   6    4   20 1
   7    5    6 ar
   8    5   21 1
   9    6    7 ar
  10    6   22 1
  11    7    8 ar
  12    7    9 1
  13    8   23 1
  14    9   10 1
  15    9   13 1
  16   10   11 2
  17   11   12 1
  18   12   13 2
  19   12   14 1
  20   13   24 1
  21   14   15 ar
  22   14   19 ar
  23   15   16 ar
  24   15   25 1
  25   16   17 ar
  26   16   26 1
  27   17   18 ar
  28   17   27 1
  29   18   19 ar
  30   19   28 1

#	End of record

