#	Name: ASD01883562
#	Creating user name:	WinNT
#	Creation time:	15. 06. 2019 19:46

#	Modifying user name:	WinNT
#	Modification time:	15. 06. 2019 19:46

#	Program:	/corina/corina34_cracker 3.40 0067  02.08.2006

@<TRIPOS>MOLECULE
ASD01883562
  66   69    0    0    0
SMALL
NO_CHARGES


@<TRIPOS>ATOM
   1 C1            -0.0162     1.3458     0.0094 C.2     
   2 C2             0.0021    -0.0041     0.0020 C.2     
   3 N3             1.1768    -0.6877    -0.0124 N.am    
   4 C4             2.3579    -0.0427    -0.0202 C.2     
   5 C5             2.3947     1.3603    -0.0130 C.2     
   6 C6             1.2004     2.0648     0.0017 C.2     
   7 C7             1.1568    -2.1525    -0.0191 C.3     
   8 O8             3.3997    -0.6794    -0.0332 O.2     
   9 Cl9            3.9133     2.2014    -0.0218 Cl      
  10 C10            1.1998     3.5466     0.0092 C.ar    
  11 C11            0.6797     4.2519    -1.0755 C.ar    
  12 C12            0.6820     5.6317    -1.0629 C.ar    
  13 C13            1.1989     6.3154     0.0231 C.ar    
  14 C14            1.7163     5.6212     1.1021 C.ar    
  15 C15            1.7143     4.2413     1.1034 C.ar    
  16 C16            1.1361    -2.6557    -1.4639 C.3     
  17 C17            1.1152    -4.1855    -1.4709 C.3     
  18 C18            1.0945    -4.6887    -2.9156 C.3     
  19 C19            1.1988     7.8224     0.0305 C.3     
  20 C20            1.8208     8.3284     1.3356 C.3     
  21 C21            1.8885     9.8575     1.3003 C.3     
  22 O22            2.6446    10.2733     0.1612 O.3     
  23 C23            2.0848     9.8691    -1.0900 C.3     
  24 C24            2.0251     8.3406    -1.1507 C.3     
  25 C25           -0.2383     8.3347    -0.0840 C.3     
  26 O26           -0.8157     7.8651    -1.3039 O.3     
  27 C27           -2.1646     8.2894    -1.5096 C.3     
  28 C28           -2.6368     7.8367    -2.8938 C.3     
  29 C29           -4.1017     8.2424    -3.0829 C.3     
  30 C30           -4.9388     7.6319    -1.9547 C.3     
  31 C31           -4.3778     8.0925    -0.6068 C.3     
  32 O32           -3.0042     7.7106    -0.5085 O.3     
  33 H33           -0.9579     1.8746     0.0168 H       
  34 H34           -0.9305    -0.5488     0.0080 H       
  35 H35            2.0466    -2.5304     0.4845 H       
  36 H36            0.2669    -2.5062     0.5016 H       
  37 H37            0.2762     3.7193    -1.9240 H       
  38 H38            0.2797     6.1791    -1.9025 H       
  39 H39            2.1188     6.1603     1.9469 H       
  40 H40            2.1184     3.7004     1.9463 H       
  41 H41            0.2463    -2.2779    -1.9675 H       
  42 H42            2.0260    -2.3021    -1.9846 H       
  43 H43            2.0050    -4.5634    -0.9673 H       
  44 H44            0.2253    -4.5392    -0.9502 H       
  45 H45            0.2047    -4.3109    -3.4192 H       
  46 H46            1.9844    -4.3351    -3.4363 H       
  47 H47            1.0796    -5.7786    -2.9206 H       
  48 H48            1.2076     8.0103     2.1787 H       
  49 H49            2.8265     7.9217     1.4415 H       
  50 H50            0.8794    10.2645     1.2351 H       
  51 H51            2.3694    10.2211     2.2083 H       
  52 H52            1.0784    10.2764    -1.1864 H       
  53 H53            2.7072    10.2412    -1.9038 H       
  54 H54            3.0349     7.9341    -1.0950 H       
  55 H55            1.5579     8.0312    -2.0856 H       
  56 H56           -0.8231     7.9678     0.7596 H       
  57 H57           -0.2370     9.4247    -0.0785 H       
  58 H58           -2.2177     9.3762    -1.4449 H       
  59 H59           -2.0253     8.3121    -3.6607 H       
  60 H60           -2.5456     6.7535    -2.9735 H       
  61 H61           -4.1861     9.3287    -3.0527 H       
  62 H62           -4.4609     7.8741    -4.0438 H       
  63 H63           -5.9737     7.9607    -2.0501 H       
  64 H64           -4.8941     6.5445    -2.0155 H       
  65 H65           -4.4600     9.1767    -0.5302 H       
  66 H66           -4.9432     7.6269     0.2005 H       
@<TRIPOS>BOND
   1    1    2 2
   2    1    6 1
   3    1   33 1
   4    2    3 1
   5    2   34 1
   6    3    4 am
   7    3    7 1
   8    4    5 1
   9    4    8 2
  10    5    6 2
  11    5    9 1
  12    6   10 1
  13    7   16 1
  14    7   35 1
  15    7   36 1
  16   10   11 ar
  17   10   15 ar
  18   11   12 ar
  19   11   37 1
  20   12   13 ar
  21   12   38 1
  22   13   14 ar
  23   13   19 1
  24   14   15 ar
  25   14   39 1
  26   15   40 1
  27   16   17 1
  28   16   41 1
  29   16   42 1
  30   17   18 1
  31   17   43 1
  32   17   44 1
  33   18   45 1
  34   18   46 1
  35   18   47 1
  36   19   20 1
  37   19   25 1
  38   19   24 1
  39   20   21 1
  40   20   48 1
  41   20   49 1
  42   21   22 1
  43   21   50 1
  44   21   51 1
  45   22   23 1
  46   23   24 1
  47   23   52 1
  48   23   53 1
  49   24   54 1
  50   24   55 1
  51   25   26 1
  52   25   56 1
  53   25   57 1
  54   26   27 1
  55   27   28 1
  56   27   32 1
  57   27   58 1
  58   28   29 1
  59   28   59 1
  60   28   60 1
  61   29   30 1
  62   29   61 1
  63   29   62 1
  64   30   31 1
  65   30   63 1
  66   30   64 1
  67   31   32 1
  68   31   65 1
  69   31   66 1

#	End of record

