#	Name: ASD01420060
#	Creating user name:	WinNT
#	Creation time:	15. 06. 2019 19:20

#	Modifying user name:	WinNT
#	Modification time:	15. 06. 2019 19:20

#	Program:	/corina/corina34_cracker 3.40 0067  02.08.2006

@<TRIPOS>MOLECULE
ASD01420060
  40   42    0    0    0
SMALL
NO_CHARGES


@<TRIPOS>ATOM
   1 C1            -0.0144     1.2112     0.0087 C.2     
   2 O2             0.0210    -0.0036     0.0179 O.2     
   3 C3             2.8294     3.2376     0.6575 C.ar    
   4 C4             1.6155     2.6573     1.0684 C.ar    
   5 C5             1.1520     2.9042     2.3555 C.ar    
   6 C6             1.9108     3.7157     3.1816 C.ar    
   7 C7             3.0976     4.2543     2.7108 C.ar    
   8 N8             3.5210     4.0102     1.4889 N.ar    
   9 N9             1.1326     1.9188     0.0053 N.am    
  10 C10            3.0423     2.7905    -0.7228 C.2     
  11 C11            1.9988     2.0155    -1.0546 C.2     
  12 C12           -1.3124     1.9109    -0.0048 C.ar    
  13 C13           -2.5008     1.1818    -0.1105 C.ar    
  14 C14           -3.7104     1.8388    -0.1222 C.ar    
  15 C15           -3.7514     3.2255    -0.0293 C.ar    
  16 C16           -2.5724     3.9542     0.0754 C.ar    
  17 C17           -1.3585     3.3044     0.0937 C.ar    
  18 O18           -4.9459     3.8693    -0.0413 O.3     
  19 C19           -4.9919     1.0541    -0.2366 C.3     
  20 C20           -4.6695    -0.4390    -0.3240 C.3     
  21 C21           -5.8622     1.3167     0.9941 C.3     
  22 C22           -5.7449     1.4879    -1.4958 C.3     
  23 H23            0.2238     2.4743     2.7020 H       
  24 H24            1.5794     3.9280     4.1874 H       
  25 H25            3.6861     4.8868     3.3589 H       
  26 H26            3.8791     3.0441    -1.3566 H       
  27 H27            1.8632     1.5348    -2.0122 H       
  28 H28           -2.4698     0.1046    -0.1831 H       
  29 H29           -2.6087     5.0312     0.1471 H       
  30 H30           -0.4431     3.8711     0.1796 H       
  31 H31           -5.3334     3.9957     0.8356 H       
  32 H32           -4.1330    -0.7480     0.5730 H       
  33 H33           -5.5964    -1.0066    -0.4067 H       
  34 H34           -4.0495    -0.6261    -1.2008 H       
  35 H35           -6.0918     2.3804     1.0564 H       
  36 H36           -6.7891     0.7491     0.9114 H       
  37 H37           -5.3257     1.0076     1.8912 H       
  38 H38           -5.1249     1.3008    -2.3725 H       
  39 H39           -6.6718     0.9203    -1.5784 H       
  40 H40           -5.9746     2.5516    -1.4334 H       
@<TRIPOS>BOND
   1    1    2 2
   2    1    9 am
   3    1   12 1
   4    3    4 ar
   5    3    8 ar
   6    3   10 1
   7    4    5 ar
   8    4    9 1
   9    5    6 ar
  10    5   23 1
  11    6    7 ar
  12    6   24 1
  13    7    8 ar
  14    7   25 1
  15    9   11 1
  16   10   11 2
  17   10   26 1
  18   11   27 1
  19   12   13 ar
  20   12   17 ar
  21   13   14 ar
  22   13   28 1
  23   14   15 ar
  24   14   19 1
  25   15   16 ar
  26   15   18 1
  27   16   17 ar
  28   16   29 1
  29   17   30 1
  30   18   31 1
  31   19   20 1
  32   19   22 1
  33   19   21 1
  34   20   32 1
  35   20   33 1
  36   20   34 1
  37   21   35 1
  38   21   36 1
  39   21   37 1
  40   22   38 1
  41   22   39 1
  42   22   40 1

#	End of record

