#	Name: ASD03430020
#	Creating user name:	WinNT
#	Creation time:	15. 06. 2019 20:40

#	Modifying user name:	WinNT
#	Modification time:	15. 06. 2019 20:40

#	Program:	/corina/corina34_cracker 3.40 0067  02.08.2006

@<TRIPOS>MOLECULE
ASD03430020
  55   60    0    0    0
SMALL
NO_CHARGES


@<TRIPOS>ATOM
   1 C1            -0.0383     1.4272    -0.0860 C.ar    
   2 C2            -0.0117     0.0412    -0.0702 C.ar    
   3 C3             1.1927    -0.6302    -0.0801 C.ar    
   4 C4             2.3945     0.0711    -0.0962 C.ar    
   5 C5             2.3643     1.4619    -0.1167 C.ar    
   6 C6             1.1560     2.1382    -0.1101 C.ar    
   7 O7             3.4621    -0.7774    -0.0749 O.3     
   8 C8             1.5491    -2.0925    -0.0899 C.3     
   9 C9             3.0334    -2.0912    -0.4809 C.3     
  10 C10            0.4399    -3.7959     1.0002 C.ar    
  11 C11            1.3212    -2.7451     1.2412 C.ar    
  12 C12            0.7170    -2.8755    -1.0646 C.2     
  13 N13            0.1067    -3.8457    -0.3554 N.am    
  14 O14            0.6141    -2.6739    -2.2562 O.2     
  15 C15            1.7880    -2.4999     2.5133 C.ar    
  16 C16            1.3834    -3.3007     3.5664 C.ar    
  17 C17            0.5092    -4.3479     3.3384 C.ar    
  18 C18            0.0383    -4.5973     2.0662 C.ar    
  19 C19           -0.8001    -4.8377    -0.9387 C.3     
  20 O20           -1.2364     2.0741    -0.0833 O.3     
  21 C21           -1.2179     3.4610     0.2720 C.3     
  22 C22           -0.0730     4.1375    -0.4941 C.3     
  23 O23            1.1535     3.4998    -0.1235 O.3     
  24 C24           -2.2118    -4.3119    -0.8999 C.ar    
  25 C25           -2.7301    -3.6679    -2.0084 C.ar    
  26 C26           -4.0284    -3.1875    -1.9662 C.ar    
  27 C27           -4.7654    -3.3743    -0.7989 C.ar    
  28 C28           -4.1749    -4.0312     0.2729 C.ar    
  29 N29           -2.9373    -4.4772     0.1886 N.ar    
  30 N30           -6.0790    -2.9073    -0.7076 N.pl3   
  31 C31           -6.6482    -2.1048    -1.7930 C.3     
  32 C32           -6.8871    -3.2201     0.4736 C.3     
  33 H33           -0.9375    -0.5146    -0.0497 H       
  34 H34            3.2899     2.0180    -0.1374 H       
  35 H35            3.1504    -2.2212    -1.5568 H       
  36 H36            3.5781    -2.8619     0.0646 H       
  37 H37            2.4709    -1.6818     2.6891 H       
  38 H38            1.7495    -3.1088     4.5642 H       
  39 H39            0.1941    -4.9736     4.1603 H       
  40 H40           -0.6442    -5.4169     1.8960 H       
  41 H41           -0.5121    -5.0297    -1.9723 H       
  42 H42           -0.7415    -5.7639    -0.3671 H       
  43 H43           -2.1666     3.9232    -0.0011 H       
  44 H44           -1.0536     3.5636     1.3446 H       
  45 H45           -0.2336     4.0285    -1.5667 H       
  46 H46           -0.0311     5.1952    -0.2338 H       
  47 H47           -2.1292    -3.5407    -2.8967 H       
  48 H48           -4.4586    -2.6804    -2.8172 H       
  49 H49           -4.7365    -4.1814     1.1831 H       
  50 H50           -7.1258    -2.7625    -2.5193 H       
  51 H51           -7.3878    -1.4153    -1.3858 H       
  52 H52           -5.8547    -1.5394    -2.2816 H       
  53 H53           -6.3338    -3.8983     1.1232 H       
  54 H54           -7.1110    -2.3006     1.0146 H       
  55 H55           -7.8179    -3.6941     0.1619 H       
@<TRIPOS>BOND
   1    1    2 ar
   2    1    6 ar
   3    1   20 1
   4    2    3 ar
   5    2   33 1
   6    3    4 ar
   7    3    8 1
   8    4    5 ar
   9    4    7 1
  10    5    6 ar
  11    5   34 1
  12    6   23 1
  13    7    9 1
  14    8    9 1
  15    8   11 1
  16    8   12 1
  17    9   35 1
  18    9   36 1
  19   10   11 ar
  20   10   13 1
  21   10   18 ar
  22   11   15 ar
  23   12   13 am
  24   12   14 2
  25   13   19 1
  26   15   16 ar
  27   15   37 1
  28   16   17 ar
  29   16   38 1
  30   17   18 ar
  31   17   39 1
  32   18   40 1
  33   19   24 1
  34   19   41 1
  35   19   42 1
  36   20   21 1
  37   21   22 1
  38   21   43 1
  39   21   44 1
  40   22   23 1
  41   22   45 1
  42   22   46 1
  43   24   25 ar
  44   24   29 ar
  45   25   26 ar
  46   25   47 1
  47   26   27 ar
  48   26   48 1
  49   27   28 ar
  50   27   30 1
  51   28   29 ar
  52   28   49 1
  53   30   31 1
  54   30   32 1
  55   31   50 1
  56   31   51 1
  57   31   52 1
  58   32   53 1
  59   32   54 1
  60   32   55 1

#	End of record

