#	Name: ASD02500890
#	Creating user name:	WinNT
#	Creation time:	15. 06. 2019 20:23

#	Modifying user name:	WinNT
#	Modification time:	15. 06. 2019 20:23

#	Program:	/corina/corina34_cracker 3.40 0067  02.08.2006

@<TRIPOS>MOLECULE
ASD02500890
  35   37    0    0    0
SMALL
NO_CHARGES


@<TRIPOS>ATOM
   1 C1            -0.0162     1.3794     0.0086 C.ar    
   2 C2             0.6492     1.1299     1.1949 C.ar    
   3 C3             1.8552     0.4569     1.1834 C.ar    
   4 C4             2.3995     0.0308    -0.0208 C.ar    
   5 C5             1.7290     0.2829    -1.2102 C.ar    
   6 C6             0.5232     0.9564    -1.1923 C.ar    
   7 N7             3.6231    -0.6517    -0.0357 N.am    
   8 C8             3.6517    -1.9862     0.0575 C.2     
   9 S9             5.3562    -2.4687     0.0028 S.3     
  10 C10            5.9679    -0.8093    -0.1469 C.2     
  11 C11            4.7582     0.0178    -0.1476 C.2     
  12 C12            7.2655    -0.3986    -0.2439 C.2     
  13 O13            4.7956     1.2314    -0.2375 O.2     
  14 S14            2.3008    -3.0279     0.2020 S.2     
  15 C15            8.3073    -1.3470    -0.2315 C.2     
  16 C16            9.5950    -0.9395    -0.3276 C.2     
  17 C17           10.6821    -1.9291    -0.3147 C.ar    
  18 C18           12.0143    -1.5121    -0.4139 C.ar    
  19 C19           13.0278    -2.4465    -0.4011 C.ar    
  20 C20           12.7307    -3.7939    -0.2904 C.ar    
  21 C21           11.4157    -4.2148    -0.1923 C.ar    
  22 C22           10.3907    -3.2928    -0.1974 C.ar    
  23 H23           -0.9614     1.9018     0.0205 H       
  24 H24            0.2255     1.4619     2.1312 H       
  25 H25            2.3746     0.2626     2.1102 H       
  26 H26            2.1500    -0.0470    -2.1485 H       
  27 H27            0.0012     1.1527    -2.1171 H       
  28 H28            7.4939     0.6534    -0.3301 H       
  29 H29            8.0789    -2.3991    -0.1452 H       
  30 H30            9.8234     0.1125    -0.4139 H       
  31 H31           12.2477    -0.4612    -0.5006 H       
  32 H32           14.0564    -2.1264    -0.4779 H       
  33 H33           13.5294    -4.5209    -0.2810 H       
  34 H34           11.1922    -5.2680    -0.1071 H       
  35 H35            9.3652    -3.6227    -0.1204 H       
@<TRIPOS>BOND
   1    1    2 ar
   2    1    6 ar
   3    1   23 1
   4    2    3 ar
   5    2   24 1
   6    3    4 ar
   7    3   25 1
   8    4    5 ar
   9    4    7 1
  10    5    6 ar
  11    5   26 1
  12    6   27 1
  13    7    8 am
  14    7   11 am
  15    8    9 1
  16    8   14 2
  17    9   10 1
  18   10   11 1
  19   10   12 2
  20   11   13 2
  21   12   15 1
  22   12   28 1
  23   15   16 2
  24   15   29 1
  25   16   17 1
  26   16   30 1
  27   17   18 ar
  28   17   22 ar
  29   18   19 ar
  30   18   31 1
  31   19   20 ar
  32   19   32 1
  33   20   21 ar
  34   20   33 1
  35   21   22 ar
  36   21   34 1
  37   22   35 1

#	End of record

