#	Name: ASD04882170
#	Creating user name:	WinNT
#	Creation time:	15. 06. 2019 20:54

#	Modifying user name:	WinNT
#	Modification time:	15. 06. 2019 20:54

#	Program:	/corina/corina34_cracker 3.40 0067  02.08.2006

@<TRIPOS>MOLECULE
ASD04882170
  78   82    0    0    0
SMALL
NO_CHARGES


@<TRIPOS>ATOM
   1 C1             0.1547     1.7607    -0.4628 C.2     
   2 C2             0.1160     0.2970    -0.5420 C.2     
   3 N3             1.1406    -0.4315    -0.0562 N.am    
   4 C4             1.0564    -1.8297    -0.0322 C.ar    
   5 C5             2.2100    -2.6026    -0.1918 C.ar    
   6 C6             2.1280    -3.9902    -0.1677 C.ar    
   7 C7             0.9106    -4.6082     0.0133 C.ar    
   8 C8            -0.2468    -3.8412     0.1735 C.ar    
   9 C9            -0.1665    -2.4459     0.1549 C.ar    
  10 N10            3.4429    -1.9820    -0.3755 N.3     
  11 C11            3.4977    -1.2939    -1.6717 C.3     
  12 C12            4.5426    -2.9455    -0.2389 C.3     
  13 C13            5.8811    -2.2061    -0.3016 C.3     
  14 C14            5.9883    -1.4671    -1.6383 C.3     
  15 C15            4.8050    -0.5053    -1.7772 C.3     
  16 C16            7.2779    -0.6886    -1.6814 C.ar    
  17 C17            8.1712    -0.8880    -2.7169 C.ar    
  18 C18            7.5647     0.2293    -0.6880 C.ar    
  19 C19            8.7475     0.9433    -0.7275 C.ar    
  20 C20            9.6439     0.7394    -1.7601 C.ar    
  21 C21            9.3546    -0.1741    -2.7562 C.ar    
  22 C22           -1.5508    -4.5035     0.3674 C.2     
  23 N23           -1.6265    -5.8489     0.3902 N.am    
  24 O24           -2.5572    -3.8355     0.5067 O.2     
  25 O25           -0.8415    -0.2600    -1.0464 O.2     
  26 C26           -2.9213    -6.5066     0.5828 C.3     
  27 C27           -2.7296    -8.0244     0.5685 C.3     
  28 C28           -4.0819    -8.7112     0.7697 C.3     
  29 N29           -3.8982   -10.1646     0.7560 N.am    
  30 C30           -3.6452   -10.9074     1.8474 C.2     
  31 C31           -3.5044   -12.3641     1.4642 C.3     
  32 C32           -3.2967   -12.3348    -0.0678 C.3     
  33 C33           -3.9731   -10.9975    -0.4501 C.3     
  34 O34           -3.5441   -10.4730     2.9752 O.2     
  35 C35           -0.8133     2.6143    -0.9089 C.2     
  36 O36            1.1504     2.4998     0.0688 O.3     
  37 C37            0.8422     3.7993    -0.0325 C.2     
  38 C38           -0.3637     3.9147    -0.6313 C.2     
  39 C39            1.6979     4.9440     0.4453 C.3     
  40 C40            7.8557    -1.8840    -3.8030 C.3     
  41 H41            1.9362     0.0123     0.2769 H       
  42 H42            3.0210    -4.5849    -0.2917 H       
  43 H43            0.8502    -5.6863     0.0311 H       
  44 H44           -1.0591    -1.8507     0.2788 H       
  45 H45            3.4511    -2.0289    -2.4753 H       
  46 H46            2.6532    -0.6100    -1.7558 H       
  47 H47            4.4570    -3.4611     0.7176 H       
  48 H48            4.4911    -3.6727    -1.0492 H       
  49 H49            5.9390    -1.4884     0.5167 H       
  50 H50            6.6974    -2.9234    -0.2158 H       
  51 H51            5.9695    -2.1881    -2.4556 H       
  52 H52            4.8525    -0.0073    -2.7456 H       
  53 H53            4.8460     0.2392    -0.9821 H       
  54 H54            6.8645     0.3886     0.1186 H       
  55 H55            8.9712     1.6608     0.0481 H       
  56 H56           10.5679     1.2976    -1.7912 H       
  57 H57           10.0548    -0.3334    -3.5628 H       
  58 H58           -0.8236    -6.3818     0.2791 H       
  59 H59           -3.3443    -6.2028     1.5404 H       
  60 H60           -3.5984    -6.2183    -0.2213 H       
  61 H61           -2.3066    -8.3282    -0.3890 H       
  62 H62           -2.0525    -8.3127     1.3727 H       
  63 H63           -4.5048    -8.4074     1.7272 H       
  64 H64           -4.7589    -8.4230    -0.0344 H       
  65 H65           -2.6393   -12.8066     1.9580 H       
  66 H66           -4.4112   -12.9141     1.7157 H       
  67 H67           -2.2358   -12.3252    -0.3175 H       
  68 H68           -3.8010   -13.1746    -0.5460 H       
  69 H69           -5.0115   -11.1677    -0.7344 H       
  70 H70           -3.4311   -10.5205    -1.2666 H       
  71 H71           -1.7444     2.3417    -1.3833 H       
  72 H72           -0.8836     4.8346    -0.8545 H       
  73 H73            2.6133     4.5527     0.8893 H       
  74 H74            1.9492     5.5867    -0.3984 H       
  75 H75            1.1502     5.5205     1.1908 H       
  76 H76            7.3553    -1.3761    -4.6275 H       
  77 H77            8.7807    -2.3353    -4.1620 H       
  78 H78            7.2029    -2.6609    -3.4051 H       
@<TRIPOS>BOND
   1    1    2 1
   2    1   36 1
   3    1   35 2
   4    2    3 am
   5    2   25 2
   6    3    4 1
   7    3   41 1
   8    4    5 ar
   9    4    9 ar
  10    5    6 ar
  11    5   10 1
  12    6    7 ar
  13    6   42 1
  14    7    8 ar
  15    7   43 1
  16    8    9 ar
  17    8   22 1
  18    9   44 1
  19   10   11 1
  20   10   12 1
  21   11   15 1
  22   11   45 1
  23   11   46 1
  24   12   13 1
  25   12   47 1
  26   12   48 1
  27   13   14 1
  28   13   49 1
  29   13   50 1
  30   14   15 1
  31   14   16 1
  32   14   51 1
  33   15   52 1
  34   15   53 1
  35   16   17 ar
  36   16   18 ar
  37   17   40 1
  38   17   21 ar
  39   18   19 ar
  40   18   54 1
  41   19   20 ar
  42   19   55 1
  43   20   21 ar
  44   20   56 1
  45   21   57 1
  46   22   23 am
  47   22   24 2
  48   23   26 1
  49   23   58 1
  50   26   27 1
  51   26   59 1
  52   26   60 1
  53   27   28 1
  54   27   61 1
  55   27   62 1
  56   28   29 1
  57   28   63 1
  58   28   64 1
  59   29   30 am
  60   29   33 1
  61   30   31 1
  62   30   34 2
  63   31   32 1
  64   31   65 1
  65   31   66 1
  66   32   33 1
  67   32   67 1
  68   32   68 1
  69   33   69 1
  70   33   70 1
  71   35   38 1
  72   35   71 1
  73   36   37 1
  74   37   38 2
  75   37   39 1
  76   38   72 1
  77   39   73 1
  78   39   74 1
  79   39   75 1
  80   40   76 1
  81   40   77 1
  82   40   78 1

#	End of record

