#	Name: ASD05213047
#	Creating user name:	WinNT
#	Creation time:	15. 06. 2019 20:57

#	Modifying user name:	WinNT
#	Modification time:	15. 06. 2019 20:57

#	Program:	/corina/corina34_cracker 3.40 0067  02.08.2006

@<TRIPOS>MOLECULE
ASD05213047
  43   46    0    0    0
SMALL
NO_CHARGES


@<TRIPOS>ATOM
   1 O1             3.6473    -8.6202    -0.0479 O.3     
   2 C2             2.7812    -7.5730    -0.0432 C.ar    
   3 C3             2.3306    -7.0386    -1.2415 C.ar    
   4 C4             1.4503    -5.9740    -1.2340 C.ar    
   5 C5             1.0182    -5.4411    -0.0336 C.ar    
   6 C6             1.4662    -5.9716     1.1621 C.ar    
   7 C7             2.3417    -7.0402     1.1600 C.ar    
   8 C8             0.0578    -4.2798    -0.0284 C.3     
   9 N9            -1.3148    -4.7808    -0.1338 N.pl3   
  10 C10           -1.9328    -4.8460    -1.3660 C.2     
  11 C11           -2.0314    -5.2125     1.0688 C.3     
  12 C12           -2.6757    -4.0188     1.7253 C.ar    
  13 N13           -3.1336    -5.2698    -1.5656 N.2     
  14 C14           -3.5989    -5.2727    -2.8309 C.ar    
  15 C15           -2.6643    -4.7964    -3.7548 C.ar    
  16 S16           -1.1966    -4.3558    -2.8853 S.3     
  17 C17           -4.8628    -5.6823    -3.3058 C.ar    
  18 C18           -5.1590    -5.6115    -4.6436 C.ar    
  19 C19           -4.2222    -5.1372    -5.5500 C.ar    
  20 C20           -2.9820    -4.7318    -5.1091 C.ar    
  21 C21           -3.9935    -3.7056     1.4488 C.ar    
  22 C22           -4.5850    -2.6112     2.0510 C.ar    
  23 C23           -3.8582    -1.8292     2.9306 C.ar    
  24 C24           -2.5396    -2.1430     3.2071 C.ar    
  25 C25           -1.9506    -3.2407     2.6083 C.ar    
  26 Br26          -4.6666    -0.3314     3.7544 Br      
  27 H27            4.5787    -8.3603    -0.0541 H       
  28 H28            2.6681    -7.4542    -2.1795 H       
  29 H29            1.0995    -5.5574    -2.1667 H       
  30 H30            1.1278    -5.5532     2.0985 H       
  31 H31            2.6913    -7.4542     2.0942 H       
  32 H32            0.1699    -3.7198     0.9001 H       
  33 H33            0.2724    -3.6271    -0.8745 H       
  34 H34           -2.8000    -5.9350     0.7941 H       
  35 H35           -1.3300    -5.6747     1.7634 H       
  36 H36           -5.6019    -6.0544    -2.6117 H       
  37 H37           -6.1302    -5.9282    -4.9941 H       
  38 H38           -4.4651    -5.0862    -6.6010 H       
  39 H39           -2.2537    -4.3625    -5.8159 H       
  40 H40           -4.5608    -4.3160     0.7617 H       
  41 H41           -5.6144    -2.3663     1.8346 H       
  42 H42           -1.9717    -1.5326     3.8935 H       
  43 H43           -0.9211    -3.4858     2.8241 H       
@<TRIPOS>BOND
   1    1    2 1
   2    1   27 1
   3    2    3 ar
   4    2    7 ar
   5    3    4 ar
   6    3   28 1
   7    4    5 ar
   8    4   29 1
   9    5    6 ar
  10    5    8 1
  11    6    7 ar
  12    6   30 1
  13    7   31 1
  14    8    9 1
  15    8   32 1
  16    8   33 1
  17    9   10 1
  18    9   11 1
  19   10   13 2
  20   10   16 1
  21   11   12 1
  22   11   34 1
  23   11   35 1
  24   12   21 ar
  25   12   25 ar
  26   13   14 1
  27   14   15 ar
  28   14   17 ar
  29   15   16 1
  30   15   20 ar
  31   17   18 ar
  32   17   36 1
  33   18   19 ar
  34   18   37 1
  35   19   20 ar
  36   19   38 1
  37   20   39 1
  38   21   22 ar
  39   21   40 1
  40   22   23 ar
  41   22   41 1
  42   23   24 ar
  43   23   26 1
  44   24   25 ar
  45   24   42 1
  46   25   43 1

#	End of record

