#	Name: ASD00311469
#	Creating user name:	WinNT
#	Creation time:	15. 06. 2019 18:34

#	Modifying user name:	WinNT
#	Modification time:	15. 06. 2019 18:34

#	Program:	/corina/corina34_cracker 3.40 0067  02.08.2006

@<TRIPOS>MOLECULE
ASD00311469
  51   55    0    0    0
SMALL
NO_CHARGES


@<TRIPOS>ATOM
   1 C1            -0.0167     1.3780     0.0096 C.2     
   2 C2             0.0021    -0.0041     0.0020 C.2     
   3 C3             1.2581    -0.6767    -0.0139 C.2     
   4 C4             2.4321     0.0678    -0.0214 C.2     
   5 C5             2.3575     1.4765    -0.0131 C.2     
   6 N6             1.1646     2.0909     0.0022 N.am    
   7 C7            -1.3434    -0.5751     0.0126 C.2     
   8 C8            -2.3228     0.3263     0.0274 C.2     
   9 S9            -1.6793     1.9564     0.0358 S.3     
  10 O10            3.3818     2.1390    -0.0196 O.2     
  11 C11            5.8238    -1.1329    -1.1067 C.ar    
  12 C12            4.6083    -0.4838    -1.1336 C.ar    
  13 C13            3.7467    -0.6105    -0.0375 C.ar    
  14 C14            4.1639    -1.3965     1.0433 C.ar    
  15 C15            5.3967    -2.0102     0.9867 C.ar    
  16 N16            6.1786    -1.8648    -0.0669 N.ar    
  17 C17           -2.0697    -4.7660    -0.0056 C.ar    
  18 C18           -2.7059    -3.9523     0.9316 C.ar    
  19 C19           -2.4707    -2.5954     0.9381 C.ar    
  20 C20           -1.5960    -2.0345     0.0066 C.ar    
  21 C21           -0.9596    -2.8491    -0.9310 C.ar    
  22 C22           -1.1950    -4.2059    -0.9365 C.ar    
  23 C23           -2.3186    -6.2279    -0.0084 C.ar    
  24 C24           -1.6842    -7.0438    -0.9438 C.ar    
  25 C25           -1.9197    -8.4036    -0.9416 C.ar    
  26 C26           -2.7836    -8.9572    -0.0139 C.ar    
  27 C27           -3.4163    -8.1523     0.9165 C.ar    
  28 C28           -3.1833    -6.7921     0.9280 C.ar    
  29 C29           -3.0369   -10.4427    -0.0170 C.3     
  30 O30            1.3078    -2.0288    -0.0212 O.3     
  31 C31            1.1153     3.5550     0.0105 C.3     
  32 H32           -3.3754     0.0848     0.0368 H       
  33 H33            6.4935    -1.0449    -1.9495 H       
  34 H34            4.3247     0.1136    -1.9875 H       
  35 H35            3.5294    -1.5198     1.9086 H       
  36 H36            5.7274    -2.6186     1.8155 H       
  37 H37           -3.3834    -4.3863     1.6520 H       
  38 H38           -2.9636    -1.9653     1.6636 H       
  39 H39           -0.2823    -2.4155    -1.6519 H       
  40 H40           -0.7026    -4.8364    -1.6621 H       
  41 H41           -1.0101    -6.6126    -1.6690 H       
  42 H42           -1.4287    -9.0367    -1.6659 H       
  43 H43           -4.0903    -8.5899     1.6380 H       
  44 H44           -3.6740    -6.1653     1.6579 H       
  45 H45           -2.3135   -10.9361     0.6321 H       
  46 H46           -4.0453   -10.6401     0.3467 H       
  47 H47           -2.9352   -10.8265    -1.0322 H       
  48 H48            2.2050    -2.3894    -0.0320 H       
  49 H49            1.1129     3.9126     1.0401 H       
  50 H50            1.9876     3.9509    -0.5096 H       
  51 H51            0.2087     3.8909    -0.4929 H       
@<TRIPOS>BOND
   1    1    2 2
   2    1    6 1
   3    1    9 1
   4    2    3 1
   5    2    7 1
   6    3    4 2
   7    3   30 1
   8    4    5 1
   9    4   13 1
  10    5    6 am
  11    5   10 2
  12    6   31 1
  13    7    8 2
  14    7   20 1
  15    8    9 1
  16    8   32 1
  17   11   12 ar
  18   11   16 ar
  19   11   33 1
  20   12   13 ar
  21   12   34 1
  22   13   14 ar
  23   14   15 ar
  24   14   35 1
  25   15   16 ar
  26   15   36 1
  27   17   18 ar
  28   17   22 ar
  29   17   23 1
  30   18   19 ar
  31   18   37 1
  32   19   20 ar
  33   19   38 1
  34   20   21 ar
  35   21   22 ar
  36   21   39 1
  37   22   40 1
  38   23   24 ar
  39   23   28 ar
  40   24   25 ar
  41   24   41 1
  42   25   26 ar
  43   25   42 1
  44   26   27 ar
  45   26   29 1
  46   27   28 ar
  47   27   43 1
  48   28   44 1
  49   29   45 1
  50   29   46 1
  51   29   47 1
  52   30   48 1
  53   31   49 1
  54   31   50 1
  55   31   51 1

#	End of record

