#	Name: ASD01230111
#	Creating user name:	WinNT
#	Creation time:	15. 06. 2019 19:11

#	Modifying user name:	WinNT
#	Modification time:	15. 06. 2019 19:11

#	Program:	/corina/corina34_cracker 3.40 0067  02.08.2006

@<TRIPOS>MOLECULE
ASD01230111
  60   64    0    0    0
SMALL
NO_CHARGES


@<TRIPOS>ATOM
   1 C1            -0.0183     1.3345     0.1410 C.2     
   2 C2             0.0040     0.0064    -0.1324 C.2     
   3 C3            -1.1803    -0.8648    -0.3238 C.ar    
   4 C4            -1.1561    -1.9181    -1.2432 C.ar    
   5 N5             1.2828     1.7502     0.2162 N.pl3   
   6 C6             2.0692     0.6576     0.0155 C.2     
   7 N7             1.2932    -0.3815    -0.1997 N.2     
   8 C8            -2.3501    -0.6592     0.4143 C.ar    
   9 C9            -3.4284    -1.4933     0.2052 C.ar    
  10 N10           -3.3658    -2.4732    -0.6764 N.ar    
  11 C11           -2.2797    -2.7044    -1.3895 C.ar    
  12 C12            3.5480     0.6421     0.0353 C.ar    
  13 C13            4.2301    -0.4995     0.4579 C.ar    
  14 C14           -4.6949    -1.2831     0.9943 C.3     
  15 C15            4.2649     1.7669    -0.3738 C.ar    
  16 C16            5.6448     1.7501    -0.3543 C.ar    
  17 C17            6.3208     0.6191     0.0699 C.ar    
  18 C18            5.6134    -0.5079     0.4743 C.ar    
  19 C19           -1.2250     2.2099     0.3512 C.3     
  20 C20           -0.8634     3.6523    -0.0169 C.3     
  21 O21           -0.2943     4.3064     1.1166 O.3     
  22 C22            0.9081     3.7178     1.6106 C.3     
  23 C23            1.7137     3.1307     0.4482 C.3     
  24 F24            7.6717     0.6082     0.0860 F       
  25 O25            6.2815    -1.6165     0.8907 O.3     
  26 C26            5.4914    -2.7376     1.2917 C.3     
  27 C27            6.4112    -3.8811     1.7244 C.3     
  28 C28           -2.2690    -3.8391    -2.3811 C.3     
  29 C29            5.6593    -5.1463     2.1789 C.3     
  30 O30            6.6413    -5.8691     1.4096 O.3     
  31 C31            6.9245    -4.7428     0.5553 C.3     
  32 C32            7.5076    -3.4326     2.6928 C.3     
  33 H33           -0.2708    -2.1128    -1.8303 H       
  34 H34           -2.4082     0.1406     1.1377 H       
  35 H35            3.6796    -1.3741     0.7716 H       
  36 H36           -5.3494    -0.5981     0.4553 H       
  37 H37           -5.2014    -2.2387     1.1298 H       
  38 H38           -4.4499    -0.8603     1.9687 H       
  39 H39            3.7402     2.6505    -0.7060 H       
  40 H40            6.1986     2.6214    -0.6713 H       
  41 H41           -2.0411     1.8649    -0.2837 H       
  42 H42           -1.5302     2.1657     1.3967 H       
  43 H43           -0.1420     3.6485    -0.8341 H       
  44 H44           -1.7625     4.1836    -0.3292 H       
  45 H45            1.5029     4.4786     2.1160 H       
  46 H46            0.6600     2.9251     2.3165 H       
  47 H47            2.7749     3.1444     0.6965 H       
  48 H48            1.5408     3.7224    -0.4507 H       
  49 H49            4.8510    -2.4510     2.1259 H       
  50 H50            4.8738    -3.0647     0.4553 H       
  51 H51           -2.6109    -3.4774    -3.3509 H       
  52 H52           -1.2557    -4.2296    -2.4756 H       
  53 H53           -2.9327    -4.6311    -2.0342 H       
  54 H54            5.7158    -5.3314     3.2516 H       
  55 H55            4.6462    -5.2229     1.7841 H       
  56 H56            6.2978    -4.6962    -0.3352 H       
  57 H57            7.9846    -4.6079     0.3403 H       
  58 H58            7.0613    -3.1780     3.6541 H       
  59 H59            8.2257    -4.2414     2.8284 H       
  60 H60            8.0168    -2.5590     2.2858 H       
@<TRIPOS>BOND
   1    1    2 2
   2    1    5 1
   3    1   19 1
   4    2    3 1
   5    2    7 1
   6    3    4 ar
   7    3    8 ar
   8    4   11 ar
   9    4   33 1
  10    5    6 1
  11    5   23 1
  12    6    7 2
  13    6   12 1
  14    8    9 ar
  15    8   34 1
  16    9   10 ar
  17    9   14 1
  18   10   11 ar
  19   11   28 1
  20   12   15 ar
  21   12   13 ar
  22   13   18 ar
  23   13   35 1
  24   14   36 1
  25   14   37 1
  26   14   38 1
  27   15   16 ar
  28   15   39 1
  29   16   17 ar
  30   16   40 1
  31   17   18 ar
  32   17   24 1
  33   18   25 1
  34   19   20 1
  35   19   41 1
  36   19   42 1
  37   20   21 1
  38   20   43 1
  39   20   44 1
  40   21   22 1
  41   22   23 1
  42   22   45 1
  43   22   46 1
  44   23   47 1
  45   23   48 1
  46   25   26 1
  47   26   27 1
  48   26   49 1
  49   26   50 1
  50   27   29 1
  51   27   32 1
  52   27   31 1
  53   28   51 1
  54   28   52 1
  55   28   53 1
  56   29   30 1
  57   29   54 1
  58   29   55 1
  59   30   31 1
  60   31   56 1
  61   31   57 1
  62   32   58 1
  63   32   59 1
  64   32   60 1

#	End of record

