#	Name: ASD00841695
#	Creating user name:	WinNT
#	Creation time:	15. 06. 2019 18:42

#	Modifying user name:	WinNT
#	Modification time:	15. 06. 2019 18:42

#	Program:	/corina/corina34_cracker 3.40 0067  02.08.2006

@<TRIPOS>MOLECULE
ASD00841695
  88   93    0    0    0
SMALL
NO_CHARGES


@<TRIPOS>ATOM
   1 F1            -0.0762    -3.1314     4.7227 F       
   2 C2            -0.0065     1.3876     0.0271 C.ar    
   3 C3             0.0086     0.0007     0.0135 C.ar    
   4 C4             1.2190    -0.6774    -0.0051 C.ar    
   5 C5             2.4055     0.0297    -0.0100 C.ar    
   6 C6             2.3877     1.4124     0.0041 C.ar    
   7 C7             1.1831     2.0904     0.0222 C.ar    
   8 C8             1.2391    -2.1842    -0.0195 C.3     
   9 C9             0.4943    -2.7129    -1.2266 C.2     
  10 N10            2.6185    -2.6778    -0.0111 N.am    
  11 C11            3.4633    -2.3341    -1.0034 C.2     
  12 N12            4.7589    -2.7002    -0.9424 N.am    
  13 O13            3.0566    -1.6937    -1.9535 O.2     
  14 C14            5.2969    -3.3770     0.2474 C.3     
  15 C15            6.0335    -4.6427    -0.2038 C.3     
  16 N16            7.0319    -4.2879    -1.2213 N.3     
  17 C17            6.3941    -3.7364    -2.4242 C.3     
  18 C18            5.6709    -2.4390    -2.0664 C.3     
  19 C19            7.8763    -5.4426    -1.5555 C.3     
  20 C20            8.8190    -5.0719    -2.7037 C.3     
  21 C21            9.7373    -6.2581    -3.0065 C.3     
  22 N22           10.5102    -6.5996    -1.8055 N.3     
  23 C23            9.6280    -7.0045    -0.7037 C.3     
  24 C24            8.7065    -5.8406    -0.3321 C.3     
  25 C25           11.5019    -7.6435    -2.0968 C.3     
  26 O26            0.7735    -2.5120    -2.3897 O.2     
  27 N27           -0.5337    -3.4466    -0.7685 N.am    
  28 C28            0.4692    -2.7354     1.1593 C.ar    
  29 C29           -0.5780    -3.4809     0.6274 C.ar    
  30 C30            0.6381    -2.6172     2.5212 C.ar    
  31 C31           -0.2405    -3.2453     3.3866 C.ar    
  32 C32           -1.2992    -3.9990     2.8699 C.ar    
  33 C33           -1.4644    -4.1150     1.4900 C.ar    
  34 C34           -0.9888    -5.8363    -2.0555 C.ar    
  35 C35           -1.3161    -6.8800    -1.2096 C.ar    
  36 C36           -0.1697    -6.0587    -3.1470 C.ar    
  37 C37            0.3239    -7.3249    -3.3950 C.ar    
  38 C38           -0.0030    -8.3738    -2.5477 C.ar    
  39 C39           -0.8247    -8.1479    -1.4530 C.ar    
  40 O40            0.4810    -9.6204    -2.7898 O.3     
  41 H41           -1.9561    -6.7037    -0.3577 H       
  42 C42            0.1031   -10.6518    -1.8758 C.3     
  43 C43           -2.2132    -4.6524     3.7578 C.1     
  44 N44           -2.9383    -5.1707     4.4621 N.1     
  45 O45           -1.1601    -0.6929     0.0187 O.3     
  46 C46           -3.5698    -0.8755     0.0417 C.3     
  47 C47           -2.3677     0.0710     0.0386 C.3     
  48 S48           -1.6227    -4.2216    -1.7461 S.o2    
  49 O49           -2.8028    -4.3950    -0.9737 O.2     
  50 O50           -1.6022    -3.5372    -2.9912 O.2     
  51 H51           -0.9474     1.9178     0.0371 H       
  52 H52            3.3479    -0.4976    -0.0245 H       
  53 H53            3.3165     1.9636     0.0010 H       
  54 H54            1.1718     3.1703     0.0332 H       
  55 H55            2.9237    -3.2520     0.7087 H       
  56 H56            5.9911    -2.7137     0.7634 H       
  57 H57            4.4795    -3.6477     0.9157 H       
  58 H58            6.5322    -5.0980     0.6518 H       
  59 H59            5.3184    -5.3485    -0.6265 H       
  60 H60            7.1542    -3.5344    -3.1789 H       
  61 H61            5.6740    -4.4548    -2.8160 H       
  62 H62            5.1022    -2.0874    -2.9273 H       
  63 H63            6.3989    -1.6833    -1.7715 H       
  64 H64            7.2463    -6.2794    -1.8572 H       
  65 H65            8.2341    -4.8287    -3.5907 H       
  66 H66            9.4210    -4.2098    -2.4164 H       
  67 H67            9.1354    -7.1158    -3.3071 H       
  68 H68           10.4194    -5.9925    -3.8141 H       
  69 H69            9.0267    -7.8587    -1.0150 H       
  70 H70           10.2308    -7.2810     0.1614 H       
  71 H71            9.3067    -4.9906    -0.0074 H       
  72 H72            8.0412    -6.1466     0.4753 H       
  73 H73           12.1886    -7.2880    -2.8651 H       
  74 H74           12.0602    -7.8773    -1.1904 H       
  75 H75           10.9926    -8.5397    -2.4512 H       
  76 H76            1.4576    -2.0337     2.9143 H       
  77 H77           -2.2820    -4.6972     1.0914 H       
  78 H78            0.0841    -5.2420    -3.8064 H       
  79 H79            0.9633    -7.4983    -4.2478 H       
  80 H80           -1.0808    -8.9628    -0.7922 H       
  81 H81            0.4469   -10.3936    -0.8742 H       
  82 H82           -0.9820   -10.7545    -1.8723 H       
  83 H83            0.5562   -11.5941    -2.1838 H       
  84 H84           -3.5466    -1.4952    -0.8546 H       
  85 H85           -3.5283    -1.5126     0.9252 H       
  86 H86           -4.4909    -0.2928     0.0569 H       
  87 H87           -2.3908     0.6908     0.9349 H       
  88 H88           -2.4091     0.7081    -0.8449 H       
@<TRIPOS>BOND
   1    1   31 1
   2    2    3 ar
   3    2    7 ar
   4    2   51 1
   5    3    4 ar
   6    3   45 1
   7    4    5 ar
   8    4    8 1
   9    5    6 ar
  10    5   52 1
  11    6    7 ar
  12    6   53 1
  13    7   54 1
  14    8    9 1
  15    8   10 1
  16    8   28 1
  17    9   26 2
  18    9   27 am
  19   10   11 am
  20   10   55 1
  21   11   12 am
  22   11   13 2
  23   12   14 1
  24   12   18 1
  25   14   15 1
  26   14   56 1
  27   14   57 1
  28   15   16 1
  29   15   58 1
  30   15   59 1
  31   16   17 1
  32   16   19 1
  33   17   18 1
  34   17   60 1
  35   17   61 1
  36   18   62 1
  37   18   63 1
  38   19   20 1
  39   19   24 1
  40   19   64 1
  41   20   21 1
  42   20   65 1
  43   20   66 1
  44   21   22 1
  45   21   67 1
  46   21   68 1
  47   22   23 1
  48   22   25 1
  49   23   24 1
  50   23   69 1
  51   23   70 1
  52   24   71 1
  53   24   72 1
  54   25   73 1
  55   25   74 1
  56   25   75 1
  57   27   48 am
  58   27   29 1
  59   28   29 ar
  60   28   30 ar
  61   29   33 ar
  62   30   31 ar
  63   30   76 1
  64   31   32 ar
  65   32   33 ar
  66   32   43 1
  67   33   77 1
  68   34   35 ar
  69   34   36 ar
  70   34   48 1
  71   35   41 1
  72   35   39 ar
  73   36   37 ar
  74   36   78 1
  75   37   38 ar
  76   37   79 1
  77   38   39 ar
  78   38   40 1
  79   39   80 1
  80   40   42 1
  81   42   81 1
  82   42   82 1
  83   42   83 1
  84   43   44 3
  85   45   47 1
  86   46   47 1
  87   46   84 1
  88   46   85 1
  89   46   86 1
  90   47   87 1
  91   47   88 1
  92   48   49 2
  93   48   50 2

#	End of record

