#	Name: ASD01530020
#	Creating user name:	WinNT
#	Creation time:	15. 06. 2019 19:22

#	Modifying user name:	WinNT
#	Modification time:	15. 06. 2019 19:22

#	Program:	/corina/corina34_cracker 3.40 0067  02.08.2006

@<TRIPOS>MOLECULE
ASD01530020
  26   27    0    0    0
SMALL
NO_CHARGES


@<TRIPOS>ATOM
   1 C1            -0.0166     1.3756     0.0096 C.ar    
   2 C2             0.0021    -0.0041     0.0020 C.ar    
   3 C3             1.2072    -0.6987    -0.0132 C.ar    
   4 C4             2.3990    -0.0395    -0.0210 C.ar    
   5 C5             2.4244     1.3655    -0.0137 C.ar    
   6 C6             3.6398     2.0719    -0.0210 C.ar    
   7 C7             3.6278     3.4329    -0.0131 C.ar    
   8 C8             2.4269     4.1394     0.0020 C.ar    
   9 C9             1.2311     3.4879     0.0099 C.ar    
  10 C10            1.2042     2.0850     0.0018 C.ar    
  11 S11           -1.5497     2.2441     0.0216 S.3     
  12 C12           -2.7760     0.9073     0.0202 C.3     
  13 C13           -4.1625     1.4976     0.0300 C.2     
  14 C14           -4.9579     1.3186    -0.9954 C.2     
  15 H15           -0.9293    -0.5508     0.0083 H       
  16 H16            1.1976    -1.7786    -0.0186 H       
  17 H17            3.3243    -0.5964    -0.0325 H       
  18 H18            4.5782     1.5375    -0.0323 H       
  19 H19            4.5629     3.9733    -0.0184 H       
  20 H20            2.4447     5.2192     0.0079 H       
  21 H21            0.3079     4.0483     0.0223 H       
  22 H22           -2.6472     0.2971    -0.8737 H       
  23 H23           -2.6387     0.2874     0.9062 H       
  24 H24           -4.5005     2.0682     0.8824 H       
  25 H25           -4.6199     0.7480    -1.8478 H       
  26 H26           -5.9515     1.7416    -0.9884 H       
@<TRIPOS>BOND
   1    1    2 ar
   2    1   10 ar
   3    1   11 1
   4    2    3 ar
   5    2   15 1
   6    3    4 ar
   7    3   16 1
   8    4    5 ar
   9    4   17 1
  10    5    6 ar
  11    5   10 ar
  12    6    7 ar
  13    6   18 1
  14    7    8 ar
  15    7   19 1
  16    8    9 ar
  17    8   20 1
  18    9   10 ar
  19    9   21 1
  20   11   12 1
  21   12   13 1
  22   12   22 1
  23   12   23 1
  24   13   14 2
  25   13   24 1
  26   14   25 1
  27   14   26 1

#	End of record

