#	Name: ASD01918020
#	Creating user name:	WinNT
#	Creation time:	15. 06. 2019 20:10

#	Modifying user name:	WinNT
#	Modification time:	15. 06. 2019 20:10

#	Program:	/corina/corina34_cracker 3.40 0067  02.08.2006

@<TRIPOS>MOLECULE
ASD01918020
  41   44    0    0    0
SMALL
NO_CHARGES


@<TRIPOS>ATOM
   1 N1             4.8287    -0.3978    -2.1617 N.ar    
   2 C2             5.2941     0.3013    -3.1776 C.ar    
   3 C3             5.1784     1.6842    -3.2014 C.ar    
   4 C4             4.5623     2.3297    -2.1357 C.ar    
   5 C5             4.0846     1.5567    -1.0830 C.ar    
   6 C6             4.2385     0.1784    -1.1333 C.ar    
   7 O7             3.4755     2.1431    -0.0192 O.3     
   8 C8             3.4522     3.5020     0.0341 C.2     
   9 N9             2.1956     5.5112    -0.0259 N.pl3   
  10 C10            2.2675     4.1557    -0.0731 C.2     
  11 C11            4.6499     4.2066     0.2044 C.2     
  12 C12            4.6180     5.5957     0.2579 C.2     
  13 C13            3.3235     6.2652     0.1328 C.2     
  14 C14            5.8559     6.3730     0.4365 C.2     
  15 N15            5.8052     7.7189     0.4860 N.am    
  16 C16            6.9727     8.4520     0.6544 C.2     
  17 O17            6.9241     5.8004     0.5393 O.2     
  18 N18            1.1301     6.4194    -0.1093 N.2     
  19 C19            1.6412     7.6234    -0.0085 C.2     
  20 N20            2.9567     7.5370     0.1427 N.2     
  21 O21            5.6613     2.3977    -4.2525 O.3     
  22 C22            6.2810     1.6596    -5.3076 C.3     
  23 S23            8.5370     7.7800     0.8112 S.3     
  24 C24            9.2271     9.3942     0.9587 C.2     
  25 C25            8.2315    10.2790     0.8776 C.2     
  26 N26            7.0357     9.7458     0.7099 N.2     
  27 C27            8.4548    11.7667     0.9654 C.3     
  28 H28            5.7717    -0.2082    -4.0014 H       
  29 H29            4.4577     3.4045    -2.1252 H       
  30 H30            3.8705    -0.4295    -0.3201 H       
  31 H31            1.3599     3.5840    -0.1993 H       
  32 H32            5.5873     3.6776     0.2936 H       
  33 H33            4.9534     8.1755     0.4040 H       
  34 H34            1.0769     8.5438    -0.0369 H       
  35 H35            7.1333     1.1068    -4.9125 H       
  36 H36            5.5609     0.9611    -5.7339 H       
  37 H37            6.6213     2.3479    -6.0813 H       
  38 H38           10.2732     9.6271     1.0921 H       
  39 H39            8.6291    12.1675    -0.0331 H       
  40 H40            7.5744    12.2413     1.3989 H       
  41 H41            9.3224    11.9675     1.5940 H       
@<TRIPOS>BOND
   1    1    2 ar
   2    1    6 ar
   3    2    3 ar
   4    2   28 1
   5    3    4 ar
   6    3   21 1
   7    4    5 ar
   8    4   29 1
   9    5    6 ar
  10    5    7 1
  11    6   30 1
  12    7    8 1
  13    8   11 1
  14    8   10 2
  15    9   10 1
  16    9   18 1
  17    9   13 1
  18   10   31 1
  19   11   12 2
  20   11   32 1
  21   12   13 1
  22   12   14 1
  23   13   20 2
  24   14   15 am
  25   14   17 2
  26   15   16 1
  27   15   33 1
  28   16   23 1
  29   16   26 2
  30   18   19 2
  31   19   20 1
  32   19   34 1
  33   21   22 1
  34   22   35 1
  35   22   36 1
  36   22   37 1
  37   23   24 1
  38   24   25 2
  39   24   38 1
  40   25   26 1
  41   25   27 1
  42   27   39 1
  43   27   40 1
  44   27   41 1

#	End of record

