#	Name: ASD01813474
#	Creating user name:	WinNT
#	Creation time:	15. 06. 2019 19:30

#	Modifying user name:	WinNT
#	Modification time:	15. 06. 2019 19:30

#	Program:	/corina/corina34_cracker 3.40 0067  02.08.2006

@<TRIPOS>MOLECULE
ASD01813474
  42   46    0    0    0
SMALL
NO_CHARGES


@<TRIPOS>ATOM
   1 C1            -0.0178     1.4608     0.0101 C.3     
   2 N2             0.0021    -0.0041     0.0020 N.pl3   
   3 C3             0.0078    -0.7885    -1.0945 C.2     
   4 C4             0.0282    -2.0861    -0.6736 C.2     
   5 C5             0.0349    -2.0759     0.7348 C.2     
   6 N6             0.0245    -0.8309     1.1317 N.2     
   7 C7             0.0409    -3.2902    -1.5423 C.ar    
   8 C8             0.0380    -3.1518    -2.9283 C.ar    
   9 C9             0.0504    -4.2737    -3.7327 C.ar    
  10 C10            0.0652    -5.5345    -3.1656 C.ar    
  11 C11            0.0786    -6.7554    -4.0489 C.3     
  12 N12            1.4196    -7.3453    -4.0463 N.am    
  13 C13            2.5078    -7.0099    -4.9724 C.3     
  14 C14            3.6777    -7.8738    -4.5710 C.2     
  15 C15            4.9745    -8.0044    -5.0686 C.2     
  16 C16            5.8353    -8.8890    -4.4881 C.2     
  17 C17            5.4035    -9.6604    -3.3923 C.2     
  18 N18            6.0069   -10.5790    -2.6458 N.2     
  19 C19            5.1703   -11.0239    -1.7215 C.2     
  20 N20            4.0136   -10.4123    -1.8422 N.2     
  21 N21            4.1316    -9.5208    -2.9174 N.pl3   
  22 C22            3.2607    -8.6318    -3.4978 C.2     
  23 C23            1.8658    -8.2820    -3.1918 C.2     
  24 O24            1.2080    -8.7722    -2.2938 O.2     
  25 C25            0.0681    -5.6791    -1.7875 C.ar    
  26 F26            0.0826    -6.9135    -1.2385 F       
  27 C27            0.0616    -4.5616    -0.9739 C.ar    
  28 H28            1.0048     1.8381     0.0023 H       
  29 H29           -0.5450     1.8219    -0.8730 H       
  30 H30           -0.5280     1.8123     0.9069 H       
  31 H31           -0.0020    -0.4508    -2.1203 H       
  32 H32            0.0502    -2.9454     1.3751 H       
  33 H33            0.0258    -2.1678    -3.3733 H       
  34 H34            0.0481    -4.1663    -4.8074 H       
  35 H35           -0.6395    -7.4840    -3.6727 H       
  36 H36           -0.1912    -6.4710    -5.0660 H       
  37 H37            2.2106    -7.2330    -5.9972 H       
  38 H38            2.7696    -5.9561    -4.8780 H       
  39 H39            5.2953    -7.4080    -5.9099 H       
  40 H40            6.8410    -8.9971    -4.8667 H       
  41 H41            5.4028   -11.7753    -0.9813 H       
  42 H42            0.0684    -4.6741     0.1002 H       
@<TRIPOS>BOND
   1    1    2 1
   2    1   28 1
   3    1   29 1
   4    1   30 1
   5    2    6 1
   6    2    3 1
   7    3    4 2
   8    3   31 1
   9    4    5 1
  10    4    7 1
  11    5    6 2
  12    5   32 1
  13    7   27 ar
  14    7    8 ar
  15    8    9 ar
  16    8   33 1
  17    9   10 ar
  18    9   34 1
  19   10   11 1
  20   10   25 ar
  21   11   12 1
  22   11   35 1
  23   11   36 1
  24   12   23 am
  25   12   13 1
  26   13   14 1
  27   13   37 1
  28   13   38 1
  29   14   22 2
  30   14   15 1
  31   15   16 2
  32   15   39 1
  33   16   17 1
  34   16   40 1
  35   17   21 1
  36   17   18 2
  37   18   19 1
  38   19   20 2
  39   19   41 1
  40   20   21 1
  41   21   22 1
  42   22   23 1
  43   23   24 2
  44   25   26 1
  45   25   27 ar
  46   27   42 1

#	End of record

