#	Name: ASD04590271
#	Creating user name:	WinNT
#	Creation time:	15. 06. 2019 20:50

#	Modifying user name:	WinNT
#	Modification time:	15. 06. 2019 20:50

#	Program:	/corina/corina34_cracker 3.40 0067  02.08.2006

@<TRIPOS>MOLECULE
ASD04590271
  43   47    0    0    0
SMALL
NO_CHARGES


@<TRIPOS>ATOM
   1 C1            -0.0167     1.3832     0.0096 C.ar    
   2 C2             0.0021    -0.0041     0.0020 C.ar    
   3 C3             1.1969    -0.6870    -0.0126 C.ar    
   4 C4             2.4020     0.0223    -0.0203 C.ar    
   5 C5             2.3769     1.4283    -0.0129 C.ar    
   6 C6             1.1624     2.0986     0.0022 C.ar    
   7 N7             3.7040    -0.3551    -0.0343 N.2     
   8 C8             4.4709     0.7083    -0.0361 C.2     
   9 N9             3.6969     1.8375    -0.0232 N.pl3   
  10 C10            5.9483     0.6906    -0.0500 C.2     
  11 C11            6.7657    -0.4631    -0.0639 C.2     
  12 C12            8.0578    -0.0540    -0.0737 C.2     
  13 N13            8.0646     1.3049    -0.0664 N.pl3   
  14 N14            6.7361     1.7480    -0.0573 N.2     
  15 N15            6.3186    -1.7948    -0.0666 N.am    
  16 C16            7.2106    -2.8051    -0.0805 C.2     
  17 C17            6.7310    -4.2337    -0.0835 C.3     
  18 O18            8.3995    -2.5644    -0.0907 O.2     
  19 C19            7.9180    -5.1621    -0.0998 C.2     
  20 C20            8.6789    -5.6242     1.0636 C.ar    
  21 C21            9.6858    -6.4678     0.5594 C.ar    
  22 N22            9.5360    -6.5062    -0.8088 N.pl3   
  23 C23            8.4751    -5.7270    -1.1826 C.2     
  24 C24            8.5851    -5.3954     2.4375 C.ar    
  25 C25            9.4733    -5.9931     3.2869 C.ar    
  26 C26           10.4686    -6.8258     2.7946 C.ar    
  27 C27           10.5792    -7.0653     1.4422 C.ar    
  28 H28           -0.9614     1.9066     0.0169 H       
  29 H29           -0.9283    -0.5525     0.0079 H       
  30 H30            1.2037    -1.7669    -0.0177 H       
  31 H31            1.1403     3.1784     0.0075 H       
  32 H32            4.0156     2.7537    -0.0215 H       
  33 H33            8.9275    -0.6942    -0.0854 H       
  34 H34            8.8530     1.8700    -0.0701 H       
  35 H35            5.3680    -1.9873    -0.0585 H       
  36 H36            6.1369    -4.4194     0.8113 H       
  37 H37            6.1198    -4.4100    -0.9685 H       
  38 H38           10.0966    -7.0131    -1.4167 H       
  39 H39            8.1400    -5.5822    -2.1990 H       
  40 H40            7.8137    -4.7481     2.8277 H       
  41 H41            9.4004    -5.8159     4.3498 H       
  42 H42           11.1633    -7.2907     3.4784 H       
  43 H43           11.3570    -7.7149     1.0688 H       
@<TRIPOS>BOND
   1    1    2 ar
   2    1    6 ar
   3    1   28 1
   4    2    3 ar
   5    2   29 1
   6    3    4 ar
   7    3   30 1
   8    4    5 ar
   9    4    7 1
  10    5    6 ar
  11    5    9 1
  12    6   31 1
  13    7    8 2
  14    8    9 1
  15    8   10 1
  16    9   32 1
  17   10   11 1
  18   10   14 2
  19   11   12 2
  20   11   15 1
  21   12   13 1
  22   12   33 1
  23   13   14 1
  24   13   34 1
  25   15   16 am
  26   15   35 1
  27   16   17 1
  28   16   18 2
  29   17   19 1
  30   17   36 1
  31   17   37 1
  32   19   20 1
  33   19   23 2
  34   20   21 ar
  35   20   24 ar
  36   21   22 1
  37   21   27 ar
  38   22   23 1
  39   22   38 1
  40   23   39 1
  41   24   25 ar
  42   24   40 1
  43   25   26 ar
  44   25   41 1
  45   26   27 ar
  46   26   42 1
  47   27   43 1

#	End of record

