#	Name: ASD01884721
#	Creating user name:	WinNT
#	Creation time:	15. 06. 2019 19:48

#	Modifying user name:	WinNT
#	Modification time:	15. 06. 2019 19:48

#	Program:	/corina/corina34_cracker 3.40 0067  02.08.2006

@<TRIPOS>MOLECULE
ASD01884721
  41   43    0    0    0
SMALL
NO_CHARGES


@<TRIPOS>ATOM
   1 C1            -0.0170     1.4018     0.0097 C.2     
   2 C2             0.0021    -0.0041     0.0020 C.2     
   3 C3             1.1598     2.0872     0.0022 C.2     
   4 C4             2.3745     1.3681    -0.0133 C.2     
   5 C5             2.3524     0.0035    -0.0204 C.2     
   6 N6             1.1735    -0.6669    -0.0127 N.am    
   7 C7             3.6695     2.0927    -0.0222 C.ar    
   8 H8             1.1637     3.1672     0.0076 H       
   9 O9            -1.0480    -0.6261     0.0091 O.2     
  10 C10            1.1749    -2.1319    -0.0206 C.3     
  11 C11            1.1890    -2.6418     1.3974 C.ar    
  12 C12            4.0193     2.8839    -1.1148 C.ar    
  13 C13            5.2235     3.5566    -1.1201 C.ar    
  14 C14            6.0868     3.4457    -0.0388 C.ar    
  15 C15            5.7413     2.6579     1.0507 C.ar    
  16 C16            4.5358     1.9878     1.0644 C.ar    
  17 C17           -0.0016    -2.8770     2.0592 C.ar    
  18 C18            0.0113    -3.3447     3.3600 C.ar    
  19 C19            1.2148    -3.5777     3.9988 C.ar    
  20 C20            2.4055    -3.3434     3.3367 C.ar    
  21 C21            2.3925    -2.8798     2.0344 C.ar    
  22 O22            7.2727     4.1092    -0.0470 O.3     
  23 C23            8.1128     3.9506     1.0981 C.3     
  24 N24           -1.3054     2.1309     0.0198 N.pl3   
  25 O25           -1.3159     3.3488     0.0265 O.2     
  26 O26           -2.3549     1.5128     0.0214 O.2     
  27 H27            3.2815    -0.5471    -0.0322 H       
  28 H28            0.2805    -2.4934    -0.5279 H       
  29 H29            2.0603    -2.4915    -0.5449 H       
  30 H30            3.3484     2.9700    -1.9567 H       
  31 H31            5.4951     4.1699    -1.9665 H       
  32 H32            6.4153     2.5730     1.8903 H       
  33 H33            4.2675     1.3751     1.9124 H       
  34 H34           -0.9419    -2.6949     1.5601 H       
  35 H35           -0.9190    -3.5278     3.8772 H       
  36 H36            1.2249    -3.9425     5.0153 H       
  37 H37            3.3458    -3.5252     3.8359 H       
  38 H38            3.3227    -2.6968     1.5171 H       
  39 H39            8.3672     2.8976     1.2190 H       
  40 H40            9.0251     4.5316     0.9627 H       
  41 H41            7.5869     4.3016     1.9860 H       
@<TRIPOS>BOND
   1    1    2 1
   2    1    3 2
   3    1   24 1
   4    2    9 2
   5    2    6 am
   6    3    4 1
   7    3    8 1
   8    4    5 2
   9    4    7 1
  10    5    6 1
  11    5   27 1
  12    6   10 1
  13    7   12 ar
  14    7   16 ar
  15   10   11 1
  16   10   28 1
  17   10   29 1
  18   11   17 ar
  19   11   21 ar
  20   12   13 ar
  21   12   30 1
  22   13   14 ar
  23   13   31 1
  24   14   15 ar
  25   14   22 1
  26   15   16 ar
  27   15   32 1
  28   16   33 1
  29   17   18 ar
  30   17   34 1
  31   18   19 ar
  32   18   35 1
  33   19   20 ar
  34   19   36 1
  35   20   21 ar
  36   20   37 1
  37   21   38 1
  38   22   23 1
  39   23   39 1
  40   23   40 1
  41   23   41 1
  42   24   25 2
  43   24   26 2

#	End of record

