#	Name: ASD05790012
#	Creating user name:	WinNT
#	Creation time:	15. 06. 2019 21:03

#	Modifying user name:	WinNT
#	Modification time:	15. 06. 2019 21:03

#	Program:	/corina/corina34_cracker 3.40 0067  02.08.2006

@<TRIPOS>MOLECULE
ASD05790012
  45   48    0    0    0
SMALL
NO_CHARGES


@<TRIPOS>ATOM
   1 C1            -0.1753     1.4719    -0.5693 C.2     
   2 C2            -0.1532    -0.0033    -0.5731 C.ar    
   3 C3             0.9004    -0.6888    -1.1885 C.ar    
   4 C4             0.9141    -2.0702    -1.1880 C.ar    
   5 C5            -0.1122    -2.7749    -0.5801 C.ar    
   6 C6            -1.1587    -2.0994     0.0306 C.ar    
   7 C7            -1.1810    -0.7219     0.0425 C.ar    
   8 O8             0.7232     2.0948    -1.1016 O.2     
   9 N9            -1.1942     2.1291     0.0193 N.am    
  10 C10           -1.1619     3.5215     0.1191 C.ar    
  11 C11           -2.3411     4.2518     0.0191 C.ar    
  12 C12           -2.3127     5.6256     0.1171 C.ar    
  13 C13           -1.0980     6.2849     0.3177 C.ar    
  14 C14            0.0845     5.5485     0.4183 C.ar    
  15 C15            0.0486     4.1745     0.3242 C.ar    
  16 O16           -2.1300     8.5729     0.3426 O.3     
  17 C17           -1.0638     7.7581     0.4229 C.2     
  18 N18            0.0115     8.4848     0.6106 N.2     
  19 C19           -0.3499     9.7842     0.6539 C.2     
  20 C20           -1.6951     9.8400     0.4856 C.2     
  21 C21           -2.5434    11.0853     0.4629 C.3     
  22 F22           -2.6393    11.5603    -0.8495 F       
  23 F23           -3.8222    10.7874     0.9456 F       
  24 F24           -1.9561    12.0644     1.2714 F       
  25 C25            0.5583    10.9413     0.8506 C.ar    
  26 C26            1.6692    10.8245     1.6836 C.ar    
  27 C27            2.5105    11.9039     1.8629 C.ar    
  28 C28            2.2525    13.0998     1.2176 C.ar    
  29 C29            1.1511    13.2213     0.3896 C.ar    
  30 C30            0.3064    12.1467     0.1985 C.ar    
  31 F31           -0.0940    -4.1258    -0.5825 F       
  32 F32            1.9010    -0.0016    -1.7817 F       
  33 H33            1.7258    -2.6016    -1.6625 H       
  34 H34           -1.9557    -2.6550     0.5023 H       
  35 H35           -1.9944    -0.1984     0.5229 H       
  36 H36           -1.9498     1.6348     0.3736 H       
  37 H37           -3.2801     3.7413    -0.1361 H       
  38 H38           -3.2288     6.1922     0.0386 H       
  39 H39            1.0255     6.0554     0.5730 H       
  40 H40            0.9621     3.6042     0.4059 H       
  41 H41            1.8714     9.8913     2.1882 H       
  42 H42            3.3716    11.8146     2.5086 H       
  43 H43            2.9132    13.9420     1.3611 H       
  44 H44            0.9541    14.1575    -0.1115 H       
  45 H45           -0.5506    12.2411    -0.4520 H       
@<TRIPOS>BOND
   1    1    2 1
   2    1    8 2
   3    1    9 am
   4    2    3 ar
   5    2    7 ar
   6    3    4 ar
   7    3   32 1
   8    4    5 ar
   9    4   33 1
  10    5    6 ar
  11    5   31 1
  12    6    7 ar
  13    6   34 1
  14    7   35 1
  15    9   10 1
  16    9   36 1
  17   10   11 ar
  18   10   15 ar
  19   11   12 ar
  20   11   37 1
  21   12   13 ar
  22   12   38 1
  23   13   14 ar
  24   13   17 1
  25   14   15 ar
  26   14   39 1
  27   15   40 1
  28   16   17 1
  29   16   20 1
  30   17   18 2
  31   18   19 1
  32   19   20 2
  33   19   25 1
  34   20   21 1
  35   21   22 1
  36   21   23 1
  37   21   24 1
  38   25   26 ar
  39   25   30 ar
  40   26   27 ar
  41   26   41 1
  42   27   28 ar
  43   27   42 1
  44   28   29 ar
  45   28   43 1
  46   29   30 ar
  47   29   44 1
  48   30   45 1

#	End of record

