#	Name: ASD04880742
#	Creating user name:	WinNT
#	Creation time:	15. 06. 2019 20:53

#	Modifying user name:	WinNT
#	Modification time:	15. 06. 2019 20:53

#	Program:	/corina/corina34_cracker 3.40 0067  02.08.2006

@<TRIPOS>MOLECULE
ASD04880742
  80   86    0    0    0
SMALL
NO_CHARGES


@<TRIPOS>ATOM
   1 C1             0.0016     1.3749    -0.0018 C.ar    
   2 C2            -1.2018     2.0530     0.0576 C.ar    
   3 C3            -1.2189     3.4353     0.1009 C.ar    
   4 C4            -0.0332     4.1428     0.0848 C.ar    
   5 C5             1.1778     3.4646     0.0251 C.ar    
   6 C6             1.1914     2.0764    -0.0182 C.ar    
   7 C7            -0.0528     5.6490     0.1314 C.3     
   8 N8             2.3790     4.1771     0.0082 N.3     
   9 C9             3.1800     3.8876     1.2057 C.3     
  10 C10            3.1431     3.8924    -1.2145 C.3     
  11 C11            4.4106     4.7501    -1.2321 C.3     
  12 N12            5.2116     4.4606    -0.0345 N.3     
  13 C13            4.4475     4.7453     1.1881 C.3     
  14 C14            6.4101     5.1715    -0.0514 C.ar    
  15 C15            6.6365     6.1575     0.8923 C.ar    
  16 C16            7.8362     6.8665     0.8725 C.ar    
  17 C17            8.5723     5.5717    -1.0524 C.ar    
  18 C18            7.3795     4.8780    -1.0212 C.ar    
  19 N19            7.1356     3.8726    -1.9653 N.am    
  20 C20            7.6162     3.9941    -3.2186 C.2     
  21 C21            7.4683     2.8829    -4.1756 C.2     
  22 O22            8.1720     5.0208    -3.5599 O.2     
  23 C23            6.9380     0.9672    -5.0180 C.2     
  24 O24            7.5676     1.6662    -5.9729 O.3     
  25 C25            7.9066     2.8615    -5.4640 C.2     
  26 N26            6.8730     1.6831    -3.9356 N.2     
  27 C27            8.8120     6.5738    -0.1102 C.ar    
  28 C28            8.1267     7.9196     1.8484 C.2     
  29 C29            9.2981     8.5720     1.7855 C.2     
  30 N30           10.2417     8.2919     0.8378 N.am    
  31 C31           10.0607     7.3401    -0.0987 C.2     
  32 O32           10.9286     7.1153    -0.9236 O.2     
  33 C33           11.4938     9.0525     0.8401 C.3     
  34 C34            6.3917    -0.4285    -5.1751 C.3     
  35 C35            5.3229    -0.6524    -6.2467 C.3     
  36 C36            6.7419    -1.1839    -6.4587 C.3     
  37 C37           12.5223     8.3391     1.7201 C.3     
  38 C38           13.8299     9.1335     1.7226 C.3     
  39 N39           14.8146     8.4504     2.5652 N.am    
  40 O40           15.9557     7.8988     4.4169 O.3     
  41 C41           14.9884     8.6500     3.8788 C.2     
  42 C42           15.7695     7.4291     2.1084 C.3     
  43 C43           16.5494     7.0590     3.3849 C.3     
  44 O44           14.3277     9.4410     4.5224 O.2     
  45 H45            0.0116     0.2954    -0.0310 H       
  46 H46           -2.1307     1.5021     0.0700 H       
  47 H47           -2.1607     3.9620     0.1469 H       
  48 H48            2.1311     1.5461    -0.0647 H       
  49 H49           -0.0249     5.9808     1.1693 H       
  50 H50            0.8156     6.0402    -0.3986 H       
  51 H51           -0.9633     6.0154    -0.3428 H       
  52 H52            2.5973     4.1182     2.0975 H       
  53 H53            3.4548     2.8328     1.2132 H       
  54 H54            3.4174     2.8377    -1.2345 H       
  55 H55            2.5334     4.1266    -2.0871 H       
  56 H56            4.9934     4.5195    -2.1239 H       
  57 H57            4.1358     5.8049    -1.2395 H       
  58 H58            4.1732     5.8000     1.2082 H       
  59 H59            5.0572     4.5111     2.0608 H       
  60 H60            5.8881     6.3767     1.6394 H       
  61 H61            9.3155     5.3411    -1.8013 H       
  62 H62            6.6208     3.0888    -1.7171 H       
  63 H63            8.4275     3.6551    -5.9790 H       
  64 H64            7.4045     8.1692     2.6116 H       
  65 H65            9.5019     9.3467     2.5099 H       
  66 H66           11.8759     9.1266    -0.1780 H       
  67 H67           11.3107    10.0525     1.2331 H       
  68 H68            6.3116    -1.0082    -4.2555 H       
  69 H69            4.5398    -1.3796    -6.0324 H       
  70 H70            5.0149     0.2099    -6.8382 H       
  71 H71            7.3673    -0.6713    -7.1896 H       
  72 H72            6.8923    -2.2608    -6.3838 H       
  73 H73           12.1402     8.2650     2.7383 H       
  74 H74           12.7054     7.3391     1.3271 H       
  75 H75           14.2119     9.2075     0.7044 H       
  76 H76           13.6468    10.1335     2.1156 H       
  77 H77           15.2419     6.5595     1.7165 H       
  78 H78           16.4410     7.8421     1.3557 H       
  79 H79           17.6081     7.2896     3.2668 H       
  80 H80           16.4114     6.0045     3.6241 H       
@<TRIPOS>BOND
   1    1    2 ar
   2    1    6 ar
   3    1   45 1
   4    2    3 ar
   5    2   46 1
   6    3    4 ar
   7    3   47 1
   8    4    5 ar
   9    4    7 1
  10    5    6 ar
  11    5    8 1
  12    6   48 1
  13    7   49 1
  14    7   50 1
  15    7   51 1
  16    8   10 1
  17    8    9 1
  18    9   13 1
  19    9   52 1
  20    9   53 1
  21   10   11 1
  22   10   54 1
  23   10   55 1
  24   11   12 1
  25   11   56 1
  26   11   57 1
  27   12   13 1
  28   12   14 1
  29   13   58 1
  30   13   59 1
  31   14   15 ar
  32   14   18 ar
  33   15   16 ar
  34   15   60 1
  35   16   28 1
  36   16   27 ar
  37   17   18 ar
  38   17   27 ar
  39   17   61 1
  40   18   19 1
  41   19   20 am
  42   19   62 1
  43   20   21 1
  44   20   22 2
  45   21   26 1
  46   21   25 2
  47   23   24 1
  48   23   26 2
  49   23   34 1
  50   24   25 1
  51   25   63 1
  52   27   31 1
  53   28   29 2
  54   28   64 1
  55   29   30 1
  56   29   65 1
  57   30   31 am
  58   30   33 1
  59   31   32 2
  60   33   37 1
  61   33   66 1
  62   33   67 1
  63   34   35 1
  64   34   36 1
  65   34   68 1
  66   35   36 1
  67   35   69 1
  68   35   70 1
  69   36   71 1
  70   36   72 1
  71   37   38 1
  72   37   73 1
  73   37   74 1
  74   38   39 1
  75   38   75 1
  76   38   76 1
  77   39   42 1
  78   39   41 am
  79   40   41 1
  80   40   43 1
  81   41   44 2
  82   42   43 1
  83   42   77 1
  84   42   78 1
  85   43   79 1
  86   43   80 1

#	End of record

