#	Name: ASD08178133
#	Creating user name:	WinNT
#	Creation time:	15. 06. 2019 21:18

#	Modifying user name:	WinNT
#	Modification time:	15. 06. 2019 21:18

#	Program:	/corina/corina34_cracker 3.40 0067  02.08.2006

@<TRIPOS>MOLECULE
ASD08178133
 102  107    0    0    0
SMALL
NO_CHARGES


@<TRIPOS>ATOM
   1 C1            -0.0184     1.5028     0.0103 C.2     
   2 C2             0.0021    -0.0041     0.0020 C.3     
   3 C3             0.0221    -0.5218     1.4416 C.3     
   4 C4             0.0429    -2.0516     1.4332 C.3     
   5 C5             0.0630    -2.5693     2.8728 C.3     
   6 C6             0.0834    -4.0761     2.8645 C.2     
   7 N7             1.1396    -4.8258     2.8513 N.2     
   8 N8             0.9467    -6.0734     2.8463 N.2     
   9 C9            -0.2824    -6.4936     2.8547 C.2     
  10 S10           -1.3267    -5.1359     2.8788 S.3     
  11 N11           -0.6838    -7.8252     2.8506 N.am    
  12 N12            1.0171     2.2809     0.0046 N.2     
  13 C13            0.2391    -8.8073     2.8374 C.2     
  14 O14            1.4197    -8.5298     2.8290 O.2     
  15 C15           -0.1960   -10.2501     2.8329 C.3     
  16 O16            0.9749   -11.1086     2.8183 O.3     
  17 N17            0.7904     3.5228     0.0134 N.2     
  18 C18           -0.4495     3.9094     0.0274 C.2     
  19 S19           -1.4568     2.5237     0.0218 S.3     
  20 N20           -0.8870     5.2295     0.0390 N.am    
  21 C21           -0.4651     7.6668     0.0485 C.3     
  22 C22           -1.3095     7.9270    -1.1723 C.ar    
  23 C23            0.0089     6.2364     0.0358 C.2     
  24 O24            1.1967     5.9912     0.0228 O.2     
  25 C25           -2.6881     7.9184    -1.0734 C.ar    
  26 C26           -3.4632     8.1573    -2.1943 C.ar    
  27 C27           -2.8578     8.4047    -3.4134 C.ar    
  28 C28           -1.4791     8.4130    -3.5110 C.ar    
  29 C29           -0.7051     8.1798    -2.3896 C.ar    
  30 Cl30          -5.1948     8.1461    -2.0710 Cl      
  31 O31            0.6821     8.5569     0.0422 O.3     
  32 C32            0.5346     9.7455     0.6483 C.2     
  33 O33           -0.5182    10.0326     1.1670 O.2     
  34 C34            1.6821    10.7217     0.6819 C.3     
  35 C35            1.2532    11.9875     1.4268 C.3     
  36 N36            2.3718    12.9391     1.4595 N.3     
  37 C37            1.9321    14.2521     1.9535 C.3     
  38 C38            3.1375    15.1931     2.0279 C.3     
  39 O39            3.7505    15.2773     0.7385 O.3     
  40 C40            4.1913    14.0165     0.2272 C.3     
  41 C41            2.9966    13.0635     0.1346 C.3     
  42 C42           -1.0108   -10.5329     4.0687 C.ar    
  43 C43           -2.3910   -10.5618     3.9948 C.ar    
  44 C44           -3.1391   -10.8212     5.1280 C.ar    
  45 C45           -2.5076   -11.0512     6.3357 C.ar    
  46 C46           -1.1264   -11.0224     6.4103 C.ar    
  47 C47           -0.3780   -10.7688     5.2746 C.ar    
  48 Cl48          -0.3324   -11.3106     7.9269 Cl      
  49 C49            0.8488   -12.3009     2.2146 C.2     
  50 O50           -0.2050   -12.6167     1.7150 O.2     
  51 C51            2.0217   -13.2456     2.1601 C.3     
  52 C52            1.6140   -14.5227     1.4227 C.3     
  53 N53            2.7573   -15.4436     1.3695 N.3     
  54 C54            2.3447   -16.7682     0.8832 C.3     
  55 C55            3.5737   -17.6760     0.7869 C.3     
  56 O56            4.2120   -17.7431     2.0649 O.3     
  57 C57            4.6275   -16.4707     2.5685 C.3     
  58 C58            3.4092   -15.5506     2.6829 C.3     
  59 H59           -0.8875    -0.3767    -0.5057 H       
  60 H60            0.8922    -0.3525    -0.5218 H       
  61 H61            0.9118    -0.1491     1.9494 H       
  62 H62           -0.8680    -0.1733     1.9655 H       
  63 H63           -0.8467    -2.4242     0.9255 H       
  64 H64            0.9330    -2.4000     0.9094 H       
  65 H65            0.9526    -2.1967     3.3806 H       
  66 H66           -0.8271    -2.2209     3.3967 H       
  67 H67           -1.6281    -8.0470     2.8573 H       
  68 H68           -0.8003   -10.4446     1.9469 H       
  69 H69           -1.8369     5.4256     0.0495 H       
  70 H70           -1.0583     7.8451     0.9454 H       
  71 H71           -3.1601     7.7249    -0.1215 H       
  72 H72           -3.4623     8.5909    -4.2888 H       
  73 H73           -1.0064     8.6061    -4.4627 H       
  74 H74            0.3722     8.1864    -2.4663 H       
  75 H75            2.5302    10.2681     1.1947 H       
  76 H76            1.9695    10.9798    -0.3374 H       
  77 H77            0.4051    12.4411     0.9140 H       
  78 H78            0.9658    11.7294     2.4461 H       
  79 H79            1.1883    14.6666     1.2731 H       
  80 H80            1.4960    14.1402     2.9462 H       
  81 H81            2.8070    16.1841     2.3391 H       
  82 H82            3.8576    14.8059     2.7487 H       
  83 H83            4.6229    14.1564    -0.7639 H       
  84 H84            4.9421    13.5950     0.8956 H       
  85 H85            3.3375    12.0839    -0.2005 H       
  86 H86            2.2698    13.4590    -0.5749 H       
  87 H87           -2.8849   -10.3814     3.0515 H       
  88 H88           -4.2173   -10.8436     5.0696 H       
  89 H89           -3.0922   -11.2531     7.2210 H       
  90 H90            0.7003   -10.7461     5.3322 H       
  91 H91            2.8478   -12.7691     1.6321 H       
  92 H92            2.3344   -13.4955     3.1739 H       
  93 H93            0.7880   -14.9991     1.9507 H       
  94 H94            1.3013   -14.2728     0.4089 H       
  95 H95            1.6248   -17.2025     1.5769 H       
  96 H96            1.8878   -16.6684    -0.1013 H       
  97 H97            3.2647   -18.6757     0.4814 H       
  98 H98            4.2699   -17.2695     0.0533 H       
  99 H99            5.0806   -16.5986     3.5515 H       
 100 H100           5.3543   -16.0291     1.8867 H       
 101 H101           3.7293   -14.5620     3.0120 H       
 102 H102           2.7063   -15.9655     3.4053 H       
@<TRIPOS>BOND
   1    1    2 1
   2    1   12 2
   3    1   19 1
   4    2    3 1
   5    2   59 1
   6    2   60 1
   7    3    4 1
   8    3   61 1
   9    3   62 1
  10    4    5 1
  11    4   63 1
  12    4   64 1
  13    5    6 1
  14    5   65 1
  15    5   66 1
  16    6    7 2
  17    6   10 1
  18    7    8 1
  19    8    9 2
  20    9   10 1
  21    9   11 1
  22   11   13 am
  23   11   67 1
  24   12   17 1
  25   13   14 2
  26   13   15 1
  27   15   16 1
  28   15   42 1
  29   15   68 1
  30   16   49 1
  31   17   18 2
  32   18   19 1
  33   18   20 1
  34   20   23 am
  35   20   69 1
  36   21   31 1
  37   21   22 1
  38   21   23 1
  39   21   70 1
  40   22   25 ar
  41   22   29 ar
  42   23   24 2
  43   25   26 ar
  44   25   71 1
  45   26   27 ar
  46   26   30 1
  47   27   28 ar
  48   27   72 1
  49   28   29 ar
  50   28   73 1
  51   29   74 1
  52   31   32 1
  53   32   33 2
  54   32   34 1
  55   34   35 1
  56   34   75 1
  57   34   76 1
  58   35   36 1
  59   35   77 1
  60   35   78 1
  61   36   37 1
  62   36   41 1
  63   37   38 1
  64   37   79 1
  65   37   80 1
  66   38   39 1
  67   38   81 1
  68   38   82 1
  69   39   40 1
  70   40   41 1
  71   40   83 1
  72   40   84 1
  73   41   85 1
  74   41   86 1
  75   42   43 ar
  76   42   47 ar
  77   43   44 ar
  78   43   87 1
  79   44   45 ar
  80   44   88 1
  81   45   46 ar
  82   45   89 1
  83   46   47 ar
  84   46   48 1
  85   47   90 1
  86   49   50 2
  87   49   51 1
  88   51   52 1
  89   51   91 1
  90   51   92 1
  91   52   53 1
  92   52   93 1
  93   52   94 1
  94   53   54 1
  95   53   58 1
  96   54   55 1
  97   54   95 1
  98   54   96 1
  99   55   56 1
 100   55   97 1
 101   55   98 1
 102   56   57 1
 103   57   58 1
 104   57   99 1
 105   57  100 1
 106   58  101 1
 107   58  102 1

#	End of record

