#	Name: ASD09610046
#	Creating user name:	WinNT
#	Creation time:	15. 06. 2019 21:22

#	Modifying user name:	WinNT
#	Modification time:	15. 06. 2019 21:22

#	Program:	/corina/corina34_cracker 3.40 0067  02.08.2006

@<TRIPOS>MOLECULE
ASD09610046
  13   13    0    0    0
SMALL
NO_CHARGES


@<TRIPOS>ATOM
   1 C1            -0.0169     1.3940     0.0097 C.ar    
   2 C2             0.0021    -0.0041     0.0020 C.ar    
   3 C3             1.2219    -0.6654    -0.0132 C.ar    
   4 C4             2.3858     0.0901    -0.0203 C.ar    
   5 C5             2.2946     1.4853    -0.0120 C.ar    
   6 N6             1.1134     2.0859     0.0026 N.ar    
   7 C7            -1.2708     2.0855     0.0194 C.1     
   8 N8            -2.2656     2.6340     0.0271 N.1     
   9 C9             3.4901     2.2735    -0.0187 C.1     
  10 N10            4.4385     2.8988    -0.0241 N.1     
  11 Cl11           3.9375    -0.6881    -0.0388 Cl      
  12 Cl12           1.2903    -2.4000    -0.0226 Cl      
  13 Cl13          -1.4835    -0.9023     0.0120 Cl      
@<TRIPOS>BOND
   1    1    2 ar
   2    1    6 ar
   3    1    7 1
   4    2    3 ar
   5    2   13 1
   6    3    4 ar
   7    3   12 1
   8    4    5 ar
   9    4   11 1
  10    5    6 ar
  11    5    9 1
  12    7    8 3
  13    9   10 3

#	End of record

