#	Name: ASD05380043
#	Creating user name:	WinNT
#	Creation time:	15. 06. 2019 20:59

#	Modifying user name:	WinNT
#	Modification time:	15. 06. 2019 20:59

#	Program:	/corina/corina34_cracker 3.40 0067  02.08.2006

@<TRIPOS>MOLECULE
ASD05380043
  75   80    0    0    0
SMALL
NO_CHARGES


@<TRIPOS>ATOM
   1 C1             0.0225     1.7593    -0.1388 C.ar    
   2 C2             0.2195     0.3605    -0.1714 C.ar    
   3 C3             1.1060     2.6205    -0.2969 C.ar    
   4 C4             2.3671     2.0978    -0.4848 C.ar    
   5 C5             2.5642     0.7238    -0.5179 C.ar    
   6 C6             1.5068    -0.1447    -0.3627 C.ar    
   7 C7             0.9004     4.1131    -0.2631 C.3     
   8 N8            -0.8503    -0.4587    -0.0147 N.2     
   9 C9            -2.0473     0.0114     0.1640 C.2     
  10 N10           -2.3291     1.3417     0.2091 N.am    
  11 C11           -1.3440     2.2594     0.0709 C.2     
  12 C12           -3.6497     1.7651     0.4055 C.ar    
  13 C13           -4.5934     1.5890    -0.5978 C.ar    
  14 C14           -4.0192     2.3568     1.6062 C.ar    
  15 C15           -5.3223     2.7729     1.7970 C.ar    
  16 C16           -6.2586     2.6004     0.7942 C.ar    
  17 C17           -5.8948     2.0072    -0.4008 C.ar    
  18 C18           -3.1823    -0.9661     0.3295 C.3     
  19 N19           -2.9224    -2.1580    -0.4818 N.pl3   
  20 C20           -1.7899    -2.9186    -0.2509 C.ar    
  21 N21           -0.9288    -2.5811     0.7026 N.ar    
  22 O22           -1.5816     3.4527     0.1092 O.2     
  23 C23           -1.5289    -4.0682    -1.0163 C.ar    
  24 C24           -0.3644    -4.8030    -0.7385 C.ar    
  25 N25            0.4459    -4.3905     0.2311 N.ar    
  26 C26            0.1596    -3.3048     0.9312 C.ar    
  27 N27           -2.1654    -4.6979    -2.0344 N.2     
  28 C28           -1.4822    -5.7463    -2.3897 C.2     
  29 N29           -0.3612    -5.8548    -1.6194 N.pl3   
  30 C30           -3.2998    -1.3668     1.8014 C.3     
  31 C31           -4.5273    -2.2605     1.9902 C.3     
  32 C32           -4.6448    -2.6611     3.4622 C.3     
  33 N33           -5.8201    -3.5168     3.6430 N.am    
  34 C34           -6.1247    -3.9935     4.8663 C.2     
  35 O35           -7.2049    -4.7799     5.0325 O.3     
  36 C36           -7.4722    -5.2571     6.3775 C.3     
  37 C37           -8.7106    -6.1157     6.3691 C.ar    
  38 C38           -8.6062    -7.4775     6.1554 C.ar    
  39 O39           -5.4246    -3.7136     5.8191 O.2     
  40 C40           -9.9506    -5.5424     6.5806 C.ar    
  41 C41          -11.0866    -6.3300     6.5728 C.ar    
  42 C42          -10.9827    -7.6908     6.3531 C.ar    
  43 C43           -9.7422    -8.2650     6.1477 C.ar    
  44 N44            1.0262    -2.9098     1.9371 N.pl3   
  45 H45            3.2093     2.7625    -0.6077 H       
  46 H46            3.5592     0.3312    -0.6669 H       
  47 H47            1.6725    -1.2115    -0.3895 H       
  48 H48            0.8844     4.4543     0.7719 H       
  49 H49            1.7152     4.6042    -0.7951 H       
  50 H50           -0.0471     4.3602    -0.7419 H       
  51 H51           -4.3098     1.1258    -1.5313 H       
  52 H52           -3.2886     2.4911     2.3901 H       
  53 H53           -5.6104     3.2331     2.7306 H       
  54 H54           -7.2771     2.9260     0.9461 H       
  55 H55           -6.6283     1.8743    -1.1824 H       
  56 H56           -4.1128    -0.5010     0.0041 H       
  57 H57           -3.5443    -2.4140    -1.1808 H       
  58 H58           -1.7611    -6.4301    -3.1778 H       
  59 H59            0.3143    -6.5480    -1.6832 H       
  60 H60           -2.4045    -1.9107     2.1025 H       
  61 H61           -3.4044    -0.4716     2.4144 H       
  62 H62           -5.4225    -1.7165     1.6891 H       
  63 H63           -4.4227    -3.1557     1.3773 H       
  64 H64           -3.7495    -3.2050     3.7633 H       
  65 H65           -4.7494    -1.7659     4.0752 H       
  66 H66           -6.3790    -3.7402     2.8824 H       
  67 H67           -6.6247    -5.8453     6.7295 H       
  68 H68           -7.6245    -4.4061     7.0414 H       
  69 H69           -7.6370    -7.9260     5.9943 H       
  70 H70          -10.0317    -4.4792     6.7522 H       
  71 H71          -12.0553    -5.8821     6.7388 H       
  72 H72          -11.8703    -8.3061     6.3475 H       
  73 H73           -9.6610    -9.3282     5.9760 H       
  74 H74            0.8326    -2.1163     2.4602 H       
  75 H75            1.8268    -3.4268     2.1183 H       
@<TRIPOS>BOND
   1    1    2 ar
   2    1    3 ar
   3    1   11 1
   4    2    8 1
   5    2    6 ar
   6    3    4 ar
   7    3    7 1
   8    4    5 ar
   9    4   45 1
  10    5    6 ar
  11    5   46 1
  12    6   47 1
  13    7   48 1
  14    7   49 1
  15    7   50 1
  16    8    9 2
  17    9   10 1
  18    9   18 1
  19   10   11 am
  20   10   12 1
  21   11   22 2
  22   12   13 ar
  23   12   14 ar
  24   13   17 ar
  25   13   51 1
  26   14   15 ar
  27   14   52 1
  28   15   16 ar
  29   15   53 1
  30   16   17 ar
  31   16   54 1
  32   17   55 1
  33   18   19 1
  34   18   30 1
  35   18   56 1
  36   19   20 1
  37   19   57 1
  38   20   21 ar
  39   20   23 ar
  40   21   26 ar
  41   23   24 ar
  42   23   27 1
  43   24   25 ar
  44   24   29 1
  45   25   26 ar
  46   26   44 1
  47   27   28 2
  48   28   29 1
  49   28   58 1
  50   29   59 1
  51   30   31 1
  52   30   60 1
  53   30   61 1
  54   31   32 1
  55   31   62 1
  56   31   63 1
  57   32   33 1
  58   32   64 1
  59   32   65 1
  60   33   34 am
  61   33   66 1
  62   34   35 1
  63   34   39 2
  64   35   36 1
  65   36   37 1
  66   36   67 1
  67   36   68 1
  68   37   38 ar
  69   37   40 ar
  70   38   43 ar
  71   38   69 1
  72   40   41 ar
  73   40   70 1
  74   41   42 ar
  75   41   71 1
  76   42   43 ar
  77   42   72 1
  78   43   73 1
  79   44   74 1
  80   44   75 1

#	End of record

