#	Name: ASD09116115
#	Creating user name:	WinNT
#	Creation time:	15. 06. 2019 21:20

#	Modifying user name:	WinNT
#	Modification time:	15. 06. 2019 21:20

#	Program:	/corina/corina34_cracker 3.40 0067  02.08.2006

@<TRIPOS>MOLECULE
ASD09116115
  54   57    0    0    0
SMALL
NO_CHARGES


@<TRIPOS>ATOM
   1 C1             1.6552    -0.9181     1.1870 C.2     
   2 N2             0.5856    -0.0786     1.0558 N.pl3   
   3 O3             2.8697    -0.5364     0.7444 O.3     
   4 N4             1.5005    -2.0998     1.7515 N.2     
   5 C5            -3.2254    -1.3921     2.0866 C.ar    
   6 C6            -2.3712    -2.2312     1.4178 C.ar    
   7 C7            -2.8122    -3.6343     1.0555 C.3     
   8 C8            -3.8642    -3.5410    -0.0524 C.3     
   9 C9            -5.2478    -3.3310     0.5304 C.3     
  10 C10           -5.4516    -1.9819     1.1910 C.3     
  11 C11           -4.6136    -1.8650     2.4662 C.3     
  12 C12           -1.1029    -1.8058     1.0698 C.ar    
  13 C13           -0.6958    -0.5192     1.4022 C.ar    
  14 C14           -1.5631     0.3281     2.0792 C.ar    
  15 C15           -2.8270    -0.1106     2.4256 C.ar    
  16 N16           -6.2345    -3.4755    -0.5482 N.3     
  17 C17           -7.6091    -3.3995    -0.0205 C.3     
  18 C18           -8.3242    -2.2560    -0.7703 C.3     
  19 C19           -7.4961    -2.1223    -2.0754 C.3     
  20 C20           -6.0628    -2.4192    -1.5684 C.3     
  21 C21            2.5110    -3.0021     1.7222 C.1     
  22 N22            3.3581    -3.7586     1.6976 N.1     
  23 C23            2.9161     0.1088    -0.4509 C.ar    
  24 C24            4.1233     0.5954    -0.9314 C.ar    
  25 C25            4.1678     1.2509    -2.1466 C.ar    
  26 C26            3.0106     1.4223    -2.8838 C.ar    
  27 C27            1.8063     0.9383    -2.4071 C.ar    
  28 C28            1.7574     0.2770    -1.1952 C.ar    
  29 H29            0.7149     0.8231     0.7225 H       
  30 H30           -1.9557    -4.2072     0.7000 H       
  31 H31           -3.2438    -4.1201     1.9306 H       
  32 H32           -3.6209    -2.7047    -0.7078 H       
  33 H33           -3.8562    -4.4638    -0.6325 H       
  34 H34           -5.4331    -4.1098     1.2702 H       
  35 H35           -5.1582    -1.1949     0.4963 H       
  36 H36           -6.5053    -1.8619     1.4426 H       
  37 H37           -4.5488    -2.8385     2.9522 H       
  38 H38           -5.0739    -1.1446     3.1423 H       
  39 H39           -0.4326    -2.4690     0.5433 H       
  40 H40           -1.2487     1.3283     2.3382 H       
  41 H41           -3.5037     0.5463     2.9519 H       
  42 H42           -8.1276    -4.3415    -0.1994 H       
  43 H43           -7.5848    -3.1842     1.0478 H       
  44 H44           -9.3557    -2.5279    -0.9945 H       
  45 H45           -8.2848    -1.3325    -0.1927 H       
  46 H46           -7.8096    -2.8601    -2.8140 H       
  47 H47           -7.5657    -1.1127    -2.4804 H       
  48 H48           -5.6262    -1.5265    -1.1205 H       
  49 H49           -5.4381    -2.7791    -2.3858 H       
  50 H50            5.0273     0.4621    -0.3558 H       
  51 H51            5.1071     1.6302    -2.5209 H       
  52 H52            3.0474     1.9354    -3.8334 H       
  53 H53            0.9038     1.0737    -2.9846 H       
  54 H54            0.8174    -0.1051    -0.8255 H       
@<TRIPOS>BOND
   1    1    2 1
   2    1    3 1
   3    1    4 2
   4    2   13 1
   5    2   29 1
   6    3   23 1
   7    4   21 1
   8    5    6 ar
   9    5   11 1
  10    5   15 ar
  11    6    7 1
  12    6   12 ar
  13    7    8 1
  14    7   30 1
  15    7   31 1
  16    8    9 1
  17    8   32 1
  18    8   33 1
  19    9   10 1
  20    9   16 1
  21    9   34 1
  22   10   11 1
  23   10   35 1
  24   10   36 1
  25   11   37 1
  26   11   38 1
  27   12   13 ar
  28   12   39 1
  29   13   14 ar
  30   14   15 ar
  31   14   40 1
  32   15   41 1
  33   16   17 1
  34   16   20 1
  35   17   18 1
  36   17   42 1
  37   17   43 1
  38   18   19 1
  39   18   44 1
  40   18   45 1
  41   19   20 1
  42   19   46 1
  43   19   47 1
  44   20   48 1
  45   20   49 1
  46   21   22 3
  47   23   24 ar
  48   23   28 ar
  49   24   25 ar
  50   24   50 1
  51   25   26 ar
  52   25   51 1
  53   26   27 ar
  54   26   52 1
  55   27   28 ar
  56   27   53 1
  57   28   54 1

#	End of record

