#	Name: ASD03240408
#	Creating user name:	WinNT
#	Creation time:	15. 06. 2019 20:34

#	Modifying user name:	WinNT
#	Modification time:	15. 06. 2019 20:34

#	Program:	/corina/corina34_cracker 3.40 0067  02.08.2006

@<TRIPOS>MOLECULE
ASD03240408
  44   47    0    0    0
SMALL
NO_CHARGES


@<TRIPOS>ATOM
   1 C1            -0.0167     1.3779     0.0096 C.ar    
   2 C2            -0.9067     1.5333     1.0556 C.ar    
   3 C3             2.5455     0.3633     1.2123 C.ar    
   4 C4             2.4359     1.1903     0.1090 C.ar    
   5 C5             1.2781     2.1490     0.0014 C.3     
   6 C6             3.6039    -0.5166     1.3158 C.ar    
   7 C7             4.5626    -0.5709     0.3066 C.ar    
   8 C8             4.4476     0.2645    -0.8021 C.ar    
   9 C9             3.3852     1.1408    -0.8957 C.ar    
  10 C10            5.7035    -1.5151     0.4128 C.2     
  11 C11           -2.0951     0.8265     1.0645 C.ar    
  12 C12           -2.3948    -0.0364     0.0276 C.ar    
  13 C13           -1.5048    -0.1935    -1.0211 C.ar    
  14 C14           -0.3116     0.5106    -1.0268 C.ar    
  15 F15           -1.7970    -1.0369    -2.0353 F       
  16 Cl16           0.8059     0.3157    -2.3409 Cl      
  17 C17            1.3918     2.9443    -1.3021 C.3     
  18 C18            0.2478     3.9581    -1.3768 C.3     
  19 N19            0.3180     4.8632    -0.2225 N.3     
  20 C20            0.1637     4.1277     1.0391 C.3     
  21 C21            1.3042     3.1179     1.1868 C.3     
  22 C22            6.7081    -1.6714    -0.4970 C.2     
  23 N23            7.5396    -2.6230    -0.0271 N.pl3   
  24 N24            7.0424    -3.0700     1.2031 N.2     
  25 C25            5.9488    -2.4081     1.4741 C.2     
  26 H26           -0.6736     2.2070     1.8668 H       
  27 H27            1.8041     0.4094     1.9963 H       
  28 H28            3.6888    -1.1617     2.1779 H       
  29 H29            5.1881     0.2264    -1.5873 H       
  30 H30            3.2949     1.7886    -1.7551 H       
  31 H31           -2.7894     0.9487     1.8827 H       
  32 H32           -3.3231    -0.5883     0.0355 H       
  33 H33            2.3462     3.4702    -1.3255 H       
  34 H34            1.3302     2.2630    -2.1507 H       
  35 H35            0.3341     4.5359    -2.2971 H       
  36 H36           -0.7060     3.4307    -1.3673 H       
  37 H37            1.1770     5.3925    -0.2297 H       
  38 H38            0.1888     4.8285     1.8735 H       
  39 H39           -0.7898     3.5995     1.0372 H       
  40 H40            1.1799     2.5618     2.1160 H       
  41 H41            2.2578     3.6457     1.2026 H       
  42 H42            6.8174    -1.1307    -1.4255 H       
  43 H43            8.3434    -2.9430    -0.4657 H       
  44 H44            5.3358    -2.5297     2.3549 H       
@<TRIPOS>BOND
   1    1    2 ar
   2    1    5 1
   3    1   14 ar
   4    2   11 ar
   5    2   26 1
   6    3    4 ar
   7    3    6 ar
   8    3   27 1
   9    4    5 1
  10    4    9 ar
  11    5   17 1
  12    5   21 1
  13    6    7 ar
  14    6   28 1
  15    7    8 ar
  16    7   10 1
  17    8    9 ar
  18    8   29 1
  19    9   30 1
  20   10   22 2
  21   10   25 1
  22   11   12 ar
  23   11   31 1
  24   12   13 ar
  25   12   32 1
  26   13   14 ar
  27   13   15 1
  28   14   16 1
  29   17   18 1
  30   17   33 1
  31   17   34 1
  32   18   19 1
  33   18   35 1
  34   18   36 1
  35   19   20 1
  36   19   37 1
  37   20   21 1
  38   20   38 1
  39   20   39 1
  40   21   40 1
  41   21   41 1
  42   22   23 1
  43   22   42 1
  44   23   24 1
  45   23   43 1
  46   24   25 2
  47   25   44 1

#	End of record

