#	Name: ASD04882442
#	Creating user name:	WinNT
#	Creation time:	15. 06. 2019 20:54

#	Modifying user name:	WinNT
#	Modification time:	15. 06. 2019 20:54

#	Program:	/corina/corina34_cracker 3.40 0067  02.08.2006

@<TRIPOS>MOLECULE
ASD04882442
  81   85    0    0    0
SMALL
NO_CHARGES


@<TRIPOS>ATOM
   1 C1            -0.0215     1.4013    -0.0093 C.ar    
   2 C2            -0.0116     0.0037    -0.0052 C.ar    
   3 C3            -1.2095    -0.7018    -0.0165 C.ar    
   4 C4            -2.4097    -0.0267    -0.0324 C.ar    
   5 C5            -2.4268     1.3709    -0.0366 C.ar    
   6 C6            -1.2240     2.0827    -0.0190 C.ar    
   7 N7             1.1997    -0.6831     0.0099 N.3     
   8 C8             1.3066    -1.5361     1.2018 C.3     
   9 C9             1.3724    -1.4733    -1.2170 C.3     
  10 C10            2.7462    -2.1476    -1.1972 C.3     
  11 N11            2.8531    -3.0006    -0.0053 N.3     
  12 C12            2.6805    -2.2104     1.2216 C.3     
  13 C13           -3.7127     2.0939    -0.0536 C.2     
  14 O14           -3.7266     3.3098    -0.0573 O.2     
  15 N15           -4.8720     1.4067    -0.0650 N.am    
  16 N16            1.1863     2.1109     0.0021 N.am    
  17 C17            1.2294     3.3599     0.5068 C.2     
  18 C18            2.5092     4.0695     0.5995 C.2     
  19 O19            3.7101     3.5923     0.2121 O.3     
  20 C20            4.0681    -3.6895     0.0098 C.ar    
  21 O21            0.2059     3.8988     0.8856 O.2     
  22 C22            2.6935     5.3315     1.0876 C.2     
  23 C23            4.0664     5.6062     0.9879 C.2     
  24 C24            4.6520     4.5153     0.4466 C.2     
  25 C25            4.0808    -5.0783     0.0140 C.ar    
  26 C26            5.2841    -5.7563     0.0285 C.ar    
  27 C27            6.4751    -5.0541     0.0393 C.ar    
  28 C28            6.4660    -3.6710     0.0352 C.ar    
  29 C29            5.2667    -2.9869     0.0149 C.ar    
  30 C30            2.7832    -5.8446     0.0032 C.3     
  31 C31           -6.1490     2.1246    -0.0818 C.3     
  32 C32           -7.3004     1.1171    -0.0922 C.3     
  33 C33           -8.6139     1.8556    -0.1096 C.ar    
  34 C34           -9.2024     2.1908    -1.3144 C.ar    
  35 C35          -10.4075     2.8683    -1.3303 C.ar    
  36 C36          -11.0239     3.2101    -0.1413 C.ar    
  37 C37          -10.4356     2.8740     1.0639 C.ar    
  38 C38           -9.2331     2.1929     1.0797 C.ar    
  39 C39          -11.0486     3.2347    -2.6439 C.3     
  40 N40          -11.9357     2.1464    -3.0762 N.3     
  41 C41          -13.0747     2.0004    -2.1600 C.3     
  42 C42          -12.3936     2.3571    -4.4560 C.3     
  43 H43           -1.1988    -1.7817    -0.0133 H       
  44 H44           -3.3386    -0.5776    -0.0419 H       
  45 H45           -1.2341     3.1626    -0.0222 H       
  46 H46            1.1879    -0.9262     2.0973 H       
  47 H47            0.5278    -2.2982     1.1746 H       
  48 H48            0.5943    -2.2347    -1.2716 H       
  49 H49            1.3016    -0.8176    -2.0848 H       
  50 H50            2.8649    -2.7575    -2.0927 H       
  51 H51            3.5250    -1.3855    -1.1700 H       
  52 H52            3.4585    -1.4490     1.2763 H       
  53 H53            2.7512    -2.8660     2.0895 H       
  54 H54           -4.8609     0.4367    -0.0621 H       
  55 H55            1.9917     1.7034    -0.3533 H       
  56 H56            1.9307     5.9907     1.4748 H       
  57 H57            4.5612     6.5192     1.2846 H       
  58 H58            5.7059     4.4055     0.2379 H       
  59 H59            5.2947    -6.8363     0.0318 H       
  60 H60            7.4145    -5.5867     0.0514 H       
  61 H61            7.3981    -3.1255     0.0440 H       
  62 H62            5.2604    -1.9070     0.0114 H       
  63 H63            2.4807    -6.0323    -1.0270 H       
  64 H64            2.9177    -6.7942     0.5212 H       
  65 H65            2.0127    -5.2615     0.5077 H       
  66 H66           -6.2241     2.7531     0.8055 H       
  67 H67           -6.2036     2.7480    -0.9743 H       
  68 H68           -7.2252     0.4886    -0.9796 H       
  69 H69           -7.2458     0.4937     0.8003 H       
  70 H70           -8.7208     1.9237    -2.2434 H       
  71 H71          -11.9648     3.7400    -0.1537 H       
  72 H72          -10.9171     3.1414     1.9929 H       
  73 H73           -8.7736     1.9303     2.0212 H       
  74 H74          -11.6285     4.1496    -2.5226 H       
  75 H75          -10.2743     3.3922    -3.3948 H       
  76 H76          -13.6453     2.9289    -2.1388 H       
  77 H77          -13.7153     1.1880    -2.5033 H       
  78 H78          -12.7087     1.7759    -1.1582 H       
  79 H79          -11.5324     2.3919    -5.1233 H       
  80 H80          -13.0486     1.5371    -4.7506 H       
  81 H81          -12.9395     3.2985    -4.5179 H       
@<TRIPOS>BOND
   1    1    2 ar
   2    1   16 1
   3    1    6 ar
   4    2    3 ar
   5    2    7 1
   6    3    4 ar
   7    3   43 1
   8    4    5 ar
   9    4   44 1
  10    5    6 ar
  11    5   13 1
  12    6   45 1
  13    7    8 1
  14    7    9 1
  15    8   12 1
  16    8   46 1
  17    8   47 1
  18    9   10 1
  19    9   48 1
  20    9   49 1
  21   10   11 1
  22   10   50 1
  23   10   51 1
  24   11   12 1
  25   11   20 1
  26   12   52 1
  27   12   53 1
  28   13   14 2
  29   13   15 am
  30   15   31 1
  31   15   54 1
  32   16   17 am
  33   16   55 1
  34   17   18 1
  35   17   21 2
  36   18   22 2
  37   18   19 1
  38   19   24 1
  39   20   25 ar
  40   20   29 ar
  41   22   23 1
  42   22   56 1
  43   23   24 2
  44   23   57 1
  45   24   58 1
  46   25   26 ar
  47   25   30 1
  48   26   27 ar
  49   26   59 1
  50   27   28 ar
  51   27   60 1
  52   28   29 ar
  53   28   61 1
  54   29   62 1
  55   30   63 1
  56   30   64 1
  57   30   65 1
  58   31   32 1
  59   31   66 1
  60   31   67 1
  61   32   33 1
  62   32   68 1
  63   32   69 1
  64   33   34 ar
  65   33   38 ar
  66   34   35 ar
  67   34   70 1
  68   35   36 ar
  69   35   39 1
  70   36   37 ar
  71   36   71 1
  72   37   38 ar
  73   37   72 1
  74   38   73 1
  75   39   40 1
  76   39   74 1
  77   39   75 1
  78   40   41 1
  79   40   42 1
  80   41   76 1
  81   41   77 1
  82   41   78 1
  83   42   79 1
  84   42   80 1
  85   42   81 1

#	End of record

