#	Name: ASD00960177
#	Creating user name:	WinNT
#	Creation time:	15. 06. 2019 18:53

#	Modifying user name:	WinNT
#	Modification time:	15. 06. 2019 18:53

#	Program:	/corina/corina34_cracker 3.40 0067  02.08.2006

@<TRIPOS>MOLECULE
ASD00960177
  32   34    0    0    0
SMALL
NO_CHARGES


@<TRIPOS>ATOM
   1 C1            -0.0168     1.3883     0.0097 C.2     
   2 C2             0.0021    -0.0041     0.0020 C.2     
   3 N3             1.2753     1.8330    -0.0003 N.pl3   
   4 C4             2.1091     0.7445    -0.0141 C.2     
   5 C5             1.3259    -0.4036    -0.0128 C.2     
   6 N6             1.8458     3.1134     0.0011 N.2     
   7 C7             3.1461     3.2507    -0.0105 C.2     
   8 N8             3.9670     2.2043    -0.0244 N.2     
   9 C9             3.5077     0.9651    -0.0258 C.2     
  10 N10            4.3823    -0.1031    -0.0405 N.pl3   
  11 I11            3.9624     5.1801    -0.0080 I       
  12 C12           -1.2120     2.2288     0.0202 C.2     
  13 O13           -2.3157     1.7168     0.0233 O.2     
  14 O14           -1.0916     3.5728     0.0264 O.3     
  15 C15           -2.3019     4.3325     0.0365 C.3     
  16 C16           -1.9720     5.8030     0.0423 C.ar    
  17 C17           -1.8269     6.4834    -1.1522 C.ar    
  18 C18           -1.5242     7.8322    -1.1469 C.ar    
  19 C19           -1.3671     8.5006     0.0528 C.ar    
  20 C20           -1.5130     7.8204     1.2473 C.ar    
  21 C21           -1.8200     6.4725     1.2421 C.ar    
  22 H22           -0.8605    -0.6539     0.0071 H       
  23 H23            1.6855    -1.4219    -0.0217 H       
  24 H24            5.3395     0.0539    -0.0499 H       
  25 H25            4.0397    -1.0105    -0.0415 H       
  26 H26           -2.8874     4.0950    -0.8516 H       
  27 H27           -2.8782     4.0860     0.9283 H       
  28 H28           -1.9497     5.9612    -2.0895 H       
  29 H29           -1.4102     8.3637    -2.0801 H       
  30 H30           -1.1299     9.5543     0.0570 H       
  31 H31           -1.3899     8.3425     2.1847 H       
  32 H32           -1.9377     5.9419     2.1753 H       
@<TRIPOS>BOND
   1    1    2 2
   2    1    3 1
   3    1   12 1
   4    2    5 1
   5    2   22 1
   6    3    4 1
   7    3    6 1
   8    4    5 2
   9    4    9 1
  10    5   23 1
  11    6    7 2
  12    7    8 1
  13    7   11 1
  14    8    9 2
  15    9   10 1
  16   10   24 1
  17   10   25 1
  18   12   13 2
  19   12   14 1
  20   14   15 1
  21   15   16 1
  22   15   26 1
  23   15   27 1
  24   16   17 ar
  25   16   21 ar
  26   17   18 ar
  27   17   28 1
  28   18   19 ar
  29   18   29 1
  30   19   20 ar
  31   19   30 1
  32   20   21 ar
  33   20   31 1
  34   21   32 1

#	End of record

