#	Name: ASD02440011
#	Creating user name:	WinNT
#	Creation time:	15. 06. 2019 20:21

#	Modifying user name:	WinNT
#	Modification time:	15. 06. 2019 20:21

#	Program:	/corina/corina34_cracker 3.40 0067  02.08.2006

@<TRIPOS>MOLECULE
ASD02440011
 119  122    0    0    0
SMALL
NO_CHARGES


@<TRIPOS>ATOM
   1 C1             3.1101    -1.7647    -0.6433 C.3     
   2 C2             3.5356    -3.2179    -0.4230 C.3     
   3 C3             4.1179    -3.3703     0.9837 C.3     
   4 C4             5.3344    -2.4549     1.1335 C.3     
   5 C5             4.9105    -1.0012     0.9129 C.3     
   6 C6             4.3262    -0.8488    -0.4931 C.3     
   7 C7             5.9200    -2.6095     2.5383 C.3     
   8 C8             7.1361    -1.6931     2.6889 C.3     
   9 C9             6.7083    -0.2406     2.4745 C.3     
  10 C10            6.1290    -0.0889     1.0594 C.3     
  11 C11            7.9083     0.6827     2.5700 C.3     
  12 C12            7.3761     2.1346     2.4286 C.3     
  13 C13            6.9199     2.3132     0.9939 C.3     
  14 C14            5.7380     1.3556     0.7665 C.3     
  15 C15            8.6026     0.7387     3.9350 C.3     
  16 C16            9.3281     2.1116     3.8997 C.3     
  17 C17            8.5582     2.9865     2.8791 C.3     
  18 C18            3.8536    -0.6147     1.9496 C.3     
  19 N19            2.3679    -4.0974    -0.5677 N.3     
  20 C20            2.1410    -4.4437    -1.9771 C.3     
  21 C21            0.9196    -5.3585    -2.0873 C.3     
  22 C22            0.6833    -5.7191    -3.5553 C.3     
  23 N23           -0.4894    -6.5974    -3.6612 N.3     
  24 C24           -0.7472    -6.9652    -5.0598 C.3     
  25 C25           -1.9731    -7.8781    -5.1295 C.3     
  26 C26           -2.2416    -8.2610    -6.5863 C.3     
  27 C27           -3.4674    -9.1740    -6.6559 C.3     
  28 N28           -3.7252    -9.5417    -8.0546 N.3     
  29 C29           -4.8980   -10.4200    -8.1604 C.3     
  30 C30           -5.1342   -10.7806    -9.6284 C.3     
  31 C31           -6.3557   -11.6954    -9.7386 C.3     
  32 N32           -6.5825   -12.0417   -11.1481 N.3     
  33 O33            8.1229    -2.0474     1.7179 O.3     
  34 C34            6.1945     2.3471     3.3772 C.3     
  35 C35            8.0622     4.2697     3.5487 C.3     
  36 C36            9.2598     5.0783     4.0516 C.3     
  37 C37            8.7613     6.2977     4.8296 C.3     
  38 C38            9.9589     7.1063     5.3325 C.3     
  39 C39            9.4648     8.2548     6.2143 C.3     
  40 C40           10.6645     8.9772     6.8306 C.3     
  41 C41            8.6579     9.2391     5.3651 C.3     
  42 C42            7.2743     5.1021     2.5352 C.3     
  43 O43           10.6774     7.6372     4.2171 O.3     
  44 S44           12.1734     7.3599     4.2556 S.o2    
  45 O45           12.7454     8.0942     3.1819 O.2     
  46 O46           12.5766     7.5205     5.6087 O.2     
  47 O47           12.3675     5.8879     3.9211 O.3     
  48 H48            2.6946    -1.6557    -1.6450 H       
  49 H49            2.3559    -1.4912     0.0946 H       
  50 H50            4.2903    -3.4914    -1.1604 H       
  51 H51            3.3635    -3.0957     1.7210 H       
  52 H52            4.4205    -4.4055     1.1416 H       
  53 H53            6.0880    -2.7291     0.3954 H       
  54 H54            5.0802    -1.1222    -1.2313 H       
  55 H55            4.0229     0.1863    -0.6501 H       
  56 H56            5.1667    -2.3378     3.2778 H       
  57 H57            6.2239    -3.6448     2.6931 H       
  58 H58            7.5540    -1.8052     3.6893 H       
  59 H59            5.9544     0.0338     3.2124 H       
  60 H60            6.8849    -0.3919     0.3349 H       
  61 H61            8.6223     0.4595     1.7772 H       
  62 H62            6.5996     3.3424     0.8321 H       
  63 H63            7.7339     2.0658     0.3125 H       
  64 H64            5.4103     1.4332    -0.2702 H       
  65 H65            4.9154     1.6423     1.4218 H       
  66 H66            7.8702     0.7102     4.7418 H       
  67 H67            9.3210    -0.0747     4.0360 H       
  68 H68            9.3002     2.5750     4.8859 H       
  69 H69           10.3608     1.9808     3.5763 H       
  70 H70            9.1970     3.2258     2.0290 H       
  71 H71            4.2701    -0.7235     2.9510 H       
  72 H72            3.5519     0.4209     1.7921 H       
  73 H73            2.9860    -1.2659     1.8442 H       
  74 H74            2.4683    -4.9276    -0.0030 H       
  75 H75            1.9664    -3.5337    -2.5512 H       
  76 H76            3.0175    -4.9588    -2.3703 H       
  77 H77            1.0942    -6.2684    -1.5132 H       
  78 H78            0.0432    -4.8433    -1.6941 H       
  79 H79            0.5087    -4.8092    -4.1294 H       
  80 H80            1.5597    -6.2342    -3.9485 H       
  81 H81           -0.3790    -7.4189    -3.0858 H       
  82 H82           -0.9318    -6.0638    -5.6444 H       
  83 H83            0.1193    -7.4889    -5.4635 H       
  84 H84           -1.7885    -8.7794    -4.5450 H       
  85 H85           -2.8396    -7.3543    -4.7259 H       
  86 H86           -2.4261    -7.3597    -7.1708 H       
  87 H87           -1.3751    -8.7848    -6.9899 H       
  88 H88           -3.2829   -10.0753    -6.0714 H       
  89 H89           -4.3339    -8.6502    -6.2523 H       
  90 H90           -3.8356    -8.7202    -8.6300 H       
  91 H91           -4.7234   -11.3300    -7.5863 H       
  92 H92           -5.7744    -9.9049    -7.7672 H       
  93 H93           -5.3088    -9.8707   -10.2025 H       
  94 H94           -4.2578   -11.2958   -10.0216 H       
  95 H95           -6.1811   -12.6054    -9.1645 H       
  96 H96           -7.2321   -11.1803    -9.3454 H       
  97 H97           -5.7602   -12.4627   -11.5539 H       
  98 H98           -7.3846   -12.6458   -11.2475 H       
  99 H99            8.4404    -2.9577     1.7938 H       
 100 H100           6.5187     2.1801     4.4044 H       
 101 H101           5.8248     3.3672     3.2741 H       
 102 H102           5.3984     1.6452     3.1288 H       
 103 H103           7.4170     4.0149     4.3895 H       
 104 H104           9.8703     4.4551     4.7050 H       
 105 H105           9.8576     5.4087     3.2021 H       
 106 H106           8.1508     6.9209     4.1761 H       
 107 H107           8.1635     5.9673     5.6790 H       
 108 H108          10.6162     6.4591     5.9133 H       
 109 H109           8.8329     7.8572     7.0085 H       
 110 H110          11.3008     9.3675     6.0364 H       
 111 H111          10.3127     9.8007     7.4521 H       
 112 H112          11.2345     8.2780     7.4424 H       
 113 H113           9.2898     9.6367     4.5710 H       
 114 H114           7.8032     8.7244     4.9261 H       
 115 H115           8.3059    10.0573     5.9934 H       
 116 H116           6.4211     4.5260     2.1769 H       
 117 H117           6.9210     6.0163     3.0121 H       
 118 H118           7.9195     5.3569     1.6944 H       
 119 H119          13.2918     5.6037     3.9183 H       
@<TRIPOS>BOND
   1    1    2 1
   2    1    6 1
   3    1   48 1
   4    1   49 1
   5    2    3 1
   6    2   19 1
   7    2   50 1
   8    3    4 1
   9    3   51 1
  10    3   52 1
  11    4    5 1
  12    4    7 1
  13    4   53 1
  14    5    6 1
  15    5   18 1
  16    5   10 1
  17    6   54 1
  18    6   55 1
  19    7    8 1
  20    7   56 1
  21    7   57 1
  22    8   33 1
  23    8    9 1
  24    8   58 1
  25    9   10 1
  26    9   11 1
  27    9   59 1
  28   10   14 1
  29   10   60 1
  30   11   12 1
  31   11   15 1
  32   11   61 1
  33   12   13 1
  34   12   34 1
  35   12   17 1
  36   13   14 1
  37   13   62 1
  38   13   63 1
  39   14   64 1
  40   14   65 1
  41   15   16 1
  42   15   66 1
  43   15   67 1
  44   16   17 1
  45   16   68 1
  46   16   69 1
  47   17   35 1
  48   17   70 1
  49   18   71 1
  50   18   72 1
  51   18   73 1
  52   19   20 1
  53   19   74 1
  54   20   21 1
  55   20   75 1
  56   20   76 1
  57   21   22 1
  58   21   77 1
  59   21   78 1
  60   22   23 1
  61   22   79 1
  62   22   80 1
  63   23   24 1
  64   23   81 1
  65   24   25 1
  66   24   82 1
  67   24   83 1
  68   25   26 1
  69   25   84 1
  70   25   85 1
  71   26   27 1
  72   26   86 1
  73   26   87 1
  74   27   28 1
  75   27   88 1
  76   27   89 1
  77   28   29 1
  78   28   90 1
  79   29   30 1
  80   29   91 1
  81   29   92 1
  82   30   31 1
  83   30   93 1
  84   30   94 1
  85   31   32 1
  86   31   95 1
  87   31   96 1
  88   32   97 1
  89   32   98 1
  90   33   99 1
  91   34  100 1
  92   34  101 1
  93   34  102 1
  94   35   36 1
  95   35   42 1
  96   35  103 1
  97   36   37 1
  98   36  104 1
  99   36  105 1
 100   37   38 1
 101   37  106 1
 102   37  107 1
 103   38   39 1
 104   38   43 1
 105   38  108 1
 106   39   40 1
 107   39   41 1
 108   39  109 1
 109   40  110 1
 110   40  111 1
 111   40  112 1
 112   41  113 1
 113   41  114 1
 114   41  115 1
 115   42  116 1
 116   42  117 1
 117   42  118 1
 118   43   44 1
 119   44   45 2
 120   44   46 2
 121   44   47 1
 122   47  119 1

#	End of record

