#	Name: ASD01912136
#	Creating user name:	WinNT
#	Creation time:	15. 06. 2019 19:59

#	Modifying user name:	WinNT
#	Modification time:	15. 06. 2019 19:59

#	Program:	/corina/corina34_cracker 3.40 0067  02.08.2006

@<TRIPOS>MOLECULE
ASD01912136
  41   44    0    0    0
SMALL
NO_CHARGES


@<TRIPOS>ATOM
   1 C1            -0.0681     1.6249     0.1567 C.3     
   2 C2            -0.0656     0.1001     0.2870 C.3     
   3 C3            -1.5070    -0.4118     0.3360 C.3     
   4 C4            -2.2216    -0.0390    -0.9668 C.3     
   5 N5            -2.1028     1.4108    -1.1732 N.am    
   6 C6            -0.7664     2.0208    -1.1481 C.3     
   7 C7            -4.5208     1.5252    -1.5334 C.ar    
   8 C8            -3.1989     2.1668    -1.3816 C.2     
   9 O9            -3.0997     3.3768    -1.4446 O.2     
  10 C10            1.3514     2.1308     0.1411 C.2     
  11 O11            2.2970     1.8134    -0.7491 O.3     
  12 N12            3.3304     2.3894    -0.4820 N.2     
  13 C13            3.1696     3.1274     0.5887 C.2     
  14 N14            1.8874     2.9676     0.9935 N.2     
  15 C15            4.1929     3.9782     1.2301 C.2     
  16 S16            3.9429     4.9570     2.6700 S.3     
  17 C17           -5.6448     2.0822    -0.9198 C.ar    
  18 C18           -6.8758     1.4794    -1.0647 C.ar    
  19 C19           -6.9994     0.3220    -1.8181 C.ar    
  20 C20           -5.8866    -0.2356    -2.4291 C.ar    
  21 C21           -4.6519     0.3625    -2.2958 C.ar    
  22 F22           -8.2083    -0.2649    -1.9569 F       
  23 C23            5.6071     5.5224     2.6122 C.2     
  24 C24            6.2344     4.9743     1.5661 C.2     
  25 C25            5.4650     4.1203     0.8057 C.2     
  26 H26           -0.6006     2.0614     1.0018 H       
  27 H27            0.4460    -0.3368    -0.5706 H       
  28 H28            0.4524    -0.1853     1.2026 H       
  29 H29           -1.5044    -1.4956     0.4523 H       
  30 H30           -2.0264     0.0438     1.1790 H       
  31 H31           -1.7587    -0.5660    -1.8011 H       
  32 H32           -3.2742    -0.3132    -0.8975 H       
  33 H33           -0.8589     3.1057    -1.1984 H       
  34 H34           -0.1848     1.6618    -1.9972 H       
  35 H35           -5.5496     2.9836    -0.3325 H       
  36 H36           -7.7457     1.9092    -0.5903 H       
  37 H37           -5.9883    -1.1375    -3.0145 H       
  38 H38           -3.7858    -0.0724    -2.7725 H       
  39 H39            6.0549     6.2093     3.3151 H       
  40 H40            7.2691     5.1821     1.3366 H       
  41 H41            5.8484     3.6112    -0.0662 H       
@<TRIPOS>BOND
   1    1    2 1
   2    1   10 1
   3    1    6 1
   4    1   26 1
   5    2    3 1
   6    2   27 1
   7    2   28 1
   8    3    4 1
   9    3   29 1
  10    3   30 1
  11    4    5 1
  12    4   31 1
  13    4   32 1
  14    5    6 1
  15    5    8 am
  16    6   33 1
  17    6   34 1
  18    7    8 1
  19    7   17 ar
  20    7   21 ar
  21    8    9 2
  22   10   11 1
  23   10   14 2
  24   11   12 1
  25   12   13 2
  26   13   14 1
  27   13   15 1
  28   15   16 1
  29   15   25 2
  30   16   23 1
  31   17   18 ar
  32   17   35 1
  33   18   19 ar
  34   18   36 1
  35   19   20 ar
  36   19   22 1
  37   20   21 ar
  38   20   37 1
  39   21   38 1
  40   23   24 2
  41   23   39 1
  42   24   25 1
  43   24   40 1
  44   25   41 1

#	End of record

