#	Name: ASD01884044
#	Creating user name:	WinNT
#	Creation time:	15. 06. 2019 19:47

#	Modifying user name:	WinNT
#	Modification time:	15. 06. 2019 19:47

#	Program:	/corina/corina34_cracker 3.40 0067  02.08.2006

@<TRIPOS>MOLECULE
ASD01884044
  44   47    0    0    0
SMALL
NO_CHARGES


@<TRIPOS>ATOM
   1 C1            -0.4126     1.2909     0.2282 C.3     
   2 C2            -0.1489    -0.2150     0.1687 C.3     
   3 H3            -1.0904    -0.7537     0.2757 H       
   4 C4             0.4909    -0.5680    -1.1729 C.3     
   5 N5             1.0421    -1.9187    -1.1934 N.am    
   6 C6             1.7080    -2.4272    -0.1283 C.2     
   7 O7             2.3366    -3.4662    -0.2008 O.2     
   8 C8             1.6294    -1.6548     1.1179 C.2     
   9 C9             2.3120    -1.7709     2.3097 C.2     
  10 C10            1.8045    -0.7272     3.1150 C.2     
  11 N11            0.9016    -0.0843     2.4157 N.2     
  12 N12            0.7605    -0.5966     1.2566 N.pl3   
  13 C13            3.3478    -2.7692     2.6671 C.ar    
  14 C14            3.1331    -4.1344     2.4550 C.ar    
  15 C15            4.1241    -5.0296     2.8023 C.ar    
  16 N16            5.2599    -4.6123     3.3274 N.ar    
  17 C17            5.5026    -3.3336     3.5439 C.ar    
  18 C18            6.8199    -2.9187     4.1469 C.3     
  19 C19            4.5690    -2.3709     3.2204 C.ar    
  20 C20            0.8799    -2.7032    -2.3329 C.ar    
  21 C21            0.4138    -2.1236    -3.5075 C.ar    
  22 C22            0.2577    -2.9144    -4.6325 C.ar    
  23 C23            0.5745    -4.2628    -4.5432 C.ar    
  24 C24            1.0326    -4.7719    -3.3438 C.ar    
  25 N25            1.1762    -3.9928    -2.2891 N.ar    
  26 C26            0.4197    -5.1622    -5.7425 C.3     
  27 F27            1.6120    -5.1730    -6.4742 F       
  28 F28            0.1225    -6.4611    -5.3160 F       
  29 F29           -0.6191    -4.6875    -6.5504 F       
  30 H30            0.5291     1.8292     0.1211 H       
  31 H31           -1.0868     1.5739    -0.5802 H       
  32 H32           -0.8681     1.5425     1.1860 H       
  33 H33           -0.2628    -0.4832    -1.9557 H       
  34 H34            1.2915     0.1423    -1.3790 H       
  35 H35            2.1065    -0.4997     4.1266 H       
  36 H36            2.2052    -4.4832     2.0262 H       
  37 H37            3.9676    -6.0862     2.6423 H       
  38 H38            7.5422    -2.7361     3.3513 H       
  39 H39            6.6821    -2.0073     4.7287 H       
  40 H40            7.1881    -3.7125     4.7968 H       
  41 H41            4.7761    -1.3256     3.3960 H       
  42 H42            0.1764    -1.0706    -3.5415 H       
  43 H43           -0.1028    -2.4919    -5.5587 H       
  44 H44            1.2803    -5.8205    -3.2697 H       
@<TRIPOS>BOND
   1    1    2 1
   2    1   30 1
   3    1   31 1
   4    1   32 1
   5    2    3 1
   6    2   12 1
   7    2    4 1
   8    4    5 1
   9    4   33 1
  10    4   34 1
  11    5    6 am
  12    5   20 1
  13    6    7 2
  14    6    8 1
  15    8   12 1
  16    8    9 2
  17    9   10 1
  18    9   13 1
  19   10   11 2
  20   10   35 1
  21   11   12 1
  22   13   19 ar
  23   13   14 ar
  24   14   15 ar
  25   14   36 1
  26   15   16 ar
  27   15   37 1
  28   16   17 ar
  29   17   18 1
  30   17   19 ar
  31   18   38 1
  32   18   39 1
  33   18   40 1
  34   19   41 1
  35   20   25 ar
  36   20   21 ar
  37   21   22 ar
  38   21   42 1
  39   22   23 ar
  40   22   43 1
  41   23   24 ar
  42   23   26 1
  43   24   25 ar
  44   24   44 1
  45   26   27 1
  46   26   28 1
  47   26   29 1

#	End of record

