#	Name: ASD05723011
#	Creating user name:	WinNT
#	Creation time:	15. 06. 2019 21:02

#	Modifying user name:	WinNT
#	Modification time:	15. 06. 2019 21:02

#	Program:	/corina/corina34_cracker 3.40 0067  02.08.2006

@<TRIPOS>MOLECULE
ASD05723011
  52   56    0    0    0
SMALL
NO_CHARGES


@<TRIPOS>ATOM
   1 N1            -0.0160     1.3252     0.0093 N.ar    
   2 C2             0.0021    -0.0041     0.0020 C.ar    
   3 N3             1.1284    -0.6982    -0.0120 N.ar    
   4 C4             2.3059    -0.0794    -0.0199 C.ar    
   5 C5             2.3357     1.3299    -0.0131 C.ar    
   6 C6             1.1104     2.0263     0.0023 C.ar    
   7 N7             1.0830     3.4072     0.0091 N.3     
   8 C8            -0.2997     3.9066     0.0252 C.3     
   9 C9            -0.2834     5.4360     0.0926 C.3     
  10 O10            0.4647     5.9490    -1.0131 O.3     
  11 C11            1.8162     5.4835    -1.0593 C.3     
  12 C12            1.8212     3.9545    -1.1384 C.3     
  13 N13            3.6048    -0.4951    -0.0342 N.pl3   
  14 N14            4.4276     0.6383    -0.0362 N.2     
  15 C15            3.6933     1.7143    -0.0239 C.2     
  16 C16            4.0607    -1.8873    -0.0450 C.3     
  17 C17            4.8938    -2.1431    -1.3040 C.3     
  18 C18            5.4178    -3.5807    -1.2797 C.3     
  19 N19            6.2380    -3.7839    -0.0787 N.3     
  20 C20            5.4472    -3.5900     1.1434 C.3     
  21 C21            4.9241    -2.1526     1.1914 C.3     
  22 C22           -1.2876    -0.7357     0.0104 C.ar    
  23 C23           -1.3006    -2.1287     0.0030 C.ar    
  24 C24           -2.5089    -2.8062     0.0109 C.ar    
  25 C25           -3.7021    -2.0975     0.0256 C.ar    
  26 C26           -3.6899    -0.7150     0.0329 C.ar    
  27 C27           -2.4909    -0.0316     0.0314 C.ar    
  28 O28           -2.5258    -4.1652     0.0038 O.3     
  29 H29           -0.8124     3.5877    -0.8822 H       
  30 H30           -0.8200     3.5094     0.8968 H       
  31 H31           -1.3050     5.8132     0.0472 H       
  32 H32            0.1816     5.7543     1.0257 H       
  33 H33            2.3130     5.8950    -1.9379 H       
  34 H34            2.3422     5.8031    -0.1597 H       
  35 H35            2.8490     3.5923    -1.1162 H       
  36 H36            1.3423     3.6364    -2.0644 H       
  37 H37            4.0617     2.7296    -0.0226 H       
  38 H38            3.1979    -2.5532    -0.0377 H       
  39 H39            4.2724    -1.9972    -2.1875 H       
  40 H40            5.7345    -1.4498    -1.3312 H       
  41 H41            4.5766    -4.2737    -1.2665 H       
  42 H42            6.0233    -3.7617    -2.1678 H       
  43 H43            6.6727    -4.6944    -0.0874 H       
  44 H44            4.6058    -4.2829     1.1453 H       
  45 H45            6.0740    -3.7777     2.0152 H       
  46 H46            5.7652    -1.4595     1.2035 H       
  47 H47            4.3242    -2.0135     2.0908 H       
  48 H48           -0.3713    -2.6788    -0.0091 H       
  49 H49           -4.6431    -2.6276     0.0310 H       
  50 H50           -4.6213    -0.1683     0.0440 H       
  51 H51           -2.4847     1.0484     0.0371 H       
  52 H52           -2.5223    -4.5632     0.8850 H       
@<TRIPOS>BOND
   1    1    2 ar
   2    1    6 ar
   3    2    3 ar
   4    2   22 1
   5    3    4 ar
   6    4    5 ar
   7    4   13 1
   8    5    6 ar
   9    5   15 1
  10    6    7 1
  11    7    8 1
  12    7   12 1
  13    8    9 1
  14    8   29 1
  15    8   30 1
  16    9   10 1
  17    9   31 1
  18    9   32 1
  19   10   11 1
  20   11   12 1
  21   11   33 1
  22   11   34 1
  23   12   35 1
  24   12   36 1
  25   13   14 1
  26   13   16 1
  27   14   15 2
  28   15   37 1
  29   16   17 1
  30   16   21 1
  31   16   38 1
  32   17   18 1
  33   17   39 1
  34   17   40 1
  35   18   19 1
  36   18   41 1
  37   18   42 1
  38   19   20 1
  39   19   43 1
  40   20   21 1
  41   20   44 1
  42   20   45 1
  43   21   46 1
  44   21   47 1
  45   22   23 ar
  46   22   27 ar
  47   23   24 ar
  48   23   48 1
  49   24   25 ar
  50   24   28 1
  51   25   26 ar
  52   25   49 1
  53   26   27 ar
  54   26   50 1
  55   27   51 1
  56   28   52 1

#	End of record

