#	Name: ASD02401015
#	Creating user name:	WinNT
#	Creation time:	15. 06. 2019 20:20

#	Modifying user name:	WinNT
#	Modification time:	15. 06. 2019 20:20

#	Program:	/corina/corina34_cracker 3.40 0067  02.08.2006

@<TRIPOS>MOLECULE
ASD02401015
  32   33    0    0    0
SMALL
NO_CHARGES


@<TRIPOS>ATOM
   1 C1             0.0345     2.1735    -0.2562 C.ar    
   2 C2             0.3337     0.8173    -0.3651 C.ar    
   3 C3            -0.6874    -0.1181    -0.3385 C.ar    
   4 C4            -2.0004     0.2947    -0.2045 C.ar    
   5 C5            -2.2983     1.6405    -0.0968 C.ar    
   6 C6            -1.2846     2.5799    -0.1163 C.ar    
   7 C7            -3.7313     2.0838     0.0484 C.3     
   8 C8            -4.4743     1.8100    -1.2337 C.ar    
   9 C9            -4.9029     2.8624    -2.0213 C.ar    
  10 C10           -5.5842     2.6140    -3.1972 C.ar    
  11 C11           -5.8382     1.3072    -3.5875 C.ar    
  12 C12           -5.4071     0.2529    -2.7954 C.ar    
  13 C13           -4.7213     0.5065    -1.6234 C.ar    
  14 O14           -6.5086     1.0603    -4.7435 O.3     
  15 N15            1.0623     3.1232    -0.2820 N.pl3   
  16 O16            1.6255     0.4127    -0.4977 O.3     
  17 C17           -4.3900     1.3130     1.1942 C.3     
  18 H18           -0.4582    -1.1701    -0.4228 H       
  19 H19           -2.7953    -0.4362    -0.1843 H       
  20 H20           -1.5200     3.6305    -0.0320 H       
  21 H21           -3.7610     3.1517     0.2646 H       
  22 H22           -4.7051     3.8796    -1.7169 H       
  23 H23           -5.9190     3.4365    -3.8118 H       
  24 H24           -5.6037    -0.7653    -3.0971 H       
  25 H25           -4.3855    -0.3138    -1.0064 H       
  26 H26           -5.9370     0.9715    -5.5184 H       
  27 H27            1.9845     2.8374    -0.3758 H       
  28 H28            0.8525     4.0672    -0.2060 H       
  29 H29            2.0722     0.2413     0.3426 H       
  30 H30           -3.8526     1.5110     2.1216 H       
  31 H31           -5.4264     1.6336     1.2993 H       
  32 H32           -4.3602     0.2450     0.9780 H       
@<TRIPOS>BOND
   1    1    2 ar
   2    1   15 1
   3    1    6 ar
   4    2    3 ar
   5    2   16 1
   6    3    4 ar
   7    3   18 1
   8    4    5 ar
   9    4   19 1
  10    5    6 ar
  11    5    7 1
  12    6   20 1
  13    7    8 1
  14    7   17 1
  15    7   21 1
  16    8    9 ar
  17    8   13 ar
  18    9   10 ar
  19    9   22 1
  20   10   11 ar
  21   10   23 1
  22   11   12 ar
  23   11   14 1
  24   12   13 ar
  25   12   24 1
  26   13   25 1
  27   14   26 1
  28   15   27 1
  29   15   28 1
  30   16   29 1
  31   17   30 1
  32   17   31 1
  33   17   32 1

#	End of record

