#	Name: ASD04591001
#	Creating user name:	WinNT
#	Creation time:	15. 06. 2019 20:51

#	Modifying user name:	WinNT
#	Modification time:	15. 06. 2019 20:51

#	Program:	/corina/corina34_cracker 3.40 0067  02.08.2006

@<TRIPOS>MOLECULE
ASD04591001
  61   66    0    0    0
SMALL
NO_CHARGES


@<TRIPOS>ATOM
   1 N1            -0.0171     1.3229    -0.0119 N.ar    
   2 C2             0.0017    -0.0035    -0.0051 C.ar    
   3 N3             1.1297    -0.6952    -0.0123 N.ar    
   4 C4             2.3048    -0.0728    -0.0266 C.ar    
   5 C5             2.3180     1.3354    -0.0341 C.ar    
   6 C6             1.1079     2.0199    -0.0261 C.ar    
   7 N7             3.6036    -0.5177    -0.0362 N.pl3   
   8 C8             4.4824     0.5537    -0.0498 C.ar    
   9 C9             3.7335     1.7403    -0.0491 C.ar    
  10 C10            5.8713     0.6252    -0.0636 C.ar    
  11 C11            6.4997     1.8521    -0.0760 C.ar    
  12 C12            5.7585     3.0235    -0.0753 C.ar    
  13 C13            4.3811     2.9731    -0.0622 C.ar    
  14 C14            4.0041    -1.9269    -0.0325 C.3     
  15 N15           -1.2025    -0.6889     0.0103 N.pl3   
  16 C16           -2.4023     0.0120     0.1313 C.ar    
  17 N17           -2.3785     1.3197     0.3319 N.ar    
  18 C18           -3.4885     2.0231     0.4522 C.ar    
  19 C19           -4.7293     1.4090     0.3721 C.ar    
  20 C20           -4.7939     0.0324     0.1614 C.ar    
  21 C21           -3.6099    -0.6707     0.0340 C.ar    
  22 N22           -5.9023     2.1620     0.5017 N.3     
  23 C23            3.4607    -2.6083     1.2250 C.3     
  24 C24            3.8789    -4.0800     1.2288 C.3     
  25 C25            3.3137    -4.7741    -0.0120 C.3     
  26 C26            3.8571    -4.0927    -1.2696 C.3     
  27 C27            3.4388    -2.6210    -1.2734 C.3     
  28 C28           -5.5950     3.5829     0.7169 C.3     
  29 C29           -6.8996     4.3813     0.7738 C.3     
  30 N30           -7.7442     3.8582     1.8567 N.3     
  31 C31           -8.0515     2.4373     1.6415 C.3     
  32 C32           -6.7469     1.6389     1.5847 C.3     
  33 H33            1.0863     3.0996    -0.0319 H       
  34 H34            6.4582    -0.2815    -0.0643 H       
  35 H35            7.5786     1.9011    -0.0859 H       
  36 H36            6.2620     3.9790    -0.0850 H       
  37 H37            3.8058     3.8871    -0.0613 H       
  38 H38            5.0919    -1.9955    -0.0417 H       
  39 H39           -1.2111    -1.6561    -0.0630 H       
  40 H40           -3.4300     3.0891     0.6153 H       
  41 H41           -5.7464    -0.4723     0.0948 H       
  42 H42           -3.6229    -1.7380    -0.1303 H       
  43 H43            3.8634    -2.1138     2.1090 H       
  44 H44            2.3729    -2.5397     1.2341 H       
  45 H45            4.9667    -4.1486     1.2196 H       
  46 H46            3.4918    -4.5654     2.1247 H       
  47 H47            3.6117    -5.8225    -0.0093 H       
  48 H48            2.2259    -4.7055    -0.0029 H       
  49 H49            4.9449    -4.1613    -1.2787 H       
  50 H50            3.4544    -4.5872    -2.1535 H       
  51 H51            2.3510    -2.5524    -1.2642 H       
  52 H52            3.8260    -2.1356    -2.1693 H       
  53 H53           -5.0557     3.7000     1.6569 H       
  54 H54           -4.9794     3.9502    -0.1042 H       
  55 H55           -6.6754     5.4312     0.9622 H       
  56 H56           -7.4258     4.2862    -0.1760 H       
  57 H57           -7.3095     4.0020     2.7559 H       
  58 H58           -8.6671     2.0700     2.4626 H       
  59 H59           -8.5908     2.3202     0.7016 H       
  60 H60           -6.9711     0.5890     1.3962 H       
  61 H61           -6.2207     1.7340     2.5345 H       
@<TRIPOS>BOND
   1    1    2 ar
   2    1    6 ar
   3    2    3 ar
   4    2   15 1
   5    3    4 ar
   6    4    5 ar
   7    4    7 1
   8    5    6 ar
   9    5    9 1
  10    6   33 1
  11    7    8 1
  12    7   14 1
  13    8    9 ar
  14    8   10 ar
  15    9   13 ar
  16   10   11 ar
  17   10   34 1
  18   11   12 ar
  19   11   35 1
  20   12   13 ar
  21   12   36 1
  22   13   37 1
  23   14   23 1
  24   14   27 1
  25   14   38 1
  26   15   16 1
  27   15   39 1
  28   16   17 ar
  29   16   21 ar
  30   17   18 ar
  31   18   19 ar
  32   18   40 1
  33   19   20 ar
  34   19   22 1
  35   20   21 ar
  36   20   41 1
  37   21   42 1
  38   22   28 1
  39   22   32 1
  40   23   24 1
  41   23   43 1
  42   23   44 1
  43   24   25 1
  44   24   45 1
  45   24   46 1
  46   25   26 1
  47   25   47 1
  48   25   48 1
  49   26   27 1
  50   26   49 1
  51   26   50 1
  52   27   51 1
  53   27   52 1
  54   28   29 1
  55   28   53 1
  56   28   54 1
  57   29   30 1
  58   29   55 1
  59   29   56 1
  60   30   31 1
  61   30   57 1
  62   31   32 1
  63   31   58 1
  64   31   59 1
  65   32   60 1
  66   32   61 1

#	End of record

