#	Name: ASD08151031
#	Creating user name:	WinNT
#	Creation time:	15. 06. 2019 21:17

#	Modifying user name:	WinNT
#	Modification time:	15. 06. 2019 21:17

#	Program:	/corina/corina34_cracker 3.40 0067  02.08.2006

@<TRIPOS>MOLECULE
ASD08151031
  38   40    0    0    0
SMALL
NO_CHARGES


@<TRIPOS>ATOM
   1 N1             0.3500     1.2125     0.4893 N.ar    
   2 C2             0.4449    -0.0834     0.6647 C.ar    
   3 C3             1.6705    -0.7013     0.9040 C.ar    
   4 C4             2.8115     0.0478     0.9604 C.ar    
   5 C5             2.7041     1.4387     0.7713 C.ar    
   6 C6             3.8401     2.2680     0.8170 C.ar    
   7 C7             3.7170     3.6096     0.6320 C.ar    
   8 C8             2.4621     4.1916     0.3937 C.ar    
   9 C9             1.3125     3.3983     0.3423 C.ar    
  10 C10            1.4267     2.0002     0.5323 C.ar    
  11 C11            2.3559     5.6502     0.1968 C.2     
  12 O12            1.4062     6.2576     0.6523 O.2     
  13 N13            3.3115     6.3091    -0.4881 N.am    
  14 C14            3.1507     7.7353    -0.7820 C.3     
  15 O15            4.4710     5.6229    -0.9237 O.3     
  16 C16            4.3926     5.1441    -2.2678 C.3     
  17 C17           -0.0086     4.0128     0.0922 C.ar    
  18 C18           -0.7924     4.4537     1.1631 C.ar    
  19 C19           -2.0260     5.0275     0.9206 C.ar    
  20 C20           -2.4845     5.1650    -0.3771 C.ar    
  21 C21           -1.7132     4.7300    -1.4405 C.ar    
  22 C22           -0.4770     4.1610    -1.2141 C.ar    
  23 F23           -0.3453     4.3188     2.4308 F       
  24 Cl24           5.4047     1.5757     1.1111 Cl      
  25 H25           -0.4497    -0.6871     0.6230 H       
  26 H26            1.7184    -1.7710     1.0452 H       
  27 H27            3.7699    -0.4144     1.1453 H       
  28 H28            4.5963     4.2356     0.6693 H       
  29 H29            3.5815     8.3240     0.0280 H       
  30 H30            3.6605     7.9737    -1.7154 H       
  31 H31            2.0903     7.9693    -0.8771 H       
  32 H32            5.3189     4.6305    -2.5252 H       
  33 H33            3.5558     4.4515    -2.3585 H       
  34 H34            4.2432     5.9851    -2.9449 H       
  35 H35           -2.6334     5.3689     1.7458 H       
  36 H36           -3.4494     5.6137    -0.5614 H       
  37 H37           -2.0781     4.8404    -2.4509 H       
  38 H38            0.1250     3.8263    -2.0460 H       
@<TRIPOS>BOND
   1    1    2 ar
   2    1   10 ar
   3    2    3 ar
   4    2   25 1
   5    3    4 ar
   6    3   26 1
   7    4    5 ar
   8    4   27 1
   9    5    6 ar
  10    5   10 ar
  11    6    7 ar
  12    6   24 1
  13    7    8 ar
  14    7   28 1
  15    8    9 ar
  16    8   11 1
  17    9   10 ar
  18    9   17 1
  19   11   12 2
  20   11   13 am
  21   13   14 1
  22   13   15 1
  23   14   29 1
  24   14   30 1
  25   14   31 1
  26   15   16 1
  27   16   32 1
  28   16   33 1
  29   16   34 1
  30   17   18 ar
  31   17   22 ar
  32   18   19 ar
  33   18   23 1
  34   19   20 ar
  35   19   35 1
  36   20   21 ar
  37   20   36 1
  38   21   22 ar
  39   21   37 1
  40   22   38 1

#	End of record

