#	Name: ASD03540312
#	Creating user name:	WinNT
#	Creation time:	15. 06. 2019 20:43

#	Modifying user name:	WinNT
#	Modification time:	15. 06. 2019 20:43

#	Program:	/corina/corina34_cracker 3.40 0067  02.08.2006

@<TRIPOS>MOLECULE
ASD03540312
  58   61    0    0    0
SMALL
NO_CHARGES


@<TRIPOS>ATOM
   1 C1            -0.0167     1.3794     0.0096 C.2     
   2 N2             0.0021    -0.0041     0.0020 N.am    
   3 C3             1.1565    -0.6857    -0.0122 C.2     
   4 N4             2.3495    -0.0696    -0.0203 N.am    
   5 C5             2.4351     1.2736    -0.0139 C.2     
   6 C6             1.1885     2.0715     0.0018 C.2     
   7 C7             1.0216     3.4582     0.0098 C.2     
   8 C8            -0.2600     3.8609     0.0230 C.2     
   9 S9            -1.3307     2.4709     0.0211 S.3     
  10 O10            3.5206     1.8236    -0.0205 O.2     
  11 C11            3.5757    -0.8710    -0.0359 C.3     
  12 C12           -1.2652    -0.7390     0.0102 C.3     
  13 O13            1.1220    -1.9010    -0.0176 O.2     
  14 C14           -0.6998     5.2580     0.0342 C.2     
  15 O15            0.1229     6.1551     0.0319 O.2     
  16 N16           -2.0155     5.5503     0.0471 N.am    
  17 C17           -2.4553     6.9477     0.0583 C.3     
  18 C18           -3.9614     7.0001     0.0715 C.ar    
  19 C19           -4.6413     7.0178     1.2751 C.ar    
  20 C20           -6.0232     7.0654     1.2906 C.ar    
  21 C21           -6.7277     7.0955     0.1029 C.ar    
  22 C22           -6.0477     7.0784    -1.1064 C.ar    
  23 C23           -4.6612     7.0362    -1.1192 C.ar    
  24 O24           -6.7386     7.1075    -2.2763 O.3     
  25 C25           -8.1640     7.1553    -2.1869 C.3     
  26 C26            4.4528     0.4749    -2.3510 C.3     
  27 C27            4.8883     0.4031    -3.7919 C.ar    
  28 C28            3.9516     0.5081    -4.8031 C.ar    
  29 C29            4.3511     0.4422    -6.1248 C.ar    
  30 C30            5.6873     0.2718    -6.4354 C.ar    
  31 C31            6.6241     0.1677    -5.4242 C.ar    
  32 C32            6.2251     0.2379    -4.1025 C.ar    
  33 S33            4.0658    -1.1932    -1.7524 S.o2    
  34 O34            5.2618    -1.9604    -1.7454 O.2     
  35 O35            2.9347    -1.6780    -2.4628 O.2     
  36 H36            1.8524     4.1482     0.0058 H       
  37 H37            4.3715    -0.3274     0.4733 H       
  38 H38            3.3978    -1.8174     0.4749 H       
  39 H39           -1.5893    -0.9158    -1.0154 H       
  40 H40           -1.1282    -1.6939     0.5176 H       
  41 H41           -2.0210    -0.1542     0.5344 H       
  42 H42           -2.6711     4.8354     0.0489 H       
  43 H43           -2.0667     7.4438     0.9477 H       
  44 H44           -2.0820     7.4533    -0.8322 H       
  45 H45           -4.0922     6.9939     2.2048 H       
  46 H46           -6.5521     7.0788     2.2321 H       
  47 H47           -7.8071     7.1320     0.1155 H       
  48 H48           -4.1296     7.0228    -2.0592 H       
  49 H49           -8.5245     6.2745    -1.6557 H       
  50 H50           -8.4642     8.0534    -1.6471 H       
  51 H51           -8.5905     7.1747    -3.1899 H       
  52 H52            5.2564     0.8995    -1.7493 H       
  53 H53            3.5667     1.1046    -2.2702 H       
  54 H54            2.9077     0.6413    -4.5605 H       
  55 H55            3.6192     0.5235    -6.9148 H       
  56 H56            5.9993     0.2196    -7.4680 H       
  57 H57            7.6680     0.0342    -5.6668 H       
  58 H58            6.9570     0.1566    -3.3125 H       
@<TRIPOS>BOND
   1    1    2 1
   2    1    6 2
   3    1    9 1
   4    2    3 am
   5    2   12 1
   6    3    4 am
   7    3   13 2
   8    4    5 am
   9    4   11 1
  10    5    6 1
  11    5   10 2
  12    6    7 1
  13    7    8 2
  14    7   36 1
  15    8    9 1
  16    8   14 1
  17   11   33 1
  18   11   37 1
  19   11   38 1
  20   12   39 1
  21   12   40 1
  22   12   41 1
  23   14   15 2
  24   14   16 am
  25   16   17 1
  26   16   42 1
  27   17   18 1
  28   17   43 1
  29   17   44 1
  30   18   19 ar
  31   18   23 ar
  32   19   20 ar
  33   19   45 1
  34   20   21 ar
  35   20   46 1
  36   21   22 ar
  37   21   47 1
  38   22   23 ar
  39   22   24 1
  40   23   48 1
  41   24   25 1
  42   25   49 1
  43   25   50 1
  44   25   51 1
  45   26   27 1
  46   26   33 1
  47   26   52 1
  48   26   53 1
  49   27   28 ar
  50   27   32 ar
  51   28   29 ar
  52   28   54 1
  53   29   30 ar
  54   29   55 1
  55   30   31 ar
  56   30   56 1
  57   31   32 ar
  58   31   57 1
  59   32   58 1
  60   33   34 2
  61   33   35 2

#	End of record

