#	Name: ASD07931670
#	Creating user name:	WinNT
#	Creation time:	15. 06. 2019 21:13

#	Modifying user name:	WinNT
#	Modification time:	15. 06. 2019 21:13

#	Program:	/corina/corina34_cracker 3.40 0067  02.08.2006

@<TRIPOS>MOLECULE
ASD07931670
  44   48    0    0    0
SMALL
NO_CHARGES


@<TRIPOS>ATOM
   1 N1            -0.0161     1.3385     0.0094 N.pl3   
   2 C2             0.0021    -0.0041     0.0020 C.2     
   3 C3             1.1793    -0.7101    -0.0126 C.2     
   4 C4             2.4649     0.0243    -0.0210 C.2     
   5 C5             2.3994     1.4986    -0.0138 C.ar    
   6 C6             3.5526     2.2767    -0.0207 C.ar    
   7 C7             3.4489     3.6523    -0.0136 C.ar    
   8 C8             2.2021     4.2572     0.0009 C.ar    
   9 C9             1.0517     3.4966     0.0079 C.ar    
  10 C10            1.1344     2.1082     0.0025 C.ar    
  11 N11            2.8980    -2.1584    -0.0354 N.am    
  12 N12            3.4180    -0.8617    -0.0340 N.2     
  13 C13            1.5480    -2.1223    -0.0227 C.2     
  14 O14            0.7891    -3.0781    -0.0199 O.2     
  15 C15           -1.3130     2.0200     0.0192 C.3     
  16 C16           -2.5553     2.6607     4.0596 C.ar    
  17 C17           -1.7915     3.6228     3.4020 C.ar    
  18 C18           -1.3934     3.4109     2.0976 C.ar    
  19 C19           -1.7510     2.2459     1.4433 C.ar    
  20 C20           -2.5096     1.2877     2.0911 C.ar    
  21 C21           -2.9131     1.4892     3.3955 C.ar    
  22 C22           -2.9811     2.8803     5.4641 C.ar    
  23 C23           -3.7450     1.9182     6.1217 C.ar    
  24 C24           -4.1383     2.1276     7.4280 C.ar    
  25 C25           -3.7758     3.2901     8.0842 C.ar    
  26 C26           -3.0180     4.2487     7.4360 C.ar    
  27 C27           -2.6136     4.0466     6.1319 C.ar    
  28 H28           -0.9340    -0.5427     0.0081 H       
  29 H29            4.5245     1.8060    -0.0313 H       
  30 H30            4.3419     4.2596    -0.0189 H       
  31 H31            2.1306     5.3348     0.0071 H       
  32 H32            0.0857     3.9794     0.0196 H       
  33 H33            3.4307    -2.9691    -0.0445 H       
  34 H34           -1.2230     2.9796    -0.4899 H       
  35 H35           -2.0510     1.4039    -0.4946 H       
  36 H36           -1.5117     4.5328     3.9120 H       
  37 H37           -0.8013     4.1559     1.5870 H       
  38 H38           -2.7863     0.3800     1.5754 H       
  39 H39           -3.5048     0.7401     3.9006 H       
  40 H40           -4.0291     1.0105     5.6100 H       
  41 H41           -4.7303     1.3826     7.9386 H       
  42 H42           -4.0860     3.4500     9.1062 H       
  43 H43           -2.7381     5.1547     7.9529 H       
  44 H44           -2.0176     4.7934     5.6285 H       
@<TRIPOS>BOND
   1    1    2 1
   2    1   10 1
   3    1   15 1
   4    2    3 2
   5    2   28 1
   6    3    4 1
   7    3   13 1
   8    4    5 1
   9    4   12 2
  10    5    6 ar
  11    5   10 ar
  12    6    7 ar
  13    6   29 1
  14    7    8 ar
  15    7   30 1
  16    8    9 ar
  17    8   31 1
  18    9   10 ar
  19    9   32 1
  20   11   12 1
  21   11   13 am
  22   11   33 1
  23   13   14 2
  24   15   19 1
  25   15   34 1
  26   15   35 1
  27   16   17 ar
  28   16   21 ar
  29   16   22 1
  30   17   18 ar
  31   17   36 1
  32   18   19 ar
  33   18   37 1
  34   19   20 ar
  35   20   21 ar
  36   20   38 1
  37   21   39 1
  38   22   23 ar
  39   22   27 ar
  40   23   24 ar
  41   23   40 1
  42   24   25 ar
  43   24   41 1
  44   25   26 ar
  45   25   42 1
  46   26   27 ar
  47   26   43 1
  48   27   44 1

#	End of record

