#	Name: ASD03640014
#	Creating user name:	WinNT
#	Creation time:	15. 06. 2019 20:43

#	Modifying user name:	WinNT
#	Modification time:	15. 06. 2019 20:43

#	Program:	/corina/corina34_cracker 3.40 0067  02.08.2006

@<TRIPOS>MOLECULE
ASD03640014
  16   17    0    0    0
SMALL
NO_CHARGES


@<TRIPOS>ATOM
   1 N1            -0.0164     1.3593     0.0095 N.am    
   2 C2             0.0021    -0.0041     0.0020 C.2     
   3 N3            -1.1894    -0.6865     0.0092 N.pl3   
   4 N4             1.1247    -0.6834    -0.0123 N.2     
   5 C5             2.3161    -0.0553    -0.0203 C.2     
   6 C6             2.3518     1.3429    -0.0131 C.2     
   7 C7             1.1416     2.0566     0.0022 C.2     
   8 O8             1.1361     3.2764     0.0084 O.2     
   9 N9             3.6877     1.6939    -0.0235 N.pl3   
  10 C10            4.3987     0.5476    -0.0362 C.2     
  11 N11            3.5913    -0.4787    -0.0343 N.2     
  12 H12           -0.8641     1.8309     0.0161 H       
  13 H13           -2.0277    -0.1986     0.0195 H       
  14 H14           -1.1929    -1.6565     0.0041 H       
  15 H15            4.0468     2.5950    -0.0223 H       
  16 H16            5.4770     0.4875    -0.0465 H       
@<TRIPOS>BOND
   1    1    2 1
   2    1    7 am
   3    1   12 1
   4    2    3 1
   5    2    4 2
   6    3   13 1
   7    3   14 1
   8    4    5 1
   9    5    6 2
  10    5   11 1
  11    6    7 1
  12    6    9 1
  13    7    8 2
  14    9   10 1
  15    9   15 1
  16   10   11 2
  17   10   16 1

#	End of record

