#	Name: ASD01816862
#	Creating user name:	WinNT
#	Creation time:	15. 06. 2019 19:36

#	Modifying user name:	WinNT
#	Modification time:	15. 06. 2019 19:36

#	Program:	/corina/corina34_cracker 3.40 0067  02.08.2006

@<TRIPOS>MOLECULE
ASD01816862
  47   50    0    0    0
SMALL
NO_CHARGES


@<TRIPOS>ATOM
   1 C1            -0.0285     1.3644     0.2583 C.ar    
   2 C2            -0.0004    -0.0289     0.2552 C.ar    
   3 C3             1.1799    -0.7047     0.1596 C.ar    
   4 C4             2.3807     0.0078     0.0631 C.ar    
   5 C5             2.3581     1.4269     0.0656 C.ar    
   6 C6             1.1187     2.0896     0.1661 C.ar    
   7 C7             3.6286    -0.6612    -0.0375 C.ar    
   8 C8             4.7764     0.1166    -0.1293 C.ar    
   9 C9             4.6646     1.5142    -0.1196 C.ar    
  10 N10            3.4949     2.1142    -0.0258 N.ar    
  11 C11            5.8934     2.3380    -0.2180 C.2     
  12 N12            5.8055     3.6828    -0.2102 N.am    
  13 O13            6.9796     1.8006    -0.3055 O.2     
  14 C14            7.0197     4.4968    -0.3074 C.3     
  15 C15            6.7687     5.8690     0.3255 C.3     
  16 C16            3.7046    -2.1363    -0.0439 C.2     
  17 C17            3.5268    -2.8921     1.2166 C.ar    
  18 C18            3.4823    -4.2903     1.2163 C.ar    
  19 C19            3.4045    -2.2279     2.4423 C.ar    
  20 C20            3.2406    -2.9720     3.5940 C.ar    
  21 N21            3.1987    -4.2889     3.5496 N.ar    
  22 C22            3.3152    -4.9554     2.4170 C.ar    
  23 C23            8.0158     6.7393     0.1494 C.3     
  24 O24            8.3252     6.8501    -1.2413 O.3     
  25 C25            8.6156     5.6029    -1.8756 C.3     
  26 C26            7.3926     4.6869    -1.7808 C.3     
  27 O27            6.4908     5.7089     1.7181 O.3     
  28 Cl28           3.2502    -6.6901     2.4333 Cl      
  29 O29            3.9131    -2.7294    -1.0837 O.2     
  30 H30           -0.9766     1.8765     0.3305 H       
  31 H31           -0.9257    -0.5807     0.3300 H       
  32 H32            1.1882    -1.7847     0.1588 H       
  33 H33            1.0796     3.1689     0.1702 H       
  34 H34            5.7465    -0.3515    -0.2071 H       
  35 H35            4.9383     4.1118    -0.1403 H       
  36 H36            7.8358     3.9980     0.2153 H       
  37 H37            5.9195     6.3460    -0.1639 H       
  38 H38            3.5766    -4.8417     0.2925 H       
  39 H39            3.4381    -1.1493     2.4868 H       
  40 H40            3.1456    -2.4681     4.5445 H       
  41 H41            7.8277     7.7313     0.5601 H       
  42 H42            8.8551     6.2819     0.6733 H       
  43 H43            8.8596     5.7762    -2.9237 H       
  44 H44            9.4628     5.1307    -1.3782 H       
  45 H45            7.6268     3.7195    -2.2250 H       
  46 H46            6.5561     5.1400    -2.3128 H       
  47 H47            6.3216     6.5396     2.1834 H       
@<TRIPOS>BOND
   1    1    2 ar
   2    1    6 ar
   3    1   30 1
   4    2    3 ar
   5    2   31 1
   6    3    4 ar
   7    3   32 1
   8    4    5 ar
   9    4    7 ar
  10    5    6 ar
  11    5   10 ar
  12    6   33 1
  13    7    8 ar
  14    7   16 1
  15    8    9 ar
  16    8   34 1
  17    9   10 ar
  18    9   11 1
  19   11   12 am
  20   11   13 2
  21   12   14 1
  22   12   35 1
  23   14   15 1
  24   14   26 1
  25   14   36 1
  26   15   23 1
  27   15   27 1
  28   15   37 1
  29   16   17 1
  30   16   29 2
  31   17   18 ar
  32   17   19 ar
  33   18   22 ar
  34   18   38 1
  35   19   20 ar
  36   19   39 1
  37   20   21 ar
  38   20   40 1
  39   21   22 ar
  40   22   28 1
  41   23   24 1
  42   23   41 1
  43   23   42 1
  44   24   25 1
  45   25   26 1
  46   25   43 1
  47   25   44 1
  48   26   45 1
  49   26   46 1
  50   27   47 1

#	End of record

