#	Name: ASD02038411
#	Creating user name:	WinNT
#	Creation time:	15. 06. 2019 20:16

#	Modifying user name:	WinNT
#	Modification time:	15. 06. 2019 20:16

#	Program:	/corina/corina34_cracker 3.40 0067  02.08.2006

@<TRIPOS>MOLECULE
ASD02038411
  55   57    0    0    0
SMALL
NO_CHARGES


@<TRIPOS>ATOM
   1 C1            -0.4527     1.2220     1.9551 C.ar    
   2 C2             0.5919     1.4528     2.8335 C.ar    
   3 C3            -0.3605     0.2043     1.0178 C.ar    
   4 C4             0.7761    -0.5820     0.9600 C.ar    
   5 C5             1.8240    -0.3507     1.8410 C.ar    
   6 C6             1.7286     0.6699     2.7783 C.ar    
   7 N7             2.9737    -1.1443     1.7850 N.3     
   8 C8             3.9505    -0.7287     2.8013 C.3     
   9 F9            -1.5656     1.9855     2.0147 F       
  10 F10           -1.3810    -0.0196     0.1613 F       
  11 C11            5.1570    -1.6695     2.7601 C.3     
  12 N12            5.7531    -1.6389     1.4172 N.3     
  13 C13            4.7763    -2.0545     0.4009 C.3     
  14 C14            3.5698    -1.1137     0.4421 C.3     
  15 C15            6.9611    -2.4728     1.3584 C.3     
  16 C16            8.0456    -1.8629     2.2487 C.3     
  17 C17            9.2666    -2.7848     2.2692 C.3     
  18 O18            8.4224    -0.5847     1.7328 O.3     
  19 O19           10.2328    -2.2751     3.1905 O.3     
  20 C20           11.3863    -2.9821     3.3295 C.ar    
  21 C21           12.3667    -2.5432     4.2071 C.ar    
  22 C22           13.5381    -3.2608     4.3493 C.ar    
  23 C23           13.7343    -4.4219     3.6134 C.ar    
  24 C24           12.7523    -4.8605     2.7350 C.ar    
  25 C25           11.5792    -4.1446     2.5980 C.ar    
  26 N26           14.9212    -5.1493     3.7565 N.am    
  27 S27           16.0804    -5.0830     2.5758 S.o2    
  28 O28           17.1158    -5.9311     3.0532 O.2     
  29 O29           15.3786    -5.3866     1.3781 O.2     
  30 C30           16.6254    -3.3528     2.5731 C.3     
  31 H31            0.5182     2.2462     3.5625 H       
  32 H32            0.8482    -1.3753     0.2307 H       
  33 H33            2.5430     0.8513     3.4640 H       
  34 H34            4.2771     0.2908     2.5963 H       
  35 H35            3.4893    -0.7718     3.7880 H       
  36 H36            5.8957    -1.3459     3.4933 H       
  37 H37            4.8347    -2.6847     2.9918 H       
  38 H38            5.2375    -2.0114    -0.5858 H       
  39 H39            4.4497    -3.0740     0.6059 H       
  40 H40            2.8311    -1.4374    -0.2912 H       
  41 H41            3.8921    -0.0986     0.2103 H       
  42 H42            6.7262    -3.4779     1.7086 H       
  43 H43            7.3197    -2.5208     0.3301 H       
  44 H44            7.6610    -1.7468     3.2620 H       
  45 H45            8.9619    -3.7846     2.5784 H       
  46 H46            9.7042    -2.8304     1.2720 H       
  47 H47            8.7744    -0.6122     0.8325 H       
  48 H48           12.2141    -1.6400     4.7791 H       
  49 H49           14.3015    -2.9187     5.0324 H       
  50 H50           12.9041    -5.7634     2.1622 H       
  51 H51           10.8152    -4.4857     1.9152 H       
  52 H52           15.0648    -5.6924     4.5472 H       
  53 H53           17.1064    -3.1219     3.5236 H       
  54 H54           17.3340    -3.1963     1.7598 H       
  55 H55           15.7631    -2.7005     2.4344 H       
@<TRIPOS>BOND
   1    1    2 ar
   2    1    3 ar
   3    1    9 1
   4    2    6 ar
   5    2   31 1
   6    3    4 ar
   7    3   10 1
   8    4    5 ar
   9    4   32 1
  10    5    6 ar
  11    5    7 1
  12    6   33 1
  13    7    8 1
  14    7   14 1
  15    8   11 1
  16    8   34 1
  17    8   35 1
  18   11   12 1
  19   11   36 1
  20   11   37 1
  21   12   13 1
  22   12   15 1
  23   13   14 1
  24   13   38 1
  25   13   39 1
  26   14   40 1
  27   14   41 1
  28   15   16 1
  29   15   42 1
  30   15   43 1
  31   16   18 1
  32   16   17 1
  33   16   44 1
  34   17   19 1
  35   17   45 1
  36   17   46 1
  37   18   47 1
  38   19   20 1
  39   20   21 ar
  40   20   25 ar
  41   21   22 ar
  42   21   48 1
  43   22   23 ar
  44   22   49 1
  45   23   24 ar
  46   23   26 1
  47   24   25 ar
  48   24   50 1
  49   25   51 1
  50   26   27 am
  51   26   52 1
  52   27   28 2
  53   27   29 2
  54   27   30 1
  55   30   53 1
  56   30   54 1
  57   30   55 1

#	End of record

