#	Name: ASD05430456
#	Creating user name:	WinNT
#	Creation time:	15. 06. 2019 21:00

#	Modifying user name:	WinNT
#	Modification time:	15. 06. 2019 21:00

#	Program:	/corina/corina34_cracker 3.40 0067  02.08.2006

@<TRIPOS>MOLECULE
ASD05430456
  62   66    0    0    0
SMALL
NO_CHARGES


@<TRIPOS>ATOM
   1 C1             0.1778     0.8857     0.2503 C.ar    
   2 C2             0.1434    -0.5011     0.3920 C.ar    
   3 C3            -1.0736    -1.1698     0.4199 C.ar    
   4 C4            -2.2529    -0.4662     0.3077 C.ar    
   5 C5            -2.2263     0.9253     0.1658 C.ar    
   6 C6            -1.0011     1.5989     0.1430 C.ar    
   7 C7            -4.6568     1.0199    -0.0747 C.2     
   8 C8            -3.4845     1.6786     0.0453 C.2     
   9 O9             1.3710     1.5368     0.2234 O.3     
  10 C10            1.6396    -2.1581     1.4619 C.2     
  11 N11            1.3402    -1.2222     0.5061 N.pl3   
  12 C12            2.8851    -2.5984     1.2000 C.2     
  13 N13            3.3382    -1.9524     0.1155 N.2     
  14 C14            2.4220    -1.1253    -0.3094 C.2     
  15 C15            3.6396    -3.6368     1.9897 C.3     
  16 C16           -6.9011    -0.2837     0.8095 C.2     
  17 N17           -7.0422     1.0077     0.4731 N.am    
  18 C18           -5.5898    -1.0157     0.6810 C.3     
  19 C19           -5.9657     1.7167    -0.0485 C.2     
  20 O20           -4.7217    -0.3421    -0.2356 O.3     
  21 C21            1.3315     2.9576     0.0758 C.3     
  22 O22           -7.8654    -0.8844     1.2334 O.2     
  23 C23           -8.3244     1.6957     0.6677 C.3     
  24 C24           -8.5220     2.6659    -0.5058 C.3     
  25 C25           -7.3460     3.6485    -0.5248 C.3     
  26 N26           -6.0799     2.9215    -0.4995 N.2     
  27 C27           -9.4451     0.6884     0.6908 C.ar    
  28 C28          -10.1736     0.4922     1.8492 C.ar    
  29 C29           -9.7475    -0.0346    -0.4481 C.ar    
  30 C30          -10.7756    -0.9579    -0.4283 C.ar    
  31 C31          -11.5025    -1.1590     0.7328 C.ar    
  32 C32          -11.2018    -0.4308     1.8715 C.ar    
  33 F33          -12.5078    -2.0614     0.7533 F       
  34 C34           -4.9127    -1.0797     2.0516 C.3     
  35 C35           -8.2995     2.4742     1.9845 C.3     
  36 H36           -1.0956    -2.2440     0.5295 H       
  37 H37           -3.1978    -0.9889     0.3290 H       
  38 H38           -0.9759     2.6731     0.0339 H       
  39 H39           -3.4702     2.7584     0.0530 H       
  40 H40            1.0010    -2.4777     2.2721 H       
  41 H41            2.5096    -0.4731    -1.1657 H       
  42 H42            3.4342    -4.6254     1.5792 H       
  43 H43            4.7087    -3.4332     1.9292 H       
  44 H44            3.3217    -3.6027     3.0317 H       
  45 H45           -5.7779    -2.0290     0.3263 H       
  46 H46            2.3482     3.3507     0.0695 H       
  47 H47            0.8380     3.2119    -0.8622 H       
  48 H48            0.7784     3.3941     0.9074 H       
  49 H49           -8.5492     2.1086    -1.4422 H       
  50 H50           -9.4560     3.2128    -0.3765 H       
  51 H51           -7.3986     4.2576    -1.4271 H       
  52 H52           -7.4024     4.2964     0.3500 H       
  53 H53           -9.9389     1.0603     2.7372 H       
  54 H54           -9.1803     0.1224    -1.3536 H       
  55 H55          -11.0121    -1.5221    -1.3183 H       
  56 H56          -11.7680    -0.5871     2.7778 H       
  57 H57           -5.5594    -1.6082     2.7520 H       
  58 H58           -3.9635    -1.6084     1.9635 H       
  59 H59           -4.7327    -0.0682     2.4155 H       
  60 H60           -7.4960     3.2102     1.9564 H       
  61 H61           -9.2534     2.9828     2.1240 H       
  62 H62           -8.1313     1.7842     2.8114 H       
@<TRIPOS>BOND
   1    1    2 ar
   2    1    9 1
   3    1    6 ar
   4    2    3 ar
   5    2   11 1
   6    3    4 ar
   7    3   36 1
   8    4    5 ar
   9    4   37 1
  10    5    6 ar
  11    5    8 1
  12    6   38 1
  13    7    8 2
  14    7   19 1
  15    7   20 1
  16    8   39 1
  17    9   21 1
  18   10   11 1
  19   10   12 2
  20   10   40 1
  21   11   14 1
  22   12   13 1
  23   12   15 1
  24   13   14 2
  25   14   41 1
  26   15   42 1
  27   15   43 1
  28   15   44 1
  29   16   17 am
  30   16   18 1
  31   16   22 2
  32   17   23 1
  33   17   19 1
  34   18   34 1
  35   18   20 1
  36   18   45 1
  37   19   26 2
  38   21   46 1
  39   21   47 1
  40   21   48 1
  41   23   24 1
  42   23   27 1
  43   23   35 1
  44   24   25 1
  45   24   49 1
  46   24   50 1
  47   25   26 1
  48   25   51 1
  49   25   52 1
  50   27   28 ar
  51   27   29 ar
  52   28   32 ar
  53   28   53 1
  54   29   30 ar
  55   29   54 1
  56   30   31 ar
  57   30   55 1
  58   31   32 ar
  59   31   33 1
  60   32   56 1
  61   34   57 1
  62   34   58 1
  63   34   59 1
  64   35   60 1
  65   35   61 1
  66   35   62 1

#	End of record

