#	Name: ASD01230211
#	Creating user name:	WinNT
#	Creation time:	15. 06. 2019 19:12

#	Modifying user name:	WinNT
#	Modification time:	15. 06. 2019 19:12

#	Program:	/corina/corina34_cracker 3.40 0067  02.08.2006

@<TRIPOS>MOLECULE
ASD01230211
  33   35    0    0    0
SMALL
NO_CHARGES


@<TRIPOS>ATOM
   1 C1             0.1249     1.1828    -0.6285 C.ar    
   2 C2             0.0343    -0.1983    -0.8531 C.ar    
   3 C3             1.1638    -0.8833    -1.3003 C.ar    
   4 C4             2.3330    -0.1650    -1.5042 C.ar    
   5 C5             2.3453     1.1956    -1.2610 C.ar    
   6 N6             1.2634     1.8227    -0.8380 N.ar    
   7 N7            -0.9899     1.8847    -0.1887 N.pl3   
   8 C8            -1.2406    -0.9183    -0.6187 C.ar    
   9 C9            -1.7562    -1.7634    -1.6003 C.ar    
  10 C10           -2.9419    -2.4320    -1.3792 C.ar    
  11 C11           -3.6223    -2.2638    -0.1806 C.ar    
  12 C12           -3.1116    -1.4225     0.7987 C.ar    
  13 C13           -1.9232    -0.7559     0.5860 C.ar    
  14 O14           -4.7906    -2.9236     0.0342 O.3     
  15 C15           -4.7296    -4.2450     0.3366 C.ar    
  16 C16           -5.9037    -4.9778     0.4570 C.ar    
  17 C17           -5.8283    -6.3246     0.7657 C.ar    
  18 C18           -4.5738    -6.8940     0.9442 C.ar    
  19 C19           -3.4481    -6.1044     0.8090 C.ar    
  20 N20           -3.5529    -4.8237     0.5085 N.ar    
  21 Cl21          -4.4222    -8.5791     1.3333 Cl      
  22 Cl22           3.7684    -0.9681    -2.0596 Cl      
  23 H23            1.1292    -1.9472    -1.4830 H       
  24 H24            3.2553     1.7552    -1.4197 H       
  25 H25           -1.8276     1.4194    -0.0379 H       
  26 H26           -0.9309     2.8402    -0.0323 H       
  27 H27           -1.2278    -1.8941    -2.5331 H       
  28 H28           -3.3418    -3.0869    -2.1392 H       
  29 H29           -3.6433    -1.2934     1.7299 H       
  30 H30           -1.5242    -0.1051     1.3500 H       
  31 H31           -6.8626    -4.5026     0.3119 H       
  32 H32           -6.7243    -6.9193     0.8660 H       
  33 H33           -2.4703    -6.5416     0.9465 H       
@<TRIPOS>BOND
   1    1    2 ar
   2    1    6 ar
   3    1    7 1
   4    2    3 ar
   5    2    8 1
   6    3    4 ar
   7    3   23 1
   8    4    5 ar
   9    4   22 1
  10    5    6 ar
  11    5   24 1
  12    7   25 1
  13    7   26 1
  14    8    9 ar
  15    8   13 ar
  16    9   10 ar
  17    9   27 1
  18   10   11 ar
  19   10   28 1
  20   11   12 ar
  21   11   14 1
  22   12   13 ar
  23   12   29 1
  24   13   30 1
  25   14   15 1
  26   15   16 ar
  27   15   20 ar
  28   16   17 ar
  29   16   31 1
  30   17   18 ar
  31   17   32 1
  32   18   19 ar
  33   18   21 1
  34   19   20 ar
  35   19   33 1

#	End of record

