#	Name: ASD05430582
#	Creating user name:	WinNT
#	Creation time:	15. 06. 2019 21:00

#	Modifying user name:	WinNT
#	Modification time:	15. 06. 2019 21:00

#	Program:	/corina/corina34_cracker 3.40 0067  02.08.2006

@<TRIPOS>MOLECULE
ASD05430582
  30   31    0    0    0
SMALL
NO_CHARGES


@<TRIPOS>ATOM
   1 N1            -0.0153     1.2776     0.0091 N.ar    
   2 N2             0.0021    -0.0041     0.0020 N.ar    
   3 C3             1.0876     1.9993     0.0024 C.ar    
   4 C4             2.3230     1.3593    -0.0128 C.ar    
   5 C5             2.3558    -0.0455    -0.0207 C.ar    
   6 C6             1.1115    -0.7074    -0.0123 C.ar    
   7 C7             1.0113     3.5043     0.0107 C.3     
   8 C8             1.0541    -2.2133    -0.0199 C.3     
   9 C9             0.3259    -2.7022     1.2338 C.3     
  10 C10            0.3021    -2.6888    -1.2646 C.3     
  11 C11            0.2536     3.9834    -1.2291 C.3     
  12 C12            0.2769     3.9708     1.2692 C.3     
  13 S13            3.9810     1.9408    -0.0255 S.3     
  14 C14            4.5685     0.3377    -0.0397 C.2     
  15 N15            3.6115    -0.5149    -0.0352 N.2     
  16 H16            2.0192     3.9193     0.0034 H       
  17 H17            2.0672    -2.6154    -0.0317 H       
  18 H18           -0.6871    -2.3000     1.2456 H       
  19 H19            0.2844    -3.7913     1.2283 H       
  20 H20            0.8617    -2.3634     2.1205 H       
  21 H21            0.8209    -2.3405    -2.1577 H       
  22 H22            0.2606    -3.7780    -1.2700 H       
  23 H23           -0.7110    -2.2866    -1.2527 H       
  24 H24           -0.7543     3.5685    -1.2218 H       
  25 H25            0.1984     5.0720    -1.2231 H       
  26 H26            0.7768     3.6511    -2.1257 H       
  27 H27            0.8167     3.6295     2.1525 H       
  28 H28            0.2217     5.0594     1.2753 H       
  29 H29           -0.7310     3.5558     1.2766 H       
  30 H30            5.6159     0.0748    -0.0519 H       
@<TRIPOS>BOND
   1    1    2 ar
   2    1    3 ar
   3    2    6 ar
   4    3    4 ar
   5    3    7 1
   6    4    5 ar
   7    4   13 1
   8    5    6 ar
   9    5   15 1
  10    6    8 1
  11    7   11 1
  12    7   12 1
  13    7   16 1
  14    8    9 1
  15    8   10 1
  16    8   17 1
  17    9   18 1
  18    9   19 1
  19    9   20 1
  20   10   21 1
  21   10   22 1
  22   10   23 1
  23   11   24 1
  24   11   25 1
  25   11   26 1
  26   12   27 1
  27   12   28 1
  28   12   29 1
  29   13   14 1
  30   14   15 2
  31   14   30 1

#	End of record

