#	Name: ASD05430296
#	Creating user name:	WinNT
#	Creation time:	15. 06. 2019 21:00

#	Modifying user name:	WinNT
#	Modification time:	15. 06. 2019 21:00

#	Program:	/corina/corina34_cracker 3.40 0067  02.08.2006

@<TRIPOS>MOLECULE
ASD05430296
  75   81    0    0    0
SMALL
NO_CHARGES


@<TRIPOS>ATOM
   1 C1            -0.0253     1.5564    -0.2340 C.ar    
   2 C2            -0.0513     0.3135    -0.8687 C.ar    
   3 C3             1.1242    -0.2588    -1.3373 C.ar    
   4 C4             2.3235     0.3982    -1.1771 C.ar    
   5 C5             2.3559     1.6427    -0.5424 C.ar    
   6 C6             1.1658     2.2185    -0.0705 C.ar    
   7 C7             4.7663     0.1447     0.0565 C.3     
   8 C8             4.7681     1.6492    -0.1672 C.2     
   9 C9             3.6360     2.3485    -0.3686 C.2     
  10 C10            5.7625    -0.1763     1.1714 C.3     
  11 C11            7.1978     0.2457     0.8553 C.3     
  12 N12            7.2011     1.6399     0.4184 N.pl3   
  13 C13            6.1018     2.2904    -0.1475 C.2     
  14 C14            8.2766     2.6311     0.4827 C.3     
  15 O15            7.8452     3.6461    -0.4478 O.3     
  16 N16            6.4501     3.4389    -0.6231 N.2     
  17 C17            8.3939     3.1995     1.8734 C.ar    
  18 C18            9.6045     2.0170     0.0348 C.3     
  19 N19           -1.2680    -0.3595    -1.0335 N.pl3   
  20 C20           -1.7491    -0.9008    -2.1979 C.2     
  21 C21           -2.9444    -1.4490    -1.9085 C.2     
  22 N22           -3.1916    -1.2511    -0.6050 N.2     
  23 C23           -2.1926    -0.6049    -0.0686 C.2     
  24 C24           -3.8486    -2.1614    -2.8811 C.3     
  25 C25            5.2874     0.2691     2.5615 C.3     
  26 N26            5.8038    -1.0321     3.0428 N.3     
  27 C27            5.6514    -1.6167     1.6913 C.3     
  28 C28            8.0257     2.4361     2.9654 C.ar    
  29 C29            8.1332     2.9575     4.2411 C.ar    
  30 C30            8.6094     4.2422     4.4249 C.ar    
  31 C31            8.9785     5.0053     3.3329 C.ar    
  32 C32            8.8750     4.4823     2.0575 C.ar    
  33 Si33           8.7536     4.9472     6.1487 Si      
  34 C34           10.4392     4.5577     6.8400 C.3     
  35 C35            8.5200     6.7945     6.0856 C.3     
  36 C36            7.4454     4.1927     7.2396 C.3     
  37 C37            0.5105     3.3822     0.6244 C.3     
  38 C38           -0.8114     2.6504     0.4388 C.3     
  39 H39            1.0976    -1.2207    -1.8276 H       
  40 H40            3.2375    -0.0476    -1.5410 H       
  41 H41            3.7686    -0.1819     0.3500 H       
  42 H42            5.0648    -0.3634    -0.8605 H       
  43 H43            3.6666     3.4275    -0.4026 H       
  44 H44            7.8133     0.1424     1.7489 H       
  45 H45            7.5969    -0.3858     0.0616 H       
  46 H46            9.5128     1.6623    -0.9918 H       
  47 H47           10.3902     2.7704     0.0901 H       
  48 H48            9.8564     1.1808     0.6869 H       
  49 H49           -1.2628    -0.8893    -3.1622 H       
  50 H50           -2.1170    -0.3081     0.9671 H       
  51 H51           -3.6043    -3.2236    -2.8931 H       
  52 H52           -4.8865    -2.0307    -2.5749 H       
  53 H53           -3.7089    -1.7452    -3.8788 H       
  54 H54            5.8281     1.1295     2.9558 H       
  55 H55            4.2053     0.3704     2.6445 H       
  56 H56            6.7772    -0.9624     3.2990 H       
  57 H57            4.6769    -2.0729     1.5171 H       
  58 H58            6.4818    -2.2568     1.3932 H       
  59 H59            7.6536     1.4324     2.8219 H       
  60 H60            7.8449     2.3613     5.0943 H       
  61 H61            9.3502     6.0091     3.4764 H       
  62 H62            9.1634     5.0784     1.2043 H       
  63 H63           11.2046     4.9991     6.2017 H       
  64 H64           10.5233     4.9691     7.8458 H       
  65 H65           10.5758     3.4769     6.8769 H       
  66 H66            7.5338     7.0224     5.6811 H       
  67 H67            8.6041     7.2059     7.0915 H       
  68 H68            9.2854     7.2359     5.4473 H       
  69 H69            7.5821     3.1120     7.2765 H       
  70 H70            7.5296     4.6042     8.2455 H       
  71 H71            6.4592     4.4207     6.8352 H       
  72 H72            0.8090     3.4923     1.6670 H       
  73 H73            0.5719     4.3156     0.0648 H       
  74 H74           -1.5055     3.1649    -0.2259 H       
  75 H75           -1.2733     2.3393     1.3758 H       
@<TRIPOS>BOND
   1    1    2 ar
   2    1    6 ar
   3    1   38 1
   4    2    3 ar
   5    2   19 1
   6    3    4 ar
   7    3   39 1
   8    4    5 ar
   9    4   40 1
  10    5    6 ar
  11    5    9 1
  12    6   37 1
  13    7    8 1
  14    7   10 1
  15    7   41 1
  16    7   42 1
  17    8    9 2
  18    8   13 1
  19    9   43 1
  20   10   11 1
  21   10   25 1
  22   10   27 1
  23   11   12 1
  24   11   44 1
  25   11   45 1
  26   12   13 1
  27   12   14 1
  28   13   16 2
  29   14   15 1
  30   14   17 1
  31   14   18 1
  32   15   16 1
  33   17   28 ar
  34   17   32 ar
  35   18   46 1
  36   18   47 1
  37   18   48 1
  38   19   20 1
  39   19   23 1
  40   20   21 2
  41   20   49 1
  42   21   22 1
  43   21   24 1
  44   22   23 2
  45   23   50 1
  46   24   51 1
  47   24   52 1
  48   24   53 1
  49   25   26 1
  50   25   54 1
  51   25   55 1
  52   26   27 1
  53   26   56 1
  54   27   57 1
  55   27   58 1
  56   28   29 ar
  57   28   59 1
  58   29   30 ar
  59   29   60 1
  60   30   31 ar
  61   30   33 1
  62   31   32 ar
  63   31   61 1
  64   32   62 1
  65   33   34 1
  66   33   35 1
  67   33   36 1
  68   34   63 1
  69   34   64 1
  70   34   65 1
  71   35   66 1
  72   35   67 1
  73   35   68 1
  74   36   69 1
  75   36   70 1
  76   36   71 1
  77   37   38 1
  78   37   72 1
  79   37   73 1
  80   38   74 1
  81   38   75 1

#	End of record

