#	Name: ASD01910908
#	Creating user name:	WinNT
#	Creation time:	15. 06. 2019 19:56

#	Modifying user name:	WinNT
#	Modification time:	15. 06. 2019 19:56

#	Program:	/corina/corina34_cracker 3.40 0067  02.08.2006

@<TRIPOS>MOLECULE
ASD01910908
  53   56    0    0    0
SMALL
NO_CHARGES


@<TRIPOS>ATOM
   1 N1            -0.1607     1.8204    -0.3863 N.3     
   2 C2            -0.0344     0.3580    -0.3289 C.3     
   3 C3            -1.3822    -0.2525     0.0701 C.3     
   4 N4            -2.4128     0.2470    -0.8527 N.am    
   5 C5            -2.5098     1.6988    -1.0677 C.3     
   6 C6            -1.1176     2.2324    -1.4219 C.3     
   7 C7            -3.2466    -0.6030    -1.4841 C.2     
   8 C8            -4.3607    -0.0757    -2.3009 C.ar    
   9 C9            -4.7281    -0.7216    -3.4835 C.ar    
  10 C10           -5.7684    -0.2310    -4.2483 C.ar    
  11 C11           -6.4524     0.8998    -3.8507 C.ar    
  12 C12           -6.0953     1.5572    -2.6692 C.ar    
  13 C13           -5.0498     1.0630    -1.8895 C.ar    
  14 C14           -6.8053     2.7307    -2.2577 C.1     
  15 O15           -3.0827    -1.8031    -1.3821 O.2     
  16 C16           -7.3874     3.6928    -1.9204 C.1     
  17 C17           -8.0974     4.8664    -1.5089 C.ar    
  18 C18           -7.7492     5.5310    -0.3305 C.ar    
  19 N19           -8.4026     6.6101     0.0472 N.ar    
  20 C20           -9.4005     7.1041    -0.6603 C.ar    
  21 C21           -9.8069     6.5043    -1.8391 C.ar    
  22 C22           -9.1499     5.3715    -2.2845 C.ar    
  23 C23            1.0861     2.4241    -0.5868 C.ar    
  24 C24            2.0660     2.3474     0.4005 C.ar    
  25 C25            3.2979     2.9467     0.1968 C.ar    
  26 C26            3.5531     3.6195    -0.9841 C.ar    
  27 C27            2.5812     3.6960    -1.9644 C.ar    
  28 C28            1.3514     3.0954    -1.7714 C.ar    
  29 O29            1.8134     1.6861     1.5619 O.3     
  30 C30            2.8648     1.6483     2.5289 C.3     
  31 H31            0.2607    -0.0203    -1.3076 H       
  32 H32            0.7205     0.0868     0.4091 H       
  33 H33           -1.3262    -1.3390     0.0031 H       
  34 H34           -1.6300     0.0420     1.0899 H       
  35 H35           -3.1993     1.9023    -1.8870 H       
  36 H36           -2.8660     2.1808    -0.1573 H       
  37 H37           -1.1483     3.3206    -1.4766 H       
  38 H38           -0.8074     1.8280    -2.3854 H       
  39 H39           -4.1971    -1.6068    -3.8010 H       
  40 H40           -6.0476    -0.7346    -5.1620 H       
  41 H41           -7.2649     1.2780    -4.4535 H       
  42 H42           -4.7694     1.5663    -0.9760 H       
  43 H43           -6.9377     5.1565     0.2759 H       
  44 H44           -9.9090     7.9914    -0.3134 H       
  45 H45          -10.6259     6.9190    -2.4081 H       
  46 H46           -9.4465     4.8833    -3.2011 H       
  47 H47            4.0594     2.8888     0.9605 H       
  48 H48            4.5141     4.0867    -1.1408 H       
  49 H49            2.7850     4.2226    -2.8851 H       
  50 H50            0.5940     3.1564    -2.5390 H       
  51 H51            2.5326     1.0917     3.4052 H       
  52 H52            3.7380     1.1591     2.0972 H       
  53 H53            3.1258     2.6653     2.8218 H       
@<TRIPOS>BOND
   1    1    2 1
   2    1   23 1
   3    1    6 1
   4    2    3 1
   5    2   31 1
   6    2   32 1
   7    3    4 1
   8    3   33 1
   9    3   34 1
  10    4    5 1
  11    4    7 am
  12    5    6 1
  13    5   35 1
  14    5   36 1
  15    6   37 1
  16    6   38 1
  17    7    8 1
  18    7   15 2
  19    8    9 ar
  20    8   13 ar
  21    9   10 ar
  22    9   39 1
  23   10   11 ar
  24   10   40 1
  25   11   12 ar
  26   11   41 1
  27   12   13 ar
  28   12   14 1
  29   13   42 1
  30   14   16 3
  31   16   17 1
  32   17   18 ar
  33   17   22 ar
  34   18   19 ar
  35   18   43 1
  36   19   20 ar
  37   20   21 ar
  38   20   44 1
  39   21   22 ar
  40   21   45 1
  41   22   46 1
  42   23   24 ar
  43   23   28 ar
  44   24   25 ar
  45   24   29 1
  46   25   26 ar
  47   25   47 1
  48   26   27 ar
  49   26   48 1
  50   27   28 ar
  51   27   49 1
  52   28   50 1
  53   29   30 1
  54   30   51 1
  55   30   52 1
  56   30   53 1

#	End of record

