#	Name: ASD01885387
#	Creating user name:	WinNT
#	Creation time:	15. 06. 2019 19:49

#	Modifying user name:	WinNT
#	Modification time:	15. 06. 2019 19:49

#	Program:	/corina/corina34_cracker 3.40 0067  02.08.2006

@<TRIPOS>MOLECULE
ASD01885387
  28   30    0    0    0
SMALL
NO_CHARGES


@<TRIPOS>ATOM
   1 C1            -0.0168     1.3903     0.0097 C.ar    
   2 C2             0.0021    -0.0041     0.0020 C.ar    
   3 N3            -1.1145    -0.7759     0.0185 N.2     
   4 C4            -2.1893    -0.5673    -0.6487 C.2     
   5 C5            -2.3479     0.6311    -1.5465 C.3     
   6 C6            -2.2770     1.8710    -0.6912 C.2     
   7 N7            -1.1813     2.1455     0.0184 N.am    
   8 C8             1.1910     2.0899     0.0019 C.ar    
   9 C9             2.3953     1.4181    -0.0174 C.ar    
  10 C10            2.4174     0.0322    -0.0302 C.ar    
  11 C11            1.2380    -0.6743    -0.0203 C.ar    
  12 C12           -3.3009    -1.5282    -0.5342 C.ar    
  13 C13           -3.2007    -2.6607     0.2893 C.ar    
  14 C14           -4.2866    -3.5164     0.3444 C.ar    
  15 N15           -5.3695    -3.2547    -0.3632 N.ar    
  16 N16           -5.4692    -2.2224    -1.1179 N.ar    
  17 C17           -4.4973    -1.3406    -1.2388 C.ar    
  18 O18           -3.2253     2.6258    -0.6479 O.2     
  19 Cl19           3.8851     2.3092    -0.0262 Cl      
  20 H20           -1.5459     0.6468    -2.2845 H       
  21 H21           -3.3128     0.5873    -2.0517 H       
  22 H22           -1.1997     2.9335     0.5838 H       
  23 H23            1.1824     3.1698     0.0108 H       
  24 H24            3.3612    -0.4927    -0.0476 H       
  25 H25            1.2610    -1.7540    -0.0302 H       
  26 H26           -2.3056    -2.8577     0.8606 H       
  27 H27           -4.2480    -4.3986     0.9662 H       
  28 H28           -4.6188    -0.4833    -1.8844 H       
@<TRIPOS>BOND
   1    1    2 ar
   2    1    8 ar
   3    1    7 1
   4    2    3 1
   5    2   11 ar
   6    3    4 2
   7    4    5 1
   8    4   12 1
   9    5    6 1
  10    5   20 1
  11    5   21 1
  12    6    7 am
  13    6   18 2
  14    7   22 1
  15    8    9 ar
  16    8   23 1
  17    9   10 ar
  18    9   19 1
  19   10   11 ar
  20   10   24 1
  21   11   25 1
  22   12   13 ar
  23   12   17 ar
  24   13   14 ar
  25   13   26 1
  26   14   15 ar
  27   14   27 1
  28   15   16 ar
  29   16   17 ar
  30   17   28 1

#	End of record

