#	Name: ASD01148687
#	Creating user name:	WinNT
#	Creation time:	15. 06. 2019 19:03

#	Modifying user name:	WinNT
#	Modification time:	15. 06. 2019 19:03

#	Program:	/corina/corina34_cracker 3.40 0067  02.08.2006

@<TRIPOS>MOLECULE
ASD01148687
  39   41    0    0    0
SMALL
NO_CHARGES


@<TRIPOS>ATOM
   1 C1            -0.0166     1.3762     0.0096 C.ar    
   2 C2             0.0021    -0.0041     0.0020 C.ar    
   3 C3             1.1765     2.0945     0.0021 C.ar    
   4 C4             2.3883     1.4411    -0.0134 C.ar    
   5 C5             2.4286     0.0507    -0.0213 C.ar    
   6 C6             1.2257    -0.6775    -0.0133 C.ar    
   7 N7             3.4583    -0.8665    -0.0368 N.pl3   
   8 C8             2.9493    -2.1363    -0.0388 C.2     
   9 C9             1.6076    -2.0917    -0.0251 C.2     
  10 C10            0.6717    -3.2728    -0.0223 C.3     
  11 C11            0.2415    -3.5859    -1.4568 C.3     
  12 N12           -0.6684    -4.7341    -1.4540 N.am    
  13 C13           -1.1788    -5.1923    -2.6143 C.2     
  14 O14           -0.8840    -4.6526    -3.6633 O.2     
  15 C15           -2.0950    -6.3485    -2.6115 C.2     
  16 O16           -1.2050     2.0373     0.0188 O.3     
  17 C17           -1.1529     3.4653     0.0263 C.3     
  18 C18           -2.6191    -6.8206    -3.7929 C.2     
  19 O19           -3.4503    -7.8681    -3.7988 O.3     
  20 C20           -3.7972    -8.4881    -2.6582 C.2     
  21 C21           -3.2894    -8.0455    -1.4213 C.2     
  22 C22           -2.4379    -6.9859    -1.3915 C.2     
  23 O23           -4.5570    -9.4401    -2.6942 O.2     
  24 H24           -0.9239    -0.5599     0.0082 H       
  25 H25            1.1509     3.1742     0.0081 H       
  26 H26            3.3075     2.0081    -0.0199 H       
  27 H27            4.4025    -0.6444    -0.0454 H       
  28 H28            3.5394    -3.0407    -0.0499 H       
  29 H29            1.1805    -4.1385     0.4017 H       
  30 H30           -0.2075    -3.0382     0.5777 H       
  31 H31           -0.2673    -2.7202    -1.8807 H       
  32 H32            1.1207    -3.8205    -2.0568 H       
  33 H33           -0.9035    -5.1647    -0.6172 H       
  34 H34           -0.6220     3.8048     0.9157 H       
  35 H35           -0.6304     3.8145    -0.8642 H       
  36 H36           -2.1667     3.8658     0.0333 H       
  37 H37           -2.3570    -6.3404    -4.7241 H       
  38 H38           -3.5701    -8.5454    -0.5061 H       
  39 H39           -2.0367    -6.6299    -0.4541 H       
@<TRIPOS>BOND
   1    1    2 ar
   2    1    3 ar
   3    1   16 1
   4    2    6 ar
   5    2   24 1
   6    3    4 ar
   7    3   25 1
   8    4    5 ar
   9    4   26 1
  10    5    6 ar
  11    5    7 1
  12    6    9 1
  13    7    8 1
  14    7   27 1
  15    8    9 2
  16    8   28 1
  17    9   10 1
  18   10   11 1
  19   10   29 1
  20   10   30 1
  21   11   12 1
  22   11   31 1
  23   11   32 1
  24   12   13 am
  25   12   33 1
  26   13   14 2
  27   13   15 1
  28   15   18 2
  29   15   22 1
  30   16   17 1
  31   17   34 1
  32   17   35 1
  33   17   36 1
  34   18   19 1
  35   18   37 1
  36   19   20 1
  37   20   21 1
  38   20   23 2
  39   21   22 2
  40   21   38 1
  41   22   39 1

#	End of record

