#	Name: ASD03092389
#	Creating user name:	WinNT
#	Creation time:	15. 06. 2019 20:32

#	Modifying user name:	WinNT
#	Modification time:	15. 06. 2019 20:32

#	Program:	/corina/corina34_cracker 3.40 0067  02.08.2006

@<TRIPOS>MOLECULE
ASD03092389
  59   62    0    0    0
SMALL
NO_CHARGES


@<TRIPOS>ATOM
   1 C1             0.0098     1.6171     0.1140 C.3     
   2 C2             0.0490     0.0800     0.1368 C.3     
   3 C3             1.4340     0.2034     0.7935 C.3     
   4 C4             1.5471     1.5780     0.1133 C.3     
   5 C5            -0.5801     2.1872    -1.1502 C.2     
   6 O6            -0.9680     1.4445    -2.0270 O.2     
   7 N7            -0.6766     3.5224    -1.3064 N.am    
   8 C8            -1.2501     4.0766    -2.5353 C.3     
   9 S9            -1.8720     8.0041    -2.1038 S.3     
  10 C10           -0.3175     7.5975    -2.6873 C.2     
  11 N11           -0.2004     6.3084    -2.7975 N.2     
  12 C12           -1.2431     5.5816    -2.4587 C.2     
  13 C13           -2.3061     6.2979    -2.0366 C.2     
  14 C14           -5.5135     4.3466    -1.9405 C.ar    
  15 C15           -4.3058     4.8341    -2.3914 C.ar    
  16 C16           -3.6032     5.7489    -1.5959 C.ar    
  17 C17           -4.1667     6.1275    -0.3698 C.ar    
  18 C18           -5.3794     5.5897     0.0022 C.ar    
  19 N19           -6.0082     4.7301    -0.7783 N.ar    
  20 C20           -3.4567     7.1075     0.5283 C.3     
  21 C21           -6.2827     3.3669    -2.7887 C.3     
  22 N22            0.6737     8.5106    -2.9982 N.3     
  23 C23            1.8872     7.8297    -3.4727 C.3     
  24 C24            2.9755     8.8707    -3.7478 C.3     
  25 O25            2.4862     9.8263    -4.6927 O.3     
  26 C26            1.3053    10.5087    -4.2626 C.3     
  27 C27            0.2000     9.4842    -3.9927 C.3     
  28 C28            0.8483    11.4773    -5.3552 C.3     
  29 C29            4.2141     8.1766    -4.3178 C.3     
  30 H30           -0.4154     2.0565     1.0163 H       
  31 H31           -0.7040    -0.3664     0.7864 H       
  32 H32            0.0747    -0.3709    -0.8552 H       
  33 H33            1.3982     0.2563     1.8816 H       
  34 H34            2.1572    -0.5255     0.4277 H       
  35 H35            1.9824     1.5366    -0.8851 H       
  36 H36            2.0036     2.3410     0.7439 H       
  37 H37           -0.3664     4.1164    -0.6051 H       
  38 H38           -0.6570     3.7536    -3.3908 H       
  39 H39           -2.2749     3.7234    -2.6495 H       
  40 H40           -3.9069     4.5156    -3.3432 H       
  41 H41           -5.8217     5.8749     0.9453 H       
  42 H42           -3.6978     8.1245     0.2189 H       
  43 H43           -3.7785     6.9553     1.5585 H       
  44 H44           -2.3802     6.9517     0.4571 H       
  45 H45           -5.9818     2.3508    -2.5336 H       
  46 H46           -7.3503     3.4867    -2.6044 H       
  47 H47           -6.0725     3.5546    -3.8416 H       
  48 H48            2.2349     7.1324    -2.7105 H       
  49 H49            1.6639     7.2854    -4.3903 H       
  50 H50            3.2368     9.3782    -2.8192 H       
  51 H51            1.5180    11.0637    -3.3489 H       
  52 H52           -0.0502     8.9663    -4.9186 H       
  53 H53           -0.6838     9.9946    -3.6101 H       
  54 H54            0.6340    10.9209    -6.2676 H       
  55 H55           -0.0517    11.9971    -5.0267 H       
  56 H56            1.6371    12.2041    -5.5495 H       
  57 H57            3.9519     7.6712    -5.2473 H       
  58 H58            4.9885     8.9183    -4.5134 H       
  59 H59            4.5842     7.4458    -3.5988 H       
@<TRIPOS>BOND
   1    1    2 1
   2    1    4 1
   3    1    5 1
   4    1   30 1
   5    2    3 1
   6    2   31 1
   7    2   32 1
   8    3    4 1
   9    3   33 1
  10    3   34 1
  11    4   35 1
  12    4   36 1
  13    5    6 2
  14    5    7 am
  15    7    8 1
  16    7   37 1
  17    8   12 1
  18    8   38 1
  19    8   39 1
  20    9   10 1
  21    9   13 1
  22   10   11 2
  23   10   22 1
  24   11   12 1
  25   12   13 2
  26   13   16 1
  27   14   15 ar
  28   14   19 ar
  29   14   21 1
  30   15   16 ar
  31   15   40 1
  32   16   17 ar
  33   17   18 ar
  34   17   20 1
  35   18   19 ar
  36   18   41 1
  37   20   42 1
  38   20   43 1
  39   20   44 1
  40   21   45 1
  41   21   46 1
  42   21   47 1
  43   22   23 1
  44   22   27 1
  45   23   24 1
  46   23   48 1
  47   23   49 1
  48   24   25 1
  49   24   29 1
  50   24   50 1
  51   25   26 1
  52   26   27 1
  53   26   28 1
  54   26   51 1
  55   27   52 1
  56   27   53 1
  57   28   54 1
  58   28   55 1
  59   28   56 1
  60   29   57 1
  61   29   58 1
  62   29   59 1

#	End of record

