#	Name: ASD07930310
#	Creating user name:	WinNT
#	Creation time:	15. 06. 2019 21:12

#	Modifying user name:	WinNT
#	Modification time:	15. 06. 2019 21:12

#	Program:	/corina/corina34_cracker 3.40 0067  02.08.2006

@<TRIPOS>MOLECULE
ASD07930310
  32   33    0    0    0
SMALL
NO_CHARGES


@<TRIPOS>ATOM
   1 N1            -0.0055     1.4467     0.2171 N.pl3   
   2 C2             0.0021    -0.0041     0.0020 C.3     
   3 C3             0.8317    -0.6749     1.1055 C.3     
   4 S4             2.4970     0.0607     1.0952 S.o2    
   5 N5             2.1759     1.6957     1.1084 N.am    
   6 C6             1.1851     2.1437     0.2464 C.2     
   7 C7            -1.4107    -0.5268     0.0464 C.ar    
   8 C8            -2.1672    -0.3785     1.1961 C.ar    
   9 C9            -3.4651    -0.8588     1.2379 C.ar    
  10 C10           -4.0059    -1.4867     0.1300 C.ar    
  11 C11           -3.2472    -1.6343    -1.0215 C.ar    
  12 C12           -1.9521    -1.1490    -1.0630 C.ar    
  13 N13            1.3729     3.1879    -0.5108 N.2     
  14 C14            2.9038     2.6149     1.9868 C.3     
  15 F15           -1.6389     0.2346     2.2777 F       
  16 F16           -5.2721    -1.9561     0.1700 F       
  17 O17            3.1635    -0.1827     2.3263 O.2     
  18 O18            3.1412    -0.1670    -0.1507 O.2     
  19 C19            0.6203    -0.3151    -1.3625 C.3     
  20 F20           -3.7742    -2.2472    -2.1040 F       
  21 H21           -0.8462     1.9160     0.3345 H       
  22 H22            0.3609    -0.5050     2.0738 H       
  23 H23            0.9017    -1.7455     0.9132 H       
  24 H24           -4.0551    -0.7437     2.1352 H       
  25 H25           -1.3613    -1.2635    -1.9598 H       
  26 H26            2.2163     3.6657    -0.4775 H       
  27 H27            3.7885     2.9871     1.4702 H       
  28 H28            2.2583     3.4524     2.2513 H       
  29 H29            3.2062     2.0891     2.8925 H       
  30 H30            1.6427     0.0617    -1.3926 H       
  31 H31            0.6256    -1.3934    -1.5217 H       
  32 H32            0.0330     0.1649    -2.1454 H       
@<TRIPOS>BOND
   1    1    2 1
   2    1    6 1
   3    1   21 1
   4    2    3 1
   5    2    7 1
   6    2   19 1
   7    3    4 1
   8    3   22 1
   9    3   23 1
  10    4    5 am
  11    4   17 2
  12    4   18 2
  13    5    6 1
  14    5   14 1
  15    6   13 2
  16    7    8 ar
  17    7   12 ar
  18    8    9 ar
  19    8   15 1
  20    9   10 ar
  21    9   24 1
  22   10   11 ar
  23   10   16 1
  24   11   12 ar
  25   11   20 1
  26   12   25 1
  27   13   26 1
  28   14   27 1
  29   14   28 1
  30   14   29 1
  31   19   30 1
  32   19   31 1
  33   19   32 1

#	End of record

