#	Name: ASD00844740
#	Creating user name:	WinNT
#	Creation time:	15. 06. 2019 18:50

#	Modifying user name:	WinNT
#	Modification time:	15. 06. 2019 18:50

#	Program:	/corina/corina34_cracker 3.40 0067  02.08.2006

@<TRIPOS>MOLECULE
ASD00844740
  99  104    0    0    0
SMALL
NO_CHARGES


@<TRIPOS>ATOM
   1 C1             0.5913     1.2994    -0.7086 C.ar    
   2 C2             0.8926    -0.0407    -0.9020 C.ar    
   3 C3             0.8171    -0.9271     0.1628 C.ar    
   4 C4             0.4424    -0.4733     1.4124 C.ar    
   5 C5             0.1420     0.8632     1.6025 C.ar    
   6 C6             0.2169     1.7484     0.5433 C.ar    
   7 C7             1.1433    -2.3838    -0.0439 C.3     
   8 C8             0.8637    -3.1742     1.2166 C.2     
   9 C9             0.3444    -2.9492    -1.2199 C.3     
  10 C10           -1.1240    -2.6911    -1.0000 C.2     
  11 N11           -2.0284    -3.1430    -1.8911 N.am    
  12 O12           -1.4917    -2.0769    -0.0210 O.2     
  13 C13           -3.4500    -2.7972    -1.7558 C.3     
  14 C14           -4.2745    -4.0883    -1.7647 C.3     
  15 C15           -3.9405    -4.8934    -3.0226 C.3     
  16 C16           -2.4567    -5.2679    -3.0116 C.3     
  17 C17           -1.6108    -3.9856    -3.0200 C.3     
  18 C18           -4.7875    -6.1672    -3.0524 C.3     
  19 C19           -6.2725    -5.7941    -3.0652 C.3     
  20 C20           -7.1132    -7.0696    -3.1564 C.3     
  21 N21           -6.7634    -7.8014    -4.3805 N.3     
  22 C22           -5.3534    -8.2114    -4.3695 C.3     
  23 C23           -4.4602    -6.9700    -4.3145 C.3     
  24 C24           -7.6469    -8.9592    -4.5723 C.3     
  25 O25           -0.2114    -3.3011     1.7633 O.2     
  26 N26            2.0294    -3.7095     1.6155 N.am    
  27 C27            2.6268    -2.5678    -0.2700 C.ar    
  28 C28            3.0828    -3.3754     0.7691 C.ar    
  29 C29            3.4848    -2.1075    -1.2364 C.ar    
  30 C30            4.8405    -2.4505    -1.1842 C.ar    
  31 C31            5.3061    -3.2620    -0.1426 C.ar    
  32 C32            4.4337    -3.7192     0.8217 C.ar    
  33 F33            6.6131    -3.5988    -0.0833 F       
  34 C34            1.9358    -6.3276     2.4590 C.ar    
  35 C35            0.6936    -6.7256     1.9873 C.ar    
  36 C36            2.9717    -7.2393     2.5285 C.ar    
  37 C37            2.7710    -8.5471     2.1280 C.ar    
  38 C38            1.5335    -8.9464     1.6574 C.ar    
  39 C39            0.4946    -8.0390     1.5864 C.ar    
  40 H40            1.3792    -9.9687     1.3451 H       
  41 O41           -0.3270    -5.8309     1.9184 O.3     
  42 C42           -1.5783    -6.3110     1.4226 C.3     
  43 C43           -2.5971    -5.1695     1.4186 C.3     
  44 C44           -7.3350    -9.6218    -5.9157 C.3     
  45 C45           -7.4209    -9.9659    -3.4425 C.3     
  46 S46            2.1946    -4.6589     2.9623 S.o2    
  47 O47            3.5570    -4.5649     3.3548 O.2     
  48 O48            1.1133    -4.3269     3.8224 O.2     
  49 O49            1.2607    -0.4849    -2.1325 O.3     
  50 C50            1.2284     0.4635    -3.2010 C.3     
  51 C51            1.7424    -0.1949    -4.4829 C.3     
  52 F52            3.0234    -0.7115    -4.2606 F       
  53 F53            0.8793    -1.2317    -4.8532 F       
  54 C54            5.7443    -1.9756    -2.1884 C.1     
  55 N55            6.4613    -1.5989    -2.9849 N.1     
  56 H56            0.6537     1.9921    -1.5349 H       
  57 H57            0.3834    -1.1628     2.2415 H       
  58 H58           -0.1515     1.2159     2.5801 H       
  59 H59           -0.0181     2.7916     0.6943 H       
  60 H60            0.6642    -2.4650    -2.1426 H       
  61 H61            0.5175    -4.0228    -1.2940 H       
  62 H62           -3.6095    -2.2683    -0.8161 H       
  63 H63           -3.7532    -2.1643    -2.5898 H       
  64 H64           -4.0351    -4.6790    -0.8805 H       
  65 H65           -5.3363    -3.8419    -1.7617 H       
  66 H66           -4.1569    -4.2929    -3.9062 H       
  67 H67           -2.2344    -5.8475    -2.1156 H       
  68 H68           -2.2246    -5.8612    -3.8961 H       
  69 H69           -1.7651    -3.4521    -3.9579 H       
  70 H70           -0.5569    -4.2423    -2.9124 H       
  71 H71           -4.5708    -6.7694    -2.1701 H       
  72 H72           -6.5212    -5.2591    -2.1486 H       
  73 H73           -6.4807    -5.1587    -3.9260 H       
  74 H74           -6.9148    -7.6982    -2.2883 H       
  75 H75           -8.1707    -6.8066    -3.1801 H       
  76 H76           -5.1633    -8.8347    -3.4957 H       
  77 H77           -5.1328    -8.7778    -5.2743 H       
  78 H78           -4.6398    -6.3531    -5.1950 H       
  79 H79           -3.4140    -7.2752    -4.2906 H       
  80 H80           -8.6857    -8.6292    -4.5625 H       
  81 H81            3.1148    -1.4823    -2.0356 H       
  82 H82            4.7982    -4.3451     1.6229 H       
  83 H83            3.9390    -6.9298     2.8957 H       
  84 H84            3.5821    -9.2581     2.1824 H       
  85 H85           -0.4718    -8.3515     1.2194 H       
  86 H86           -1.4474    -6.6848     0.4071 H       
  87 H87           -1.9378    -7.1166     2.0628 H       
  88 H88           -2.7279    -4.7957     2.4341 H       
  89 H89           -2.2376    -4.3639     0.7784 H       
  90 H90           -3.5515    -5.5357     1.0404 H       
  91 H91           -7.9905   -10.4809    -6.0580 H       
  92 H92           -7.4960    -8.9046    -6.7206 H       
  93 H93           -6.2962    -9.9518    -5.9255 H       
  94 H94           -7.6431    -9.4939    -2.4855 H       
  95 H95           -8.0764   -10.8250    -3.5848 H       
  96 H96           -6.3821   -10.2959    -3.4523 H       
  97 H97            0.2044     0.8046    -3.3532 H       
  98 H98            1.8616     1.3146    -2.9506 H       
  99 H99            1.7831     0.5465    -5.2810 H       
@<TRIPOS>BOND
   1    1    2 ar
   2    1    6 ar
   3    1   56 1
   4    2    3 ar
   5    2   49 1
   6    3    4 ar
   7    3    7 1
   8    4    5 ar
   9    4   57 1
  10    5    6 ar
  11    5   58 1
  12    6   59 1
  13    7    8 1
  14    7    9 1
  15    7   27 1
  16    8   25 2
  17    8   26 am
  18    9   10 1
  19    9   60 1
  20    9   61 1
  21   10   11 am
  22   10   12 2
  23   11   13 1
  24   11   17 1
  25   13   14 1
  26   13   62 1
  27   13   63 1
  28   14   15 1
  29   14   64 1
  30   14   65 1
  31   15   16 1
  32   15   18 1
  33   15   66 1
  34   16   17 1
  35   16   67 1
  36   16   68 1
  37   17   69 1
  38   17   70 1
  39   18   19 1
  40   18   23 1
  41   18   71 1
  42   19   20 1
  43   19   72 1
  44   19   73 1
  45   20   21 1
  46   20   74 1
  47   20   75 1
  48   21   22 1
  49   21   24 1
  50   22   23 1
  51   22   76 1
  52   22   77 1
  53   23   78 1
  54   23   79 1
  55   24   44 1
  56   24   45 1
  57   24   80 1
  58   26   46 am
  59   26   28 1
  60   27   28 ar
  61   27   29 ar
  62   28   32 ar
  63   29   30 ar
  64   29   81 1
  65   30   31 ar
  66   30   54 1
  67   31   32 ar
  68   31   33 1
  69   32   82 1
  70   34   35 ar
  71   34   36 ar
  72   34   46 1
  73   35   41 1
  74   35   39 ar
  75   36   37 ar
  76   36   83 1
  77   37   38 ar
  78   37   84 1
  79   38   39 ar
  80   38   40 1
  81   39   85 1
  82   41   42 1
  83   42   43 1
  84   42   86 1
  85   42   87 1
  86   43   88 1
  87   43   89 1
  88   43   90 1
  89   44   91 1
  90   44   92 1
  91   44   93 1
  92   45   94 1
  93   45   95 1
  94   45   96 1
  95   46   47 2
  96   46   48 2
  97   49   50 1
  98   50   51 1
  99   50   97 1
 100   50   98 1
 101   51   52 1
 102   51   53 1
 103   51   99 1
 104   54   55 3

#	End of record

