#	Name: ASD05430351
#	Creating user name:	WinNT
#	Creation time:	15. 06. 2019 21:00

#	Modifying user name:	WinNT
#	Modification time:	15. 06. 2019 21:00

#	Program:	/corina/corina34_cracker 3.40 0067  02.08.2006

@<TRIPOS>MOLECULE
ASD05430351
  54   57    0    0    0
SMALL
NO_CHARGES


@<TRIPOS>ATOM
   1 C1            -0.0168     1.3904     0.0097 C.ar    
   2 C2             0.0021    -0.0041     0.0020 C.ar    
   3 C3            -1.1893    -0.7183     0.0091 C.ar    
   4 C4            -2.3954    -0.0526     0.0242 C.ar    
   5 C5            -2.4223     1.3461     0.0324 C.ar    
   6 C6            -1.2227     2.0650     0.0306 C.ar    
   7 C7            -4.8647     1.3642     0.0546 C.2     
   8 C8            -3.7094     2.0590     0.0481 C.2     
   9 C9            -7.4133     1.2661     0.0770 C.3     
  10 C10           -6.1440     2.0728     0.0701 C.2     
  11 C11           -9.8890     1.4672    -0.0127 C.ar    
  12 C12          -11.0906     2.0906    -0.2932 C.ar    
  13 C13           -9.8790     0.2045     0.5501 C.ar    
  14 C14          -11.0704    -0.4362     0.8325 C.ar    
  15 C15          -12.2745     0.1872     0.5520 C.ar    
  16 C16          -12.2833     1.4520    -0.0113 C.ar    
  17 F17          -13.4399    -0.4384     0.8273 F       
  18 O18            1.1512     2.0861     0.0023 O.3     
  19 C19            1.0571     3.5119     0.0108 C.3     
  20 C20            1.6008    -1.7067     0.8222 C.2     
  21 N21            1.2260    -0.6864    -0.0133 N.pl3   
  22 C22            2.8466    -2.0688     0.4611 C.2     
  23 N23            3.2268    -1.2944    -0.5659 N.2     
  24 C24            2.2648    -0.4624    -0.8594 C.2     
  25 C25            3.6712    -3.1560     1.1007 C.3     
  26 C26           -8.5891     2.1621    -0.3264 C.3     
  27 C27           -8.4931     3.4673     0.4748 C.3     
  28 O28           -7.3007     4.1513     0.0841 O.3     
  29 N29           -6.1350     3.3590     0.0778 N.2     
  30 C30           -8.5147     2.4686    -1.8235 C.3     
  31 H31           -1.1700    -1.7981     0.0024 H       
  32 H32           -3.3202    -0.6105     0.0293 H       
  33 H33           -1.2388     3.1449     0.0372 H       
  34 H34           -4.8455     0.2844     0.0482 H       
  35 H35           -3.7286     3.1388     0.0544 H       
  36 H36           -7.3243     0.4424    -0.6314 H       
  37 H37           -7.5858     0.8684     1.0771 H       
  38 H38          -11.0973     3.0771    -0.7326 H       
  39 H39           -8.9396    -0.2815     0.7688 H       
  40 H40          -11.0623    -1.4229     1.2715 H       
  41 H41          -13.2220     1.9393    -0.2302 H       
  42 H42            2.0585     3.9422     0.0036 H       
  43 H43            0.5120     3.8454    -0.8722 H       
  44 H44            0.5290     3.8358     0.9076 H       
  45 H45            1.0118    -2.1347     1.6198 H       
  46 H46            2.2903     0.2794    -1.6439 H       
  47 H47            3.4798    -4.1024     0.5950 H       
  48 H48            4.7290    -2.9067     1.0169 H       
  49 H49            3.4012    -3.2453     2.1530 H       
  50 H50           -9.3605     4.0922     0.2624 H       
  51 H51           -8.4528     3.2410     1.5403 H       
  52 H52           -8.5603     1.5372    -2.3878 H       
  53 H53           -9.3527     3.1059    -2.1060 H       
  54 H54           -7.5782     2.9811    -2.0434 H       
@<TRIPOS>BOND
   1    1    2 ar
   2    1   18 1
   3    1    6 ar
   4    2    3 ar
   5    2   21 1
   6    3    4 ar
   7    3   31 1
   8    4    5 ar
   9    4   32 1
  10    5    6 ar
  11    5    8 1
  12    6   33 1
  13    7    8 2
  14    7   10 1
  15    7   34 1
  16    8   35 1
  17    9   10 1
  18    9   26 1
  19    9   36 1
  20    9   37 1
  21   10   29 2
  22   11   12 ar
  23   11   13 ar
  24   11   26 1
  25   12   16 ar
  26   12   38 1
  27   13   14 ar
  28   13   39 1
  29   14   15 ar
  30   14   40 1
  31   15   16 ar
  32   15   17 1
  33   16   41 1
  34   18   19 1
  35   19   42 1
  36   19   43 1
  37   19   44 1
  38   20   21 1
  39   20   22 2
  40   20   45 1
  41   21   24 1
  42   22   23 1
  43   22   25 1
  44   23   24 2
  45   24   46 1
  46   25   47 1
  47   25   48 1
  48   25   49 1
  49   26   27 1
  50   26   30 1
  51   27   28 1
  52   27   50 1
  53   27   51 1
  54   28   29 1
  55   30   52 1
  56   30   53 1
  57   30   54 1

#	End of record

