#	Name: ASD01811106
#	Creating user name:	WinNT
#	Creation time:	15. 06. 2019 19:26

#	Modifying user name:	WinNT
#	Modification time:	15. 06. 2019 19:26

#	Program:	/corina/corina34_cracker 3.40 0067  02.08.2006

@<TRIPOS>MOLECULE
ASD01811106
  46   49    0    0    0
SMALL
NO_CHARGES


@<TRIPOS>ATOM
   1 C1            -0.6627     1.4724     0.0018 C.2     
   2 C2            -0.4071     0.1539    -0.0346 C.2     
   3 N3            -1.4199    -0.7578     0.0642 N.pl3   
   4 C4            -2.7083    -0.4173     0.1879 C.2     
   5 C5            -3.0735     0.9139     0.2246 C.2     
   6 C6            -2.0072     1.9195     0.1317 C.2     
   7 C7            -1.0779    -2.1820     0.0326 C.3     
   8 C8            -1.2003    -2.6968    -1.3785 C.ar    
   9 O9            -2.2691     3.1115     0.1578 O.2     
  10 C10           -4.4839     1.3117     0.3571 C.2     
  11 O11           -5.3499     0.4626     0.4362 O.2     
  12 O12           -4.8155     2.6177     0.3906 O.3     
  13 C13           -0.0806    -2.7671    -2.1868 C.ar    
  14 C14           -0.1897    -3.2380    -3.4807 C.ar    
  15 C15           -1.4251    -3.6415    -3.9692 C.ar    
  16 C16           -2.5474    -3.5702    -3.1550 C.ar    
  17 C17           -2.4310    -3.1032    -1.8603 C.ar    
  18 N18           -1.5391    -4.1196    -5.2821 N.pl3   
  19 C19            0.4106     2.5248    -0.0823 C.3     
  20 C20            1.7038     1.9359    -0.6418 C.3     
  21 C21            2.0315     0.6643     0.1507 C.3     
  22 C22            0.9892    -0.3960    -0.1944 C.3     
  23 O23           -0.0328     3.5817    -0.9357 O.3     
  24 C24           -2.6763    -4.5422    -5.8792 C.2     
  25 C25           -2.3631    -4.9213    -7.1399 C.2     
  26 C26           -0.9896    -4.7243    -7.3202 C.2     
  27 N27           -0.4961    -4.2383    -6.2097 N.2     
  28 H28           -3.4641    -1.1854     0.2587 H       
  29 H29           -0.0542    -2.3176     0.3813 H       
  30 H30           -1.7587    -2.7336     0.6809 H       
  31 H31           -5.7548     2.8300     0.4787 H       
  32 H32            0.8801    -2.4531    -1.8063 H       
  33 H33            0.6850    -3.2921    -4.1118 H       
  34 H34           -3.5097    -3.8830    -3.5324 H       
  35 H35           -3.3037    -3.0475    -1.2265 H       
  36 H36            0.5999     2.9245     0.9139 H       
  37 H37            1.5702     1.6890    -1.6950 H       
  38 H38            2.5140     2.6569    -0.5322 H       
  39 H39            3.0242     0.3065    -0.1225 H       
  40 H40            1.9984     0.8782     1.2190 H       
  41 H41            1.1156    -1.2523     0.4681 H       
  42 H42            1.1322    -0.7173    -1.2261 H       
  43 H43            0.6076     4.2988    -1.0390 H       
  44 H44           -3.6582    -4.5724    -5.4304 H       
  45 H45           -3.0516    -5.3077    -7.8767 H       
  46 H46           -0.4332    -4.9330    -8.2221 H       
@<TRIPOS>BOND
   1    1    2 2
   2    1   19 1
   3    1    6 1
   4    2    3 1
   5    2   22 1
   6    3    4 1
   7    3    7 1
   8    4    5 2
   9    4   28 1
  10    5    6 1
  11    5   10 1
  12    6    9 2
  13    7    8 1
  14    7   29 1
  15    7   30 1
  16    8   13 ar
  17    8   17 ar
  18   10   11 2
  19   10   12 1
  20   12   31 1
  21   13   14 ar
  22   13   32 1
  23   14   15 ar
  24   14   33 1
  25   15   16 ar
  26   15   18 1
  27   16   17 ar
  28   16   34 1
  29   17   35 1
  30   18   24 1
  31   18   27 1
  32   19   20 1
  33   19   23 1
  34   19   36 1
  35   20   21 1
  36   20   37 1
  37   20   38 1
  38   21   22 1
  39   21   39 1
  40   21   40 1
  41   22   41 1
  42   22   42 1
  43   23   43 1
  44   24   25 2
  45   24   44 1
  46   25   26 1
  47   25   45 1
  48   26   27 2
  49   26   46 1

#	End of record

