#	Name: ASD08150657
#	Creating user name:	WinNT
#	Creation time:	15. 06. 2019 21:16

#	Modifying user name:	WinNT
#	Modification time:	15. 06. 2019 21:16

#	Program:	/corina/corina34_cracker 3.40 0067  02.08.2006

@<TRIPOS>MOLECULE
ASD08150657
  59   65    0    0    0
SMALL
NO_CHARGES


@<TRIPOS>ATOM
   1 N1             0.4687     2.1992    -1.6663 N.am    
   2 C2             0.6945     1.2184    -2.5618 C.2     
   3 C3             1.9084     0.5018    -2.5595 C.2     
   4 C4             2.8718     0.7930    -1.6487 C.2     
   5 C5             2.6376     1.8242    -0.7051 C.ar    
   6 C6             3.6035     2.1665     0.2604 C.ar    
   7 N7             3.3849     3.1186     1.1295 N.ar    
   8 C8             2.2409     3.8191     1.1539 C.ar    
   9 C9             1.2129     3.5427     0.2191 C.ar    
  10 C10            1.4181     2.5183    -0.7347 C.ar    
  11 C11            0.0241     4.2778     0.2537 C.ar    
  12 C12           -0.1359     5.2720     1.2054 C.ar    
  13 C13            0.8858     5.5398     2.1272 C.ar    
  14 C14            2.0479     4.8338     2.1058 C.ar    
  15 O15           -0.1629     0.9466    -3.3850 O.2     
  16 C16           -1.3936     6.0568     1.2488 C.ar    
  17 C17           -0.7435     2.9004    -1.6930 C.ar    
  18 C18           -0.7972     4.1738    -2.2451 C.ar    
  19 C19           -1.9916     4.8648    -2.2713 C.ar    
  20 C20           -3.1399     4.2870    -1.7452 C.ar    
  21 C21           -3.0862     3.0136    -1.1931 C.ar    
  22 C22           -1.8931     2.3201    -1.1724 C.ar    
  23 N23           -4.3514     4.9883    -1.7710 N.am    
  24 C24           -2.5804     5.5203     0.7245 C.ar    
  25 N25           -3.7045     6.1902     0.7488 N.ar    
  26 C26           -3.7791     7.4179     1.2739 C.ar    
  27 C27           -2.6237     8.0282     1.8237 C.ar    
  28 C28           -1.4072     7.3244     1.8128 C.ar    
  29 C29           -4.4815     6.2626    -2.1785 C.2     
  30 C30           -5.9250     6.7005    -2.0642 C.3     
  31 C31           -6.5702     5.6425    -1.1394 C.3     
  32 C32           -5.6434     4.4246    -1.3625 C.3     
  33 O33           -3.5736     6.9600    -2.5792 O.2     
  34 C34           -4.9957     8.1222     1.2903 C.ar    
  35 C35           -5.0472     9.3706     1.8298 C.ar    
  36 C36           -3.9103     9.9687     2.3698 C.ar    
  37 C37           -2.7140     9.3190     2.3720 C.ar    
  38 H38            2.0722    -0.2817    -3.2846 H       
  39 H39            3.8033     0.2464    -1.6429 H       
  40 H40            4.5420     1.6326     0.2839 H       
  41 H41           -0.7634     4.0724    -0.4563 H       
  42 H42            0.7484     6.3175     2.8640 H       
  43 H43            2.8246     5.0534     2.8235 H       
  44 H44            0.0958     4.6234    -2.6535 H       
  45 H45           -2.0334     5.8549    -2.7006 H       
  46 H46           -3.9791     2.5643    -0.7841 H       
  47 H47           -1.8524     1.3282    -0.7472 H       
  48 H48           -2.5653     4.5314     0.2907 H       
  49 H49           -0.5084     7.7603     2.2234 H       
  50 H50           -5.9886     7.6909    -1.6134 H       
  51 H51           -6.4042     6.6945    -3.0432 H       
  52 H52           -6.5491     5.9685    -0.0995 H       
  53 H53           -7.5888     5.4173    -1.4554 H       
  54 H54           -6.0463     3.7825    -2.1457 H       
  55 H55           -5.5286     3.8631    -0.4353 H       
  56 H56           -5.8866     7.6740     0.8758 H       
  57 H57           -5.9847     9.9068     1.8391 H       
  58 H58           -3.9790    10.9605     2.7916 H       
  59 H59           -1.8397     9.7924     2.7936 H       
@<TRIPOS>BOND
   1    1    2 am
   2    1   10 1
   3    1   17 1
   4    2    3 1
   5    2   15 2
   6    3    4 2
   7    3   38 1
   8    4    5 1
   9    4   39 1
  10    5    6 ar
  11    5   10 ar
  12    6    7 ar
  13    6   40 1
  14    7    8 ar
  15    8    9 ar
  16    8   14 ar
  17    9   10 ar
  18    9   11 ar
  19   11   12 ar
  20   11   41 1
  21   12   13 ar
  22   12   16 1
  23   13   14 ar
  24   13   42 1
  25   14   43 1
  26   16   24 ar
  27   16   28 ar
  28   17   18 ar
  29   17   22 ar
  30   18   19 ar
  31   18   44 1
  32   19   20 ar
  33   19   45 1
  34   20   21 ar
  35   20   23 1
  36   21   22 ar
  37   21   46 1
  38   22   47 1
  39   23   29 am
  40   23   32 1
  41   24   25 ar
  42   24   48 1
  43   25   26 ar
  44   26   27 ar
  45   26   34 ar
  46   27   28 ar
  47   27   37 ar
  48   28   49 1
  49   29   30 1
  50   29   33 2
  51   30   31 1
  52   30   50 1
  53   30   51 1
  54   31   32 1
  55   31   52 1
  56   31   53 1
  57   32   54 1
  58   32   55 1
  59   34   35 ar
  60   34   56 1
  61   35   36 ar
  62   35   57 1
  63   36   37 ar
  64   36   58 1
  65   37   59 1

#	End of record

