#	Name: ASD00840836
#	Creating user name:	WinNT
#	Creation time:	15. 06. 2019 18:40

#	Modifying user name:	WinNT
#	Modification time:	15. 06. 2019 18:40

#	Program:	/corina/corina34_cracker 3.40 0067  02.08.2006

@<TRIPOS>MOLECULE
ASD00840836
  97  102    0    0    0
SMALL
NO_CHARGES


@<TRIPOS>ATOM
   1 F1             5.9969    -1.9449    -2.1124 F       
   2 N2             0.9850     1.4258    -0.8222 N.ar    
   3 C3             1.2595     0.1349    -0.9070 C.ar    
   4 C4             1.2001    -0.6768     0.2188 C.ar    
   5 C5             0.8492    -0.1169     1.4346 C.ar    
   6 C6             0.5686     1.2419     1.4815 C.ar    
   7 C7             0.6475     1.9882     0.3229 C.ar    
   8 C8             1.5132    -2.1474     0.1173 C.3     
   9 C9             1.2556    -2.8368     1.4400 C.2     
  10 C10            0.6852    -2.7947    -0.9945 C.3     
  11 C11           -0.7763    -2.5076    -0.7645 C.2     
  12 N12           -1.7048    -3.0415    -1.5826 N.am    
  13 O13           -1.1168    -1.7961     0.1567 O.2     
  14 C14           -3.1219    -2.6790    -1.4440 C.3     
  15 C15           -3.9475    -3.9618    -1.3041 C.3     
  16 C16           -3.6482    -4.8877    -2.4853 C.3     
  17 C17           -2.1650    -5.2647    -2.4771 C.3     
  18 C18           -1.3184    -3.9924    -2.6339 C.3     
  19 N19           -4.4631    -6.1047    -2.3719 N.3     
  20 C20           -4.2909    -6.9656    -3.5504 C.3     
  21 C21           -5.0919    -8.2555    -3.3580 C.3     
  22 N22           -6.5089    -7.9234    -3.1546 N.3     
  23 C23           -6.6811    -7.0625    -1.9761 C.3     
  24 C24           -5.8801    -5.7726    -2.1684 C.3     
  25 C25           -7.3238    -9.1404    -3.0411 C.3     
  26 O26            0.1916    -2.9125     2.0172 O.2     
  27 N27            2.4261    -3.3494     1.8548 N.am    
  28 C28            2.9903    -2.3587    -0.1271 C.ar    
  29 C29            3.4653    -3.0872     0.9587 C.ar    
  30 C30            3.8304    -1.9770    -1.1498 C.ar    
  31 C31            5.1713    -2.3174    -1.1100 C.ar    
  32 C32            5.6666    -3.0496    -0.0262 C.ar    
  33 C33            4.8106    -3.4332     1.0057 C.ar    
  34 C34            2.3360    -5.8954     2.8961 C.ar    
  35 C35            1.0816    -6.3189     2.4825 C.ar    
  36 C36            3.3680    -6.8068     3.0125 C.ar    
  37 C37            3.1512    -8.1397     2.7167 C.ar    
  38 C38            1.9015    -8.5644     2.3042 C.ar    
  39 C39            0.8665    -7.6573     2.1867 C.ar    
  40 H40            1.7346    -9.6062     2.0736 H       
  41 O41            0.0649    -5.4245     2.3677 O.3     
  42 C42           -1.1996    -5.9315     1.9365 C.3     
  43 C43           -2.2118    -4.7862     1.8676 C.3     
  44 C44           -8.7360    -8.7679    -2.5852 C.3     
  45 C45           -9.5847   -10.0354    -2.4671 C.3     
  46 O46            1.6018    -0.4019    -2.1051 O.3     
  47 C47            2.0673    -0.2814    -4.4735 C.3     
  48 C48            1.5363     0.4585    -3.2441 C.3     
  49 S49            2.6152    -4.1954     3.2658 S.o2    
  50 O50            3.9864    -4.0819     3.6210 O.2     
  51 O51            1.5548    -3.7913     4.1211 O.2     
  52 C52            7.0526    -3.4062     0.0234 C.1     
  53 N53            8.1521    -3.6891     0.0627 N.1     
  54 H54            0.7944    -0.7233     2.3267 H       
  55 H55            0.2913     1.7101     2.4144 H       
  56 H56            0.4306     3.0457     0.3540 H       
  57 H57            0.9884    -2.3859    -1.9584 H       
  58 H58            0.8490    -3.8723    -0.9892 H       
  59 H59           -3.2556    -2.0598    -0.5570 H       
  60 H60           -3.4467    -2.1299    -2.3278 H       
  61 H61           -3.6850    -4.4636    -0.3728 H       
  62 H62           -5.0086    -3.7125    -1.2971 H       
  63 H63           -3.8877    -4.3761    -3.4175 H       
  64 H64           -1.9193    -5.7543    -1.5347 H       
  65 H65           -1.9573    -5.9427    -3.3048 H       
  66 H66           -1.4974    -3.5530    -3.6152 H       
  67 H67           -0.2623    -4.2411    -2.5297 H       
  68 H68           -4.6496    -6.4436    -4.4375 H       
  69 H69           -3.2352    -7.2078    -3.6726 H       
  70 H70           -4.9889    -8.8829    -4.2433 H       
  71 H71           -4.7151    -8.7909    -2.4866 H       
  72 H72           -7.7368    -6.8202    -1.8539 H       
  73 H73           -6.3224    -7.5844    -1.0889 H       
  74 H74           -5.9831    -5.1451    -1.2831 H       
  75 H75           -6.2569    -5.2371    -3.0399 H       
  76 H76           -7.3738    -9.6358    -4.0108 H       
  77 H77           -6.8723    -9.8133    -2.3122 H       
  78 H78            3.4421    -1.4117    -1.9841 H       
  79 H79            5.1935    -3.9986     1.8424 H       
  80 H80            4.3448    -6.4775     3.3345 H       
  81 H81            3.9592    -8.8504     2.8076 H       
  82 H82           -0.1095    -7.9897     1.8651 H       
  83 H83           -1.0931    -6.3821     0.9497 H       
  84 H84           -1.5497    -6.6837     2.6435 H       
  85 H85           -2.3183    -4.3357     2.8544 H       
  86 H86           -1.8617    -4.0340     1.1607 H       
  87 H87           -3.1763    -5.1730     1.5387 H       
  88 H88           -8.6859    -8.2725    -1.6156 H       
  89 H89           -9.1874    -8.0949    -3.3142 H       
  90 H90           -9.6347   -10.5308    -3.4367 H       
  91 H91           -9.1332   -10.7083    -1.7381 H       
  92 H92          -10.5908    -9.7700    -2.1423 H       
  93 H93            3.0711    -0.6533    -4.2682 H       
  94 H94            1.4097    -1.1192    -4.7054 H       
  95 H95            2.0993     0.4012    -5.3227 H       
  96 H96            0.5015     0.7543    -3.4169 H       
  97 H97            2.1427     1.3462    -3.0642 H       
@<TRIPOS>BOND
   1    1   31 1
   2    2    3 ar
   3    2    7 ar
   4    3    4 ar
   5    3   46 1
   6    4    5 ar
   7    4    8 1
   8    5    6 ar
   9    5   54 1
  10    6    7 ar
  11    6   55 1
  12    7   56 1
  13    8    9 1
  14    8   10 1
  15    8   28 1
  16    9   26 2
  17    9   27 am
  18   10   11 1
  19   10   57 1
  20   10   58 1
  21   11   12 am
  22   11   13 2
  23   12   14 1
  24   12   18 1
  25   14   15 1
  26   14   59 1
  27   14   60 1
  28   15   16 1
  29   15   61 1
  30   15   62 1
  31   16   17 1
  32   16   19 1
  33   16   63 1
  34   17   18 1
  35   17   64 1
  36   17   65 1
  37   18   66 1
  38   18   67 1
  39   19   20 1
  40   19   24 1
  41   20   21 1
  42   20   68 1
  43   20   69 1
  44   21   22 1
  45   21   70 1
  46   21   71 1
  47   22   23 1
  48   22   25 1
  49   23   24 1
  50   23   72 1
  51   23   73 1
  52   24   74 1
  53   24   75 1
  54   25   44 1
  55   25   76 1
  56   25   77 1
  57   27   49 am
  58   27   29 1
  59   28   29 ar
  60   28   30 ar
  61   29   33 ar
  62   30   31 ar
  63   30   78 1
  64   31   32 ar
  65   32   33 ar
  66   32   52 1
  67   33   79 1
  68   34   35 ar
  69   34   36 ar
  70   34   49 1
  71   35   41 1
  72   35   39 ar
  73   36   37 ar
  74   36   80 1
  75   37   38 ar
  76   37   81 1
  77   38   39 ar
  78   38   40 1
  79   39   82 1
  80   41   42 1
  81   42   43 1
  82   42   83 1
  83   42   84 1
  84   43   85 1
  85   43   86 1
  86   43   87 1
  87   44   45 1
  88   44   88 1
  89   44   89 1
  90   45   90 1
  91   45   91 1
  92   45   92 1
  93   46   48 1
  94   47   48 1
  95   47   93 1
  96   47   94 1
  97   47   95 1
  98   48   96 1
  99   48   97 1
 100   49   50 2
 101   49   51 2
 102   52   53 3

#	End of record

