#	Name: ASD01010008
#	Creating user name:	WinNT
#	Creation time:	15. 06. 2019 18:56

#	Modifying user name:	WinNT
#	Modification time:	15. 06. 2019 18:56

#	Program:	/corina/corina34_cracker 3.40 0067  02.08.2006

@<TRIPOS>MOLECULE
ASD01010008
  16   16    0    0    0
SMALL
NO_CHARGES


@<TRIPOS>ATOM
   1 C1            -0.0180     1.4732     0.0101 C.2     
   2 C2             0.0021    -0.0041     0.0020 C.ar    
   3 C3             1.2187    -0.6881    -0.0133 C.ar    
   4 C4             1.2294    -2.0724    -0.0209 C.ar    
   5 C5             0.0327    -2.7768    -0.0133 C.ar    
   6 C6            -1.1732    -2.1008     0.0019 C.ar    
   7 C7            -1.1958    -0.7211     0.0154 C.ar    
   8 O8             1.0256     2.0948     0.0035 O.2     
   9 O9            -1.1936     2.1308     0.0193 O.3     
  10 O10            2.4118    -2.7424    -0.0362 O.3     
  11 H11            2.1488    -0.1391    -0.0195 H       
  12 H12            0.0441    -3.8567    -0.0196 H       
  13 H13           -2.1005    -2.6544     0.0077 H       
  14 H14           -2.1395    -0.1963     0.0321 H       
  15 H15           -1.1561     3.0971     0.0244 H       
  16 H16            2.7627    -2.9411     0.8427 H       
@<TRIPOS>BOND
   1    1    2 1
   2    1    8 2
   3    1    9 1
   4    2    3 ar
   5    2    7 ar
   6    3    4 ar
   7    3   11 1
   8    4    5 ar
   9    4   10 1
  10    5    6 ar
  11    5   12 1
  12    6    7 ar
  13    6   13 1
  14    7   14 1
  15    9   15 1
  16   10   16 1

#	End of record

