#	Name: ASD01820071
#	Creating user name:	WinNT
#	Creation time:	15. 06. 2019 19:36

#	Modifying user name:	WinNT
#	Modification time:	15. 06. 2019 19:36

#	Program:	/corina/corina34_cracker 3.40 0067  02.08.2006

@<TRIPOS>MOLECULE
ASD01820071
  74   79    0    0    0
SMALL
NO_CHARGES


@<TRIPOS>ATOM
   1 C1            -0.0167     1.3781     0.0096 C.ar    
   2 C2             0.0021    -0.0041     0.0020 C.ar    
   3 C3             1.2063    -0.6904    -0.0131 C.ar    
   4 C4             2.3989     0.0151    -0.0207 C.ar    
   5 C5             2.3798     1.4244    -0.0130 C.ar    
   6 C6             1.1684     2.0970     0.0022 C.ar    
   7 C7             3.8259    -0.3700    -0.0364 C.2     
   8 N8             4.5720     0.7494    -0.0375 N.am    
   9 C9             3.7959     1.8481    -0.0242 C.2     
  10 O10            4.1923     2.9960    -0.0224 O.2     
  11 O11            4.2533    -1.5068    -0.0462 O.2     
  12 N12           10.0228     0.8400    -2.9758 N.ar    
  13 C13           10.6778    -0.3048    -2.9886 C.ar    
  14 C14           12.0576    -0.3314    -3.0023 C.ar    
  15 C15           12.7590     0.8773    -3.0025 C.ar    
  16 C16           12.0251     2.0664    -2.9886 C.ar    
  17 C17           10.6465     2.0023    -2.9808 C.ar    
  18 C18           14.2428     0.8975    -3.0165 C.ar    
  19 C19           14.9442     2.1061    -3.0166 C.ar    
  20 C20           16.3240     2.0795    -3.0300 C.ar    
  21 N21           16.9790     0.9347    -3.0424 N.ar    
  22 C22           16.3553    -0.2276    -3.0427 C.ar    
  23 C23           14.9768    -0.2917    -3.0241 C.ar    
  24 C24           18.4438     0.9546    -3.0568 C.3     
  25 N25           22.4867     0.9942    -0.2113 N.am    
  26 C26           23.2328     2.1136    -0.2128 C.2     
  27 C27           24.6598     1.7286    -0.2225 C.ar    
  28 C28           24.6790     0.3192    -0.2264 C.ar    
  29 C29           23.2629    -0.1045    -0.2189 C.2     
  30 C30           25.8525     2.4339    -0.2278 C.ar    
  31 C31           27.0567     1.7475    -0.2370 C.ar    
  32 C32           27.0755     0.3654    -0.2412 C.ar    
  33 C33           25.8904    -0.3534    -0.2348 C.ar    
  34 O34           22.8665    -1.2525    -0.2188 O.2     
  35 O35           22.8053     3.2504    -0.2076 O.2     
  36 C36           18.9680     0.9540    -1.6193 C.3     
  37 C37           20.4977     0.9749    -1.6343 C.3     
  38 C38            8.5580     0.8201    -2.9615 C.3     
  39 C39            8.0623     0.8051    -1.5141 C.3     
  40 C40            6.5325     0.7843    -1.4992 C.3     
  41 C41            6.0368     0.7693    -0.0518 C.3     
  42 C42           21.0219     0.9743    -0.1969 C.3     
  43 H43           -0.9613     1.9015     0.0169 H       
  44 H44           -0.9280    -0.5530     0.0083 H       
  45 H45            1.2149    -1.7703    -0.0187 H       
  46 H46            1.1477     3.1767     0.0078 H       
  47 H47           10.1270    -1.2338    -2.9880 H       
  48 H48           12.5875    -1.2725    -3.0124 H       
  49 H49           12.5293     3.0215    -2.9883 H       
  50 H50           10.0707     2.9159    -2.9701 H       
  51 H51           14.4144     3.0472    -3.0069 H       
  52 H52           16.8749     3.0085    -3.0306 H       
  53 H53           16.9311    -1.1412    -3.0535 H       
  54 H54           14.4726    -1.2468    -3.0241 H       
  55 H55           18.8141     0.0724    -3.5789 H       
  56 H56           18.7899     1.8521    -3.5694 H       
  57 H57           25.8439     3.5139    -0.2253 H       
  58 H58           27.9868     2.2965    -0.2411 H       
  59 H59           28.0201    -0.1581    -0.2490 H       
  60 H60           25.9111    -1.4332    -0.2380 H       
  61 H61           18.5977     1.8363    -1.0972 H       
  62 H62           18.6218     0.0565    -1.1067 H       
  63 H63           20.8680     0.0926    -2.1565 H       
  64 H64           20.8439     1.8724    -2.1470 H       
  65 H65            8.1777     1.7079    -3.4667 H       
  66 H66            8.2018    -0.0719    -3.4768 H       
  67 H67            8.4427    -0.0827    -1.0089 H       
  68 H68            8.4186     1.6971    -0.9988 H       
  69 H69            6.1521     1.6721    -2.0043 H       
  70 H70            6.1762    -0.1077    -2.0145 H       
  71 H71            6.3931     1.6613     0.4635 H       
  72 H72            6.4172    -0.1185     0.4534 H       
  73 H73           20.6758     0.0768     0.3157 H       
  74 H74           20.6517     1.8565     0.3252 H       
@<TRIPOS>BOND
   1    1    2 ar
   2    1    6 ar
   3    1   43 1
   4    2    3 ar
   5    2   44 1
   6    3    4 ar
   7    3   45 1
   8    4    5 ar
   9    4    7 1
  10    5    6 ar
  11    5    9 1
  12    6   46 1
  13    7    8 am
  14    7   11 2
  15    8    9 am
  16    8   41 1
  17    9   10 2
  18   12   13 ar
  19   12   38 1
  20   12   17 ar
  21   13   14 ar
  22   13   47 1
  23   14   15 ar
  24   14   48 1
  25   15   16 ar
  26   15   18 1
  27   16   17 ar
  28   16   49 1
  29   17   50 1
  30   18   19 ar
  31   18   23 ar
  32   19   20 ar
  33   19   51 1
  34   20   21 ar
  35   20   52 1
  36   21   22 ar
  37   21   24 1
  38   22   23 ar
  39   22   53 1
  40   23   54 1
  41   24   36 1
  42   24   55 1
  43   24   56 1
  44   25   26 am
  45   25   29 am
  46   25   42 1
  47   26   27 1
  48   26   35 2
  49   27   28 ar
  50   27   30 ar
  51   28   29 1
  52   28   33 ar
  53   29   34 2
  54   30   31 ar
  55   30   57 1
  56   31   32 ar
  57   31   58 1
  58   32   33 ar
  59   32   59 1
  60   33   60 1
  61   36   37 1
  62   36   61 1
  63   36   62 1
  64   37   42 1
  65   37   63 1
  66   37   64 1
  67   38   39 1
  68   38   65 1
  69   38   66 1
  70   39   40 1
  71   39   67 1
  72   39   68 1
  73   40   41 1
  74   40   69 1
  75   40   70 1
  76   41   71 1
  77   41   72 1
  78   42   73 1
  79   42   74 1

#	End of record

