#	Name: ASD03731752
#	Creating user name:	WinNT
#	Creation time:	15. 06. 2019 20:46

#	Modifying user name:	WinNT
#	Modification time:	15. 06. 2019 20:46

#	Program:	/corina/corina34_cracker 3.40 0067  02.08.2006

@<TRIPOS>MOLECULE
ASD03731752
  34   35    0    0    0
SMALL
NO_CHARGES


@<TRIPOS>ATOM
   1 C1             0.3782     1.0941     1.9794 C.2     
   2 C2             0.2938    -0.2822     1.4526 C.ar    
   3 C3             1.3758    -0.8360     0.7634 C.ar    
   4 C4             1.2933    -2.1204     0.2739 C.ar    
   5 C5             0.1356    -2.8659     0.4646 C.ar    
   6 C6            -0.9432    -2.3183     1.1494 C.ar    
   7 C7            -0.8663    -1.0366     1.6470 C.ar    
   8 O8             1.3902     1.7474     1.8138 O.2     
   9 N9            -0.6685     1.6286     2.6391 N.am    
  10 S10           -0.5737     3.1726     3.2301 S.o2    
  11 O11           -1.8245     3.3796     3.8719 O.2     
  12 O12            0.6404     3.1914     3.9682 O.2     
  13 C13           -0.4364     4.2153     1.7522 C.3     
  14 O14            0.0581    -4.1314    -0.0192 O.3     
  15 C15           -1.1261    -4.7854     0.0935 C.ar    
  16 C16           -2.0799    -4.6688    -0.9101 C.ar    
  17 C17           -3.2841    -5.3310    -0.7993 C.ar    
  18 C18           -3.5438    -6.1212     0.3257 C.ar    
  19 C19           -2.5805    -6.2352     1.3317 C.ar    
  20 C20           -1.3784    -5.5741     1.2098 C.ar    
  21 C21           -4.7930    -6.8108     0.4460 C.1     
  22 N22           -5.7840    -7.3579     0.5415 N.1     
  23 Cl23          -4.4759    -5.1841    -2.0529 Cl      
  24 H24            2.2754    -0.2574     0.6144 H       
  25 H25            2.1290    -2.5491    -0.2593 H       
  26 H26           -1.8412    -2.9003     1.2950 H       
  27 H27           -1.7031    -0.6134     2.1827 H       
  28 H28           -1.4773     1.1088     2.7678 H       
  29 H29           -1.3159     4.0732     1.1242 H       
  30 H30           -0.3682     5.2615     2.0506 H       
  31 H31            0.4575     3.9379     1.1935 H       
  32 H32           -1.8780    -4.0584    -1.7779 H       
  33 H33           -2.7769    -6.8438     2.2020 H       
  34 H34           -0.6322    -5.6652     1.9852 H       
@<TRIPOS>BOND
   1    1    2 1
   2    1    8 2
   3    1    9 am
   4    2    3 ar
   5    2    7 ar
   6    3    4 ar
   7    3   24 1
   8    4    5 ar
   9    4   25 1
  10    5    6 ar
  11    5   14 1
  12    6    7 ar
  13    6   26 1
  14    7   27 1
  15    9   10 am
  16    9   28 1
  17   10   11 2
  18   10   12 2
  19   10   13 1
  20   13   29 1
  21   13   30 1
  22   13   31 1
  23   14   15 1
  24   15   16 ar
  25   15   20 ar
  26   16   17 ar
  27   16   32 1
  28   17   18 ar
  29   17   23 1
  30   18   19 ar
  31   18   21 1
  32   19   20 ar
  33   19   33 1
  34   20   34 1
  35   21   22 3

#	End of record

