#	Name: ASD01890186
#	Creating user name:	WinNT
#	Creation time:	15. 06. 2019 19:50

#	Modifying user name:	WinNT
#	Modification time:	15. 06. 2019 19:50

#	Program:	/corina/corina34_cracker 3.40 0067  02.08.2006

@<TRIPOS>MOLECULE
ASD01890186
  28   29    0    0    0
SMALL
NO_CHARGES


@<TRIPOS>ATOM
   1 C1            -0.0177     1.4570     0.0101 C.2     
   2 C2             0.0021    -0.0041     0.0020 C.2     
   3 C3             1.1817    -0.6639    -0.0128 C.2     
   4 O4             1.0282     2.0800     0.0034 O.2     
   5 C5            -1.3087     2.1791     0.0201 C.ar    
   6 C6            -1.3311     3.5750     0.0278 C.ar    
   7 C7            -2.5384     4.2422     0.0367 C.ar    
   8 C8            -3.7255     3.5310     0.0380 C.ar    
   9 C9            -3.7103     2.1473     0.0308 C.ar    
  10 C10           -2.5099     1.4678     0.0161 C.ar    
  11 C11            1.2016    -2.1337    -0.0209 C.ar    
  12 C12            2.4213    -2.8201    -0.0362 C.ar    
  13 C13            2.4328    -4.1977    -0.0438 C.ar    
  14 C14            1.2392    -4.9043    -0.0362 C.ar    
  15 C15            0.0269    -4.2304    -0.0210 C.ar    
  16 C16            0.0010    -2.8531    -0.0075 C.ar    
  17 F17            1.2575    -6.2552    -0.0441 F       
  18 H18           -0.9258    -0.5567     0.0079 H       
  19 H19            2.1095    -0.1112    -0.0187 H       
  20 H20           -0.4054     4.1312     0.0272 H       
  21 H21           -2.5573     5.3220     0.0430 H       
  22 H22           -4.6680     4.0582     0.0449 H       
  23 H23           -4.6403     1.5983     0.0322 H       
  24 H24           -2.4994     0.3879     0.0057 H       
  25 H25            3.3514    -2.2711    -0.0425 H       
  26 H26            3.3732    -4.7286    -0.0559 H       
  27 H27           -0.8988    -4.7868    -0.0156 H       
  28 H28           -0.9435    -2.3296     0.0092 H       
@<TRIPOS>BOND
   1    1    2 1
   2    1    4 2
   3    1    5 1
   4    2    3 2
   5    2   18 1
   6    3   11 1
   7    3   19 1
   8    5    6 ar
   9    5   10 ar
  10    6    7 ar
  11    6   20 1
  12    7    8 ar
  13    7   21 1
  14    8    9 ar
  15    8   22 1
  16    9   10 ar
  17    9   23 1
  18   10   24 1
  19   11   12 ar
  20   11   16 ar
  21   12   13 ar
  22   12   25 1
  23   13   14 ar
  24   13   26 1
  25   14   15 ar
  26   14   17 1
  27   15   16 ar
  28   15   27 1
  29   16   28 1

#	End of record

