#	Name: ASD01911347
#	Creating user name:	WinNT
#	Creation time:	15. 06. 2019 19:57

#	Modifying user name:	WinNT
#	Modification time:	15. 06. 2019 19:57

#	Program:	/corina/corina34_cracker 3.40 0067  02.08.2006

@<TRIPOS>MOLECULE
ASD01911347
  33   35    0    0    0
SMALL
NO_CHARGES


@<TRIPOS>ATOM
   1 C1            -0.0173     1.4278     0.0099 C.ar    
   2 C2             0.0021    -0.0041     0.0020 C.1     
   3 C3             0.0180    -1.1779    -0.0044 C.1     
   4 C4             0.0374    -2.6098    -0.0123 C.ar    
   5 N5            -1.1126    -3.2807    -0.0049 N.ar    
   6 C6            -1.1402    -4.5943    -0.0119 C.ar    
   7 C7             0.0524    -5.3255    -0.0284 C.ar    
   8 C8             1.2775    -4.6527    -0.0357 C.ar    
   9 C9             1.2642    -3.2815    -0.0334 C.ar    
  10 C10           -2.4508    -5.3379    -0.0012 C.3     
  11 C11           -2.3260    -6.6234    -0.8152 C.3     
  12 N12           -1.1661    -7.4029    -0.3911 N.am    
  13 C13           -0.0124    -6.7999    -0.0391 C.2     
  14 O14            0.9611    -7.4618     0.2649 O.2     
  15 C15           -1.2576    -8.8644    -0.3467 C.3     
  16 N16            1.1277     2.1034     0.0026 N.ar    
  17 C17            1.1517     3.4197     0.0094 C.ar    
  18 C18           -0.0219     4.1525     0.0246 C.ar    
  19 C19           -1.2408     3.4881     0.0326 C.ar    
  20 C20           -1.2395     2.1048     0.0194 C.ar    
  21 H21            2.2096    -5.1982    -0.0475 H       
  22 H22            2.1907    -2.7264    -0.0393 H       
  23 H23           -2.7188    -5.5845     1.0261 H       
  24 H24           -3.2276    -4.7085    -0.4355 H       
  25 H25           -3.2274    -7.2212    -0.6803 H       
  26 H26           -2.2204    -6.3701    -1.8701 H       
  27 H27           -0.9574    -9.2766    -1.3101 H       
  28 H28           -0.5986    -9.2462     0.4331 H       
  29 H29           -2.2848    -9.1577    -0.1302 H       
  30 H30            2.1009     3.9349     0.0035 H       
  31 H31            0.0100     5.2320     0.0304 H       
  32 H32           -2.1696     4.0391     0.0445 H       
  33 H33           -2.1697     1.5560     0.0248 H       
@<TRIPOS>BOND
   1    1    2 1
   2    1   16 ar
   3    1   20 ar
   4    2    3 3
   5    3    4 1
   6    4    5 ar
   7    4    9 ar
   8    5    6 ar
   9    6    7 ar
  10    6   10 1
  11    7    8 ar
  12    7   13 1
  13    8    9 ar
  14    8   21 1
  15    9   22 1
  16   10   11 1
  17   10   23 1
  18   10   24 1
  19   11   12 1
  20   11   25 1
  21   11   26 1
  22   12   13 am
  23   12   15 1
  24   13   14 2
  25   15   27 1
  26   15   28 1
  27   15   29 1
  28   16   17 ar
  29   17   18 ar
  30   17   30 1
  31   18   19 ar
  32   18   31 1
  33   19   20 ar
  34   19   32 1
  35   20   33 1

#	End of record

