#	Name: ASD03330825
#	Creating user name:	WinNT
#	Creation time:	15. 06. 2019 20:38

#	Modifying user name:	WinNT
#	Modification time:	15. 06. 2019 20:38

#	Program:	/corina/corina34_cracker 3.40 0067  02.08.2006

@<TRIPOS>MOLECULE
ASD03330825
  60   62    0    0    0
SMALL
NO_CHARGES


@<TRIPOS>ATOM
   1 C1            -0.0280     2.0960     1.9880 C.2     
   2 N2            -0.1482     0.8079     2.4055 N.pl3   
   3 C3             1.2523     2.2579     1.5526 C.2     
   4 N4             1.8878     1.0739     1.6917 N.2     
   5 C5             1.0533     0.1963     2.1975 C.2     
   6 C6             1.3638    -1.2196     2.4927 C.ar    
   7 C7             1.8394     3.5020     1.0243 C.2     
   8 O8             1.1621     4.5093     0.9476 O.2     
   9 N9             3.1268     3.5236     0.6262 N.am    
  10 C10           -1.3551     0.2113     2.9843 C.3     
  11 C11           -2.5636     0.5829     2.1193 C.3     
  12 C12           -3.1386     1.9175     2.5827 C.3     
  13 N13           -2.0810     2.8079     3.0651 N.3     
  14 C14           -1.1242     3.1296     1.9959 C.3     
  15 C15            1.0068    -1.7732     3.7221 C.ar    
  16 C16            1.2991    -3.0959     3.9915 C.ar    
  17 C17            1.9453    -3.8718     3.0443 C.ar    
  18 C18            2.3020    -3.3288     1.8232 C.ar    
  19 C19            2.0103    -2.0092     1.5395 C.ar    
  20 C20            3.7105     4.7604     0.1010 C.3     
  21 C21            5.2037     4.7366     0.3029 C.2     
  22 C22            3.3996     4.8770    -1.3925 C.3     
  23 C23            1.8863     4.8042    -1.6057 C.3     
  24 C24            3.9252     6.2135    -1.9201 C.3     
  25 C25            4.0765     3.7298    -2.1454 C.3     
  26 O26            5.7609     3.6969     0.5851 O.2     
  27 N27            5.9199     5.8705     0.1699 N.am    
  28 C28            7.3793     5.8338     0.2930 C.3     
  29 C29           -2.6481     4.0305     3.6495 C.3     
  30 Cl30           2.4582    -1.3296     0.0061 Cl      
  31 Cl31           0.8556    -3.7868     5.5211 Cl      
  32 H32            3.6670     2.7202     0.6874 H       
  33 H33           -1.2475    -0.8730     3.0135 H       
  34 H34           -1.5003     0.5913     3.9956 H       
  35 H35           -2.2525     0.6643     1.0778 H       
  36 H36           -3.3257    -0.1911     2.2097 H       
  37 H37           -3.6542     2.3937     1.7487 H       
  38 H38           -3.8513     1.7396     3.3879 H       
  39 H39           -0.6946     4.1151     2.1756 H       
  40 H40           -1.6371     3.1243     1.0341 H       
  41 H41            0.5033    -1.1687     4.4621 H       
  42 H42            2.1723    -4.9054     3.2600 H       
  43 H43            2.8063    -3.9392     1.0887 H       
  44 H44            3.2861     5.6149     0.6282 H       
  45 H45            1.4041     5.6214    -1.0693 H       
  46 H46            1.6648     4.8872    -2.6697 H       
  47 H47            1.5118     3.8520    -1.2299 H       
  48 H48            4.9743     6.3251    -1.6459 H       
  49 H49            3.8286     6.2390    -3.0055 H       
  50 H50            3.3472     7.0286    -1.4846 H       
  51 H51            3.7020     2.7777    -1.7696 H       
  52 H52            3.8550     3.8129    -3.2094 H       
  53 H53            5.1546     3.7817    -1.9935 H       
  54 H54            5.4691     6.7109    -0.0072 H       
  55 H55            7.7808     6.8379     0.1566 H       
  56 H56            7.6514     5.4649     1.2819 H       
  57 H57            7.7915     5.1712    -0.4680 H       
  58 H58           -3.2928     3.7673     4.4880 H       
  59 H59           -1.8410     4.6740     3.9998 H       
  60 H60           -3.2312     4.5576     2.8944 H       
@<TRIPOS>BOND
   1    1    2 1
   2    1    3 2
   3    1   14 1
   4    2   10 1
   5    2    5 1
   6    3    4 1
   7    3    7 1
   8    4    5 2
   9    5    6 1
  10    6   15 ar
  11    6   19 ar
  12    7    8 2
  13    7    9 am
  14    9   20 1
  15    9   32 1
  16   10   11 1
  17   10   33 1
  18   10   34 1
  19   11   12 1
  20   11   35 1
  21   11   36 1
  22   12   13 1
  23   12   37 1
  24   12   38 1
  25   13   14 1
  26   13   29 1
  27   14   39 1
  28   14   40 1
  29   15   16 ar
  30   15   41 1
  31   16   17 ar
  32   16   31 1
  33   17   18 ar
  34   17   42 1
  35   18   19 ar
  36   18   43 1
  37   19   30 1
  38   20   21 1
  39   20   22 1
  40   20   44 1
  41   21   26 2
  42   21   27 am
  43   22   23 1
  44   22   24 1
  45   22   25 1
  46   23   45 1
  47   23   46 1
  48   23   47 1
  49   24   48 1
  50   24   49 1
  51   24   50 1
  52   25   51 1
  53   25   52 1
  54   25   53 1
  55   27   28 1
  56   27   54 1
  57   28   55 1
  58   28   56 1
  59   28   57 1
  60   29   58 1
  61   29   59 1
  62   29   60 1

#	End of record

