#	Name: ASD01916505
#	Creating user name:	WinNT
#	Creation time:	15. 06. 2019 20:07

#	Modifying user name:	WinNT
#	Modification time:	15. 06. 2019 20:07

#	Program:	/corina/corina34_cracker 3.40 0067  02.08.2006

@<TRIPOS>MOLECULE
ASD01916505
  44   47    0    0    0
SMALL
NO_CHARGES


@<TRIPOS>ATOM
   1 C1            -0.0171     1.4104     0.0098 C.ar    
   2 C2             0.0021    -0.0041     0.0020 C.ar    
   3 C3            -1.1933    -0.7261     0.0476 C.ar    
   4 C4            -2.3876    -0.0613     0.0768 C.ar    
   5 C5            -2.4223     1.3402     0.0641 C.ar    
   6 C6            -1.2399     2.0768     0.0340 C.ar    
   7 N7             1.1602     2.0756     0.0021 N.2     
   8 C8             2.3196     1.4673    -0.0427 C.2     
   9 N9             2.4186     0.1193    -0.1640 N.am    
  10 C10            1.3086    -0.6627    -0.0679 C.2     
  11 C11           -3.6826     2.0199     0.0825 C.1     
  12 C12           -4.7158     2.5772     0.0977 C.1     
  13 C13           -5.9761     3.2569     0.1161 C.ar    
  14 N14           -6.0094     4.5859     0.1041 N.ar    
  15 C15           -7.1480     5.2474     0.1199 C.ar    
  16 C16           -8.3585     4.5787     0.1498 C.ar    
  17 C17           -8.3709     3.1905     0.1633 C.ar    
  18 C18           -7.1621     2.5186     0.1409 C.ar    
  19 O19            1.3993    -1.8765    -0.0404 O.2     
  20 C20            3.5365     2.3433     0.0999 C.3     
  21 C21            4.7916     1.6914    -0.4366 C.3     
  22 C22            4.8953     0.2335    -0.0378 C.3     
  23 C23            3.6770    -0.5621    -0.4482 C.3     
  24 C24            4.7880     1.7893    -1.9635 C.3     
  25 C25            6.0106     2.4418     0.1037 C.3     
  26 F26           -1.1690    -2.0768     0.0623 F       
  27 H27           -3.3113    -0.6200     0.1096 H       
  28 H28           -1.2713     3.1563     0.0289 H       
  29 H29           -7.1364     6.3273     0.1097 H       
  30 H30           -9.2860     5.1318     0.1629 H       
  31 H31           -9.3039     2.6471     0.1867 H       
  32 H32           -7.1352     1.4389     0.1506 H       
  33 H33            3.3651     3.2744    -0.4403 H       
  34 H34            3.6829     2.5731     1.1553 H       
  35 H35            5.7763    -0.2003    -0.5107 H       
  36 H36            5.0102     0.1706     1.0443 H       
  37 H37            3.6864    -1.5144     0.0819 H       
  38 H38            3.7332    -0.7603    -1.5186 H       
  39 H39            4.7620     2.8378    -2.2603 H       
  40 H40            5.6894     1.3218    -2.3596 H       
  41 H41            3.9100     1.2781    -2.3583 H       
  42 H42            6.0102     2.3990     1.1928 H       
  43 H43            6.9207     1.9789    -0.2778 H       
  44 H44            5.9692     3.4821    -0.2190 H       
@<TRIPOS>BOND
   1    1    2 ar
   2    1    7 1
   3    1    6 ar
   4    2    3 ar
   5    2   10 1
   6    3    4 ar
   7    3   26 1
   8    4    5 ar
   9    4   27 1
  10    5    6 ar
  11    5   11 1
  12    6   28 1
  13    7    8 2
  14    8    9 1
  15    8   20 1
  16    9   10 am
  17    9   23 1
  18   10   19 2
  19   11   12 3
  20   12   13 1
  21   13   14 ar
  22   13   18 ar
  23   14   15 ar
  24   15   16 ar
  25   15   29 1
  26   16   17 ar
  27   16   30 1
  28   17   18 ar
  29   17   31 1
  30   18   32 1
  31   20   21 1
  32   20   33 1
  33   20   34 1
  34   21   22 1
  35   21   24 1
  36   21   25 1
  37   22   23 1
  38   22   35 1
  39   22   36 1
  40   23   37 1
  41   23   38 1
  42   24   39 1
  43   24   40 1
  44   24   41 1
  45   25   42 1
  46   25   43 1
  47   25   44 1

#	End of record

