#	Name: ASD01914987
#	Creating user name:	WinNT
#	Creation time:	15. 06. 2019 20:04

#	Modifying user name:	WinNT
#	Modification time:	15. 06. 2019 20:04

#	Program:	/corina/corina34_cracker 3.40 0067  02.08.2006

@<TRIPOS>MOLECULE
ASD01914987
  51   53    0    0    0
SMALL
NO_CHARGES


@<TRIPOS>ATOM
   1 C1             0.0573     1.6190     0.4803 C.ar    
   2 C2             0.0730     0.2508     0.6966 C.ar    
   3 C3             1.2810    -0.3825     0.9291 C.ar    
   4 N4             2.4151     0.2917     0.9563 N.ar    
   5 C5             2.4515     1.5940     0.7645 C.ar    
   6 C6             1.2754     2.3002     0.5083 C.ar    
   7 C7             3.7567     2.3440     0.8399 C.3     
   8 C8             3.7467     3.5140    -0.1403 C.3     
   9 N9             2.5428     4.3257     0.0241 N.am    
  10 C10            1.3451     3.7528     0.2517 C.2     
  11 O11            0.3321     4.4245     0.2454 O.2     
  12 C12            1.3020    -1.8721     1.1562 C.3     
  13 O13           -0.0302    -2.3840     1.0826 O.3     
  14 C14           -0.1883    -3.7212     1.2664 C.ar    
  15 C15           -1.4543    -4.2856     1.2082 C.ar    
  16 C16           -1.6125    -5.6452     1.3955 C.ar    
  17 C17           -0.5103    -6.4432     1.6409 C.ar    
  18 C18            0.7524    -5.8830     1.6999 C.ar    
  19 C19            0.9165    -4.5250     1.5071 C.ar    
  20 C20            2.6401     5.7851    -0.0593 C.3     
  21 C21            3.0514     6.1886    -1.4767 C.3     
  22 C22            3.6880     6.2842     0.9374 C.3     
  23 C23            2.0898     5.5579    -2.4858 C.3     
  24 C24            3.0013     7.7122    -1.6080 C.3     
  25 C25            4.4744     5.6993    -1.7536 C.3     
  26 H26           -0.8685     2.1420     0.2914 H       
  27 H27           -0.8469    -0.3149     0.6842 H       
  28 H28            3.8985     2.7219     1.8524 H       
  29 H29            4.5759     1.6699     0.5897 H       
  30 H30            4.6244     4.1358     0.0357 H       
  31 H31            3.7814     3.1277    -1.1590 H       
  32 H32            1.9167    -2.3476     0.3920 H       
  33 H33            1.7185    -2.0836     2.1411 H       
  34 H34           -2.3155    -3.6627     1.0169 H       
  35 H35           -2.5978    -6.0850     1.3506 H       
  36 H36           -0.6360    -7.5059     1.7870 H       
  37 H37            1.6116    -6.5084     1.8924 H       
  38 H38            1.9030    -4.0879     1.5533 H       
  39 H39            1.6728     6.2278     0.1782 H       
  40 H40            3.3950     5.9968     1.9472 H       
  41 H41            4.6553     5.8415     0.6999 H       
  42 H42            3.7604     7.3701     0.8753 H       
  43 H43            1.0760     5.9065    -2.2886 H       
  44 H44            2.3828     5.8454    -3.4956 H       
  45 H45            2.1254     4.4725    -2.3923 H       
  46 H46            3.6864     8.1615    -0.8890 H       
  47 H47            3.2944     7.9996    -2.6177 H       
  48 H48            1.9876     8.0607    -1.4107 H       
  49 H49            4.4931     4.6096    -1.7393 H       
  50 H50            4.7971     6.0555    -2.7319 H       
  51 H51            5.1466     6.0843    -0.9868 H       
@<TRIPOS>BOND
   1    1    2 ar
   2    1    6 ar
   3    1   26 1
   4    2    3 ar
   5    2   27 1
   6    3    4 ar
   7    3   12 1
   8    4    5 ar
   9    5    6 ar
  10    5    7 1
  11    6   10 1
  12    7    8 1
  13    7   28 1
  14    7   29 1
  15    8    9 1
  16    8   30 1
  17    8   31 1
  18    9   10 am
  19    9   20 1
  20   10   11 2
  21   12   13 1
  22   12   32 1
  23   12   33 1
  24   13   14 1
  25   14   15 ar
  26   14   19 ar
  27   15   16 ar
  28   15   34 1
  29   16   17 ar
  30   16   35 1
  31   17   18 ar
  32   17   36 1
  33   18   19 ar
  34   18   37 1
  35   19   38 1
  36   20   21 1
  37   20   22 1
  38   20   39 1
  39   21   23 1
  40   21   24 1
  41   21   25 1
  42   22   40 1
  43   22   41 1
  44   22   42 1
  45   23   43 1
  46   23   44 1
  47   23   45 1
  48   24   46 1
  49   24   47 1
  50   24   48 1
  51   25   49 1
  52   25   50 1
  53   25   51 1

#	End of record

