#	Name: ASD02190004
#	Creating user name:	WinNT
#	Creation time:	15. 06. 2019 20:18

#	Modifying user name:	WinNT
#	Modification time:	15. 06. 2019 20:18

#	Program:	/corina/corina34_cracker 3.40 0067  02.08.2006

@<TRIPOS>MOLECULE
ASD02190004
  41   43    0    0    0
SMALL
NO_CHARGES


@<TRIPOS>ATOM
   1 C1            -0.0167     1.3812     0.0096 C.ar    
   2 C2             0.0021    -0.0041     0.0020 C.ar    
   3 C3             1.2247    -0.6821    -0.0133 C.ar    
   4 C4             2.4162     0.0429    -0.0209 C.ar    
   5 C5             2.3816     1.4254    -0.0131 C.ar    
   6 C6             1.1695     2.0911     0.0021 C.ar    
   7 C7             1.2545    -2.1648    -0.0211 C.ar    
   8 C8             0.7486    -2.8688    -1.1122 C.ar    
   9 C9             0.7794    -4.2487    -1.1141 C.ar    
  10 C10            1.3110    -4.9327    -0.0360 C.ar    
  11 C11            1.8142    -4.2390     1.0501 C.ar    
  12 C12            1.7939    -2.8593     1.0604 C.ar    
  13 O13           -1.1637    -0.7014     0.0099 O.3     
  14 C14           -2.3739     0.0583     0.0260 C.3     
  15 C15            3.6689     2.2090    -0.0208 C.3     
  16 C16            4.1493     2.3720    -1.4398 C.ar    
  17 C17            3.7483     3.4663    -2.1833 C.ar    
  18 C18            4.1886     3.6171    -3.4846 C.ar    
  19 C19            5.0317     2.6717    -4.0435 C.ar    
  20 C20            5.4326     1.5761    -3.2979 C.ar    
  21 C21            4.9953     1.4301    -1.9951 C.ar    
  22 F22            5.4624     2.8178    -5.3157 F       
  23 F23            3.6020    -0.6043    -0.0353 F       
  24 N24            2.3807    -4.9781     2.2006 N.pl3   
  25 O25            2.4035    -6.1959     2.1907 O.2     
  26 O26            2.8240    -4.3686     3.1574 O.2     
  27 H27           -0.9598     1.9075     0.0170 H       
  28 H28            1.1496     3.1709     0.0078 H       
  29 H29            0.3329    -2.3357    -1.9544 H       
  30 H30            0.3873    -4.7954    -1.9590 H       
  31 H31            1.3331    -6.0125    -0.0418 H       
  32 H32            2.1870    -2.3188     1.9088 H       
  33 H33           -3.2280    -0.6190     0.0309 H       
  34 H34           -2.3996     0.6819     0.9197 H       
  35 H35           -2.4174     0.6914    -0.8602 H       
  36 H36            3.4990     3.1911     0.4204 H       
  37 H37            4.4223     1.6757     0.5589 H       
  38 H38            3.0904     4.2034    -1.7472 H       
  39 H39            3.8749     4.4719    -4.0654 H       
  40 H40            6.0902     0.8380    -3.7329 H       
  41 H41            5.3079     0.5756    -1.4133 H       
@<TRIPOS>BOND
   1    1    2 ar
   2    1    6 ar
   3    1   27 1
   4    2    3 ar
   5    2   13 1
   6    3    4 ar
   7    3    7 1
   8    4    5 ar
   9    4   23 1
  10    5    6 ar
  11    5   15 1
  12    6   28 1
  13    7    8 ar
  14    7   12 ar
  15    8    9 ar
  16    8   29 1
  17    9   10 ar
  18    9   30 1
  19   10   11 ar
  20   10   31 1
  21   11   12 ar
  22   11   24 1
  23   12   32 1
  24   13   14 1
  25   14   33 1
  26   14   34 1
  27   14   35 1
  28   15   16 1
  29   15   36 1
  30   15   37 1
  31   16   17 ar
  32   16   21 ar
  33   17   18 ar
  34   17   38 1
  35   18   19 ar
  36   18   39 1
  37   19   20 ar
  38   19   22 1
  39   20   21 ar
  40   20   40 1
  41   21   41 1
  42   24   25 2
  43   24   26 2

#	End of record

