#	Name: ASD03331687
#	Creating user name:	WinNT
#	Creation time:	15. 06. 2019 20:39

#	Modifying user name:	WinNT
#	Modification time:	15. 06. 2019 20:39

#	Program:	/corina/corina34_cracker 3.40 0067  02.08.2006

@<TRIPOS>MOLECULE
ASD03331687
  46   49    0    0    0
SMALL
NO_CHARGES


@<TRIPOS>ATOM
   1 C1             2.0460     0.2634    -0.4178 C.ar    
   2 C2             1.0344    -0.4382     0.2000 C.ar    
   3 C3             0.2379     0.1758     1.1581 C.ar    
   4 C4             0.4457     1.4926     1.5054 C.ar    
   5 C5             2.2687     1.5986    -0.0763 C.ar    
   6 C6             3.2260     2.6158    -0.5180 C.2     
   7 C7             1.4614     2.2195     0.8942 C.ar    
   8 N8             1.9061     3.5172     1.0221 N.pl3   
   9 C9             2.9573     3.7344     0.1738 C.2     
  10 S10            3.8294     5.2570     0.0131 S.o2    
  11 O11            3.1908     6.1792     0.8853 O.2     
  12 O12            5.2117     4.9383     0.0960 O.2     
  13 N13            3.5687     5.8111    -1.5255 N.am    
  14 C14            2.2170     6.1823    -1.9512 C.3     
  15 C15            2.3404     7.1934    -5.5830 C.ar    
  16 C16            2.2663     6.3973    -4.4528 C.ar    
  17 C17            2.2956     7.0097    -3.2083 C.ar    
  18 C18            2.3972     8.3868    -3.1324 C.ar    
  19 N19            2.4658     9.1211    -4.2239 N.ar    
  20 C20            2.4409     8.5745    -5.4326 C.ar    
  21 C21            2.5217     9.4413    -6.6338 C.ar    
  22 C22            2.6224    10.8241    -6.4928 C.ar    
  23 C23            2.6973    11.6257    -7.6138 C.ar    
  24 C24            2.6720    11.0591    -8.8754 C.ar    
  25 C25            2.5722     9.6871    -9.0212 C.ar    
  26 C26            2.5030     8.8754    -7.9071 C.ar    
  27 C27            4.3073     2.4398    -1.5528 C.3     
  28 Cl28           0.7529    -2.0986    -0.2215 Cl      
  29 H29            2.6664    -0.2182    -1.1592 H       
  30 H30           -0.5525    -0.3846     1.6353 H       
  31 H31           -0.1799     1.9600     2.2515 H       
  32 H32            1.5302     4.1782     1.6244 H       
  33 H33            4.3110     5.8900    -2.1449 H       
  34 H34            1.6367     5.2803    -2.1456 H       
  35 H35            1.7346     6.7620    -1.1642 H       
  36 H36            2.3248     6.7495    -6.5675 H       
  37 H37            2.1874     5.3235    -4.5380 H       
  38 H38            2.4202     8.8668    -2.1651 H       
  39 H39            2.6415    11.2676    -5.5083 H       
  40 H40            2.7753    12.6975    -7.5058 H       
  41 H41            2.7301    11.6902    -9.7499 H       
  42 H42            2.5529     9.2500   -10.0086 H       
  43 H43            2.4299     7.8040    -8.0220 H       
  44 H44            3.8923     2.6148    -2.5454 H       
  45 H45            5.1103     3.1522    -1.3640 H       
  46 H46            4.7014     1.4250    -1.4975 H       
@<TRIPOS>BOND
   1    1    2 ar
   2    1    5 ar
   3    1   29 1
   4    2    3 ar
   5    2   28 1
   6    3    4 ar
   7    3   30 1
   8    4    7 ar
   9    4   31 1
  10    5    7 ar
  11    5    6 1
  12    6    9 2
  13    6   27 1
  14    7    8 1
  15    8    9 1
  16    8   32 1
  17    9   10 1
  18   10   11 2
  19   10   12 2
  20   10   13 am
  21   13   14 1
  22   13   33 1
  23   14   17 1
  24   14   34 1
  25   14   35 1
  26   15   16 ar
  27   15   20 ar
  28   15   36 1
  29   16   17 ar
  30   16   37 1
  31   17   18 ar
  32   18   19 ar
  33   18   38 1
  34   19   20 ar
  35   20   21 1
  36   21   22 ar
  37   21   26 ar
  38   22   23 ar
  39   22   39 1
  40   23   24 ar
  41   23   40 1
  42   24   25 ar
  43   24   41 1
  44   25   26 ar
  45   25   42 1
  46   26   43 1
  47   27   44 1
  48   27   45 1
  49   27   46 1

#	End of record

