#	Name: ASD03082348
#	Creating user name:	WinNT
#	Creation time:	15. 06. 2019 20:27

#	Modifying user name:	WinNT
#	Modification time:	15. 06. 2019 20:27

#	Program:	/corina/corina34_cracker 3.40 0067  02.08.2006

@<TRIPOS>MOLECULE
ASD03082348
  46   48    0    0    0
SMALL
NO_CHARGES


@<TRIPOS>ATOM
   1 C1             2.6878     0.8936    -1.9429 C.ar    
   2 C2             2.6347    -0.3507    -1.3250 C.ar    
   3 C3             3.7784    -0.8867    -0.7485 C.ar    
   4 C4             4.9673    -0.1838    -0.7893 C.ar    
   5 C5             5.0206     1.0553    -1.4040 C.ar    
   6 C6             3.8826     1.5920    -1.9865 C.ar    
   7 F7             3.9366     2.8015    -2.5859 F       
   8 F8             6.1846     1.7401    -1.4417 F       
   9 N9             1.4296    -1.0619    -1.2837 N.pl3   
  10 C10            1.4113    -2.3801    -0.8167 C.2     
  11 C11            0.2644    -3.1676    -0.6164 C.2     
  12 N12            2.4624    -3.0974    -0.4951 N.2     
  13 N13            2.0200    -4.3586    -0.0757 N.pl3   
  14 C14            0.6641    -4.3757    -0.1600 C.2     
  15 C15            2.8309    -5.4149     0.3501 C.ar    
  16 C16            2.5808    -6.7208    -0.0664 C.ar    
  17 C17            3.9140    -5.1880     1.1977 C.ar    
  18 C18            4.6901    -6.2572     1.5948 C.ar    
  19 N19            4.4180    -7.4808     1.1821 N.ar    
  20 C20            3.4050    -7.7354     0.3761 C.ar    
  21 C21            5.8639    -6.0249     2.5110 C.3     
  22 H22            3.2160    -8.7513     0.0617 H       
  23 C23           -0.2336    -5.5336     0.1927 C.3     
  24 C24           -0.6337    -6.2760    -1.0840 C.3     
  25 C25           -1.4223    -7.5345    -0.7162 C.3     
  26 O26           -1.4459    -5.4249    -1.8952 O.3     
  27 C27           -1.7148    -8.3413    -1.9829 C.3     
  28 F28            1.5767     1.4180    -2.5047 F       
  29 H29            3.7387    -1.8530    -0.2678 H       
  30 H30            5.8564    -0.6017    -0.3406 H       
  31 H31            0.6074    -0.6405    -1.5791 H       
  32 H32           -0.7558    -2.8616    -0.7951 H       
  33 H33            1.7532    -6.9361    -0.7261 H       
  34 H34            4.1426    -4.1890     1.5385 H       
  35 H35            5.5376    -6.1081     3.5476 H       
  36 H36            6.6337    -6.7702     2.3114 H       
  37 H37            6.2692    -5.0282     2.3365 H       
  38 H38            0.2967    -6.2149     0.8581 H       
  39 H39           -1.1281    -5.1611     0.6918 H       
  40 H40            0.2627    -6.5574    -1.6366 H       
  41 H41           -0.8366    -8.1415    -0.0259 H       
  42 H42           -2.3614    -7.2492    -0.2422 H       
  43 H43           -2.2624    -5.1348    -1.4660 H       
  44 H44           -0.7756    -8.6266    -2.4569 H       
  45 H45           -2.2766    -9.2379    -1.7209 H       
  46 H46           -2.3005    -7.7343    -2.6732 H       
@<TRIPOS>BOND
   1    1    2 ar
   2    1   28 1
   3    1    6 ar
   4    2    3 ar
   5    2    9 1
   6    3    4 ar
   7    3   29 1
   8    4    5 ar
   9    4   30 1
  10    5    6 ar
  11    5    8 1
  12    6    7 1
  13    9   10 1
  14    9   31 1
  15   10   11 1
  16   10   12 2
  17   11   14 2
  18   11   32 1
  19   12   13 1
  20   13   14 1
  21   13   15 1
  22   14   23 1
  23   15   16 ar
  24   15   17 ar
  25   16   20 ar
  26   16   33 1
  27   17   18 ar
  28   17   34 1
  29   18   19 ar
  30   18   21 1
  31   19   20 ar
  32   20   22 1
  33   21   35 1
  34   21   36 1
  35   21   37 1
  36   23   24 1
  37   23   38 1
  38   23   39 1
  39   24   25 1
  40   24   26 1
  41   24   40 1
  42   25   27 1
  43   25   41 1
  44   25   42 1
  45   26   43 1
  46   27   44 1
  47   27   45 1
  48   27   46 1

#	End of record

