#	Name: ASD04880029
#	Creating user name:	WinNT
#	Creation time:	15. 06. 2019 20:52

#	Modifying user name:	WinNT
#	Modification time:	15. 06. 2019 20:52

#	Program:	/corina/corina34_cracker 3.40 0067  02.08.2006

@<TRIPOS>MOLECULE
ASD04880029
  37   39    0    0    0
SMALL
NO_CHARGES


@<TRIPOS>ATOM
   1 C1            -0.0144     1.2117     0.0087 C.2     
   2 O2             0.0436    -0.0026     0.0315 O.2     
   3 N3             1.1185     1.9395    -0.0483 N.am    
   4 N4             1.1860     3.3239    -0.1911 N.2     
   5 C5             2.3867     3.7923    -0.2192 C.2     
   6 C6             3.3751     2.6560    -0.0842 C.3     
   7 C7             2.4859     1.4026     0.0365 C.3     
   8 C8             2.7412     5.2150    -0.3618 C.ar    
   9 C9             1.7343     6.1785    -0.4795 C.ar    
  10 C10            2.0650     7.5024    -0.6117 C.ar    
  11 C11            3.4075     7.8891    -0.6293 C.ar    
  12 C12            4.4140     6.9271    -0.5123 C.ar    
  13 C13            4.0847     5.6034    -0.3738 C.ar    
  14 C14            3.7628     9.3152    -0.7722 C.2     
  15 C15            5.0377     9.6828    -0.7891 C.2     
  16 C16           -1.3275     1.8894     0.0373 C.ar    
  17 C17           -2.5036     1.1430    -0.0542 C.ar    
  18 C18           -3.7276     1.7831    -0.0263 C.ar    
  19 C19           -3.7878     3.1628     0.0918 C.ar    
  20 C20           -2.6251     3.9063     0.1823 C.ar    
  21 C21           -1.3968     3.2780     0.1618 C.ar    
  22 F22           -4.8674     1.0633    -0.1146 F       
  23 H23            4.0101     2.5946    -0.9680 H       
  24 H24            3.9796     2.7799     0.8143 H       
  25 H25            2.6451     0.9082     0.9947 H       
  26 H26            2.6801     0.7159    -0.7875 H       
  27 H27            0.6966     5.8796    -0.4665 H       
  28 H28            1.2875     8.2465    -0.7025 H       
  29 H29            5.4515     7.2266    -0.5268 H       
  30 H30            4.8626     4.8603    -0.2789 H       
  31 H31            2.9851    10.0590    -0.8631 H       
  32 H32            5.2975    10.7258    -0.8936 H       
  33 H33            5.8154     8.9390    -0.6982 H       
  34 H34           -2.4567     0.0680    -0.1469 H       
  35 H35           -4.7467     3.6594     0.1129 H       
  36 H36           -2.6788     4.9810     0.2738 H       
  37 H37           -0.4903     3.8601     0.2375 H       
@<TRIPOS>BOND
   1    1    2 2
   2    1    3 am
   3    1   16 1
   4    3    4 1
   5    3    7 1
   6    4    5 2
   7    5    6 1
   8    5    8 1
   9    6    7 1
  10    6   23 1
  11    6   24 1
  12    7   25 1
  13    7   26 1
  14    8    9 ar
  15    8   13 ar
  16    9   10 ar
  17    9   27 1
  18   10   11 ar
  19   10   28 1
  20   11   12 ar
  21   11   14 1
  22   12   13 ar
  23   12   29 1
  24   13   30 1
  25   14   15 2
  26   14   31 1
  27   15   32 1
  28   15   33 1
  29   16   17 ar
  30   16   21 ar
  31   17   18 ar
  32   17   34 1
  33   18   19 ar
  34   18   22 1
  35   19   20 ar
  36   19   35 1
  37   20   21 ar
  38   20   36 1
  39   21   37 1

#	End of record

