#	Name: ASD02560197
#	Creating user name:	WinNT
#	Creation time:	15. 06. 2019 20:24

#	Modifying user name:	WinNT
#	Modification time:	15. 06. 2019 20:24

#	Program:	/corina/corina34_cracker 3.40 0067  02.08.2006

@<TRIPOS>MOLECULE
ASD02560197
  70   74    0    0    0
SMALL
NO_CHARGES


@<TRIPOS>ATOM
   1 O1             1.5227     1.6474     1.0868 O.3     
   2 Br2            2.6593   -15.7780    -0.6552 Br      
   3 N3             0.6373   -14.0205     0.2698 N.2     
   4 N4             1.0027   -13.2647     1.1756 N.2     
   5 C5             1.6454   -14.0994    -0.7953 C.3     
   6 N6             2.5369   -12.9357    -0.5596 N.3     
   7 C7             2.3251   -12.6933     0.8899 C.3     
   8 S8             2.3335   -10.9136     1.2406 S.3     
   9 C9             0.9589   -10.2926     0.2329 C.3     
  10 C10            0.8336    -8.8023     0.4181 C.2     
  11 O11            1.5964    -8.2167     1.1570 O.2     
  12 N12           -0.1262    -8.1201    -0.2376 N.am    
  13 C13            3.8653   -13.2631    -0.8222 C.ar    
  14 C14           -0.2851    -6.7522    -0.0155 C.ar    
  15 C15           -1.5470    -6.1731    -0.1213 C.ar    
  16 C16           -1.7068    -4.8225     0.0975 C.ar    
  17 C17           -0.6004    -4.0340     0.4258 C.ar    
  18 C18            0.6641    -4.6188     0.5309 C.ar    
  19 C19            0.8162    -5.9707     0.3166 C.ar    
  20 Cl20          -2.9200    -7.1539    -0.5298 Cl      
  21 C21           -0.7675    -2.5864     0.6605 C.2     
  22 C22            4.2521   -13.6908    -2.1104 C.ar    
  23 C23            4.8153   -13.1669     0.1726 C.ar    
  24 C24            6.1446   -13.4916    -0.0794 C.ar    
  25 C25            6.5444   -13.9119    -1.3115 C.ar    
  26 C26            5.6086   -14.0186    -2.3543 C.ar    
  27 C27            3.3188   -13.7978    -3.1532 C.ar    
  28 C28            5.9928   -14.4502    -3.6359 C.ar    
  29 C29            5.0604   -14.5426    -4.6230 C.ar    
  30 C30            3.7274   -14.2144    -4.3835 C.ar    
  31 C31            7.9905   -14.2568    -1.5579 C.3     
  32 N32            0.3003    -1.8274     0.9769 N.am    
  33 O33           -1.8684    -2.0787     0.5682 O.2     
  34 C34            0.1345    -0.3905     1.2099 C.3     
  35 C35            1.4374     0.3162     0.9377 C.2     
  36 O36            2.4052    -0.3156     0.5854 O.2     
  37 C37           -0.2801    -0.1540     2.6635 C.3     
  38 C38           -0.4533     1.3466     2.9068 C.3     
  39 C39           -1.6029    -0.8715     2.9398 C.3     
  40 C40            9.0272   -13.1530    -1.3393 C.3     
  41 C41            8.9207   -14.3104    -0.3443 C.3     
  42 H42            2.3792     2.0560     0.9006 H       
  43 H43            1.1709   -14.0221    -1.7735 H       
  44 H44            3.0921   -13.2001     1.4755 H       
  45 H45            1.1496   -10.5135    -0.8173 H       
  46 H46            0.0330   -10.7765     0.5437 H       
  47 H47           -0.7066    -8.5804    -0.8639 H       
  48 H48           -2.6855    -4.3734     0.0151 H       
  49 H49            1.5208    -4.0121     0.7844 H       
  50 H50            1.7936    -6.4230     0.3982 H       
  51 H51            4.5243   -12.8354     1.1584 H       
  52 H52            6.8714   -13.4086     0.7151 H       
  53 H53            2.2816   -13.5513    -2.9806 H       
  54 H54            7.0226   -14.7068    -3.8362 H       
  55 H55            5.3581   -14.8745    -5.6067 H       
  56 H56            3.0070   -14.2968    -5.1838 H       
  57 H57            8.1737   -14.9666    -2.3645 H       
  58 H58            1.1786    -2.2324     1.0505 H       
  59 H59           -0.6360    -0.0011     0.5444 H       
  60 H60            0.4904    -0.5434     3.3290 H       
  61 H61           -1.2237     1.7360     2.2413 H       
  62 H62           -0.7486     1.5151     3.9424 H       
  63 H63            0.4891     1.8577     2.7099 H       
  64 H64           -1.4795    -1.9405     2.7665 H       
  65 H65           -1.8982    -0.7030     3.9754 H       
  66 H66           -2.3733    -0.4821     2.2743 H       
  67 H67            9.8926   -13.1369    -2.0018 H       
  68 H68            8.6632   -12.1773    -1.0172 H       
  69 H69            8.4867   -14.0962     0.6323 H       
  70 H70            9.7160   -15.0557    -0.3523 H       
@<TRIPOS>BOND
   1    1   35 1
   2    1   42 1
   3    2    5 1
   4    3    4 2
   5    3    5 1
   6    4    7 1
   7    5    6 1
   8    5   43 1
   9    6    7 1
  10    6   13 1
  11    7    8 1
  12    7   44 1
  13    8    9 1
  14    9   10 1
  15    9   45 1
  16    9   46 1
  17   10   11 2
  18   10   12 am
  19   12   14 1
  20   12   47 1
  21   13   22 ar
  22   13   23 ar
  23   14   15 ar
  24   14   19 ar
  25   15   16 ar
  26   15   20 1
  27   16   17 ar
  28   16   48 1
  29   17   18 ar
  30   17   21 1
  31   18   19 ar
  32   18   49 1
  33   19   50 1
  34   21   32 am
  35   21   33 2
  36   22   26 ar
  37   22   27 ar
  38   23   24 ar
  39   23   51 1
  40   24   25 ar
  41   24   52 1
  42   25   26 ar
  43   25   31 1
  44   26   28 ar
  45   27   30 ar
  46   27   53 1
  47   28   29 ar
  48   28   54 1
  49   29   30 ar
  50   29   55 1
  51   30   56 1
  52   31   40 1
  53   31   41 1
  54   31   57 1
  55   32   34 1
  56   32   58 1
  57   34   35 1
  58   34   37 1
  59   34   59 1
  60   35   36 2
  61   37   38 1
  62   37   39 1
  63   37   60 1
  64   38   61 1
  65   38   62 1
  66   38   63 1
  67   39   64 1
  68   39   65 1
  69   39   66 1
  70   40   41 1
  71   40   67 1
  72   40   68 1
  73   41   69 1
  74   41   70 1

#	End of record

