#	Name: ASD03091282
#	Creating user name:	WinNT
#	Creation time:	15. 06. 2019 20:30

#	Modifying user name:	WinNT
#	Modification time:	15. 06. 2019 20:30

#	Program:	/corina/corina34_cracker 3.40 0067  02.08.2006

@<TRIPOS>MOLECULE
ASD03091282
  61   66    0    0    0
SMALL
NO_CHARGES


@<TRIPOS>ATOM
   1 N1             0.0740     1.1952     0.5718 N.2     
   2 C2             0.0759    -0.0785     0.2760 C.2     
   3 N3             1.1634    -0.7214    -0.2512 N.am    
   4 C4             2.3091    -0.0427    -0.4931 C.2     
   5 C5             2.3297     1.3914    -0.1686 C.ar    
   6 C6             3.4610     2.1758    -0.3810 C.ar    
   7 C7             3.4247     3.5216    -0.0571 C.ar    
   8 C8             2.2672     4.0884     0.4769 C.ar    
   9 C9             1.1510     3.3323     0.6911 C.ar    
  10 C10            1.1594     1.9705     0.3733 C.ar    
  11 O11            3.2857    -0.5985    -0.9612 O.2     
  12 C12           -1.1535    -0.8609     0.5231 C.ar    
  13 C13           -1.8025    -0.7763     1.7563 C.ar    
  14 C14           -2.9493    -1.5091     1.9803 C.ar    
  15 C15           -3.4569    -2.3268     0.9860 C.ar    
  16 C16           -2.8188    -2.4152    -0.2383 C.ar    
  17 C17           -1.6740    -1.6831    -0.4774 C.ar    
  18 C18           -3.6509    -1.4194     3.3110 C.3     
  19 C19            1.0867    -2.1525    -0.5550 C.3     
  20 C20            1.4891    -2.4982    -1.9984 C.3     
  21 C21            2.2048    -3.7304    -1.4202 C.3     
  22 C22            2.3246    -2.9453    -0.1034 C.3     
  23 N23            6.8524     5.4442    -1.7559 N.3     
  24 C24            6.9726     4.3051    -0.8332 C.3     
  25 C25            5.6729     3.5172    -0.7803 C.3     
  26 N26            4.5547     4.3169    -0.2661 N.3     
  27 C27            4.2535     5.4313    -1.1756 C.3     
  28 C28            4.9829     6.6905    -0.7319 C.3     
  29 C29            6.4714     6.6544    -1.0135 C.3     
  30 C30            6.0434     5.2294    -2.9365 C.3     
  31 C31            4.5773     5.0139    -2.5985 C.3     
  32 H32            4.3580     1.7384    -0.7941 H       
  33 H33            2.2542     5.1395     0.7245 H       
  34 H34            0.2626     3.7852     1.1059 H       
  35 H35           -1.4072    -0.1387     2.5333 H       
  36 H36           -4.3550    -2.8988     1.1666 H       
  37 H37           -3.2201    -3.0553    -1.0101 H       
  38 H38           -1.1794    -1.7493    -1.4353 H       
  39 H39           -4.3878    -0.6169     3.2799 H       
  40 H40           -4.1515    -2.3643     3.5222 H       
  41 H41           -2.9209    -1.2122     4.0934 H       
  42 H42            0.1426    -2.6008    -0.2456 H       
  43 H43            0.6434    -2.7456    -2.6401 H       
  44 H44            2.1654    -1.7719    -2.4490 H       
  45 H45            1.5671    -4.6114    -1.3469 H       
  46 H46            3.1646    -3.9395    -1.8927 H       
  47 H47            3.2293    -2.3411    -0.0360 H       
  48 H48            2.1534    -3.5535     0.7847 H       
  49 H49            7.7755     3.6510    -1.1729 H       
  50 H50            7.2093     4.6747     0.1646 H       
  51 H51            5.4279     3.1725    -1.7849 H       
  52 H52            5.8122     2.6494    -0.1355 H       
  53 H53            3.1821     5.6258    -1.1272 H       
  54 H54            4.5499     7.5461    -1.2501 H       
  55 H55            4.8331     6.8219     0.3397 H       
  56 H56            7.0132     6.6771    -0.0680 H       
  57 H57            6.7442     7.5320    -1.5996 H       
  58 H58            6.1318     6.0984    -3.5885 H       
  59 H59            6.4166     4.3529    -3.4661 H       
  60 H60            4.3370     3.9579    -2.7213 H       
  61 H61            3.9656     5.5973    -3.2867 H       
@<TRIPOS>BOND
   1    1    2 2
   2    1   10 1
   3    2    3 1
   4    2   12 1
   5    3    4 am
   6    3   19 1
   7    4    5 1
   8    4   11 2
   9    5    6 ar
  10    5   10 ar
  11    6    7 ar
  12    6   32 1
  13    7    8 ar
  14    7   26 1
  15    8    9 ar
  16    8   33 1
  17    9   10 ar
  18    9   34 1
  19   12   13 ar
  20   12   17 ar
  21   13   14 ar
  22   13   35 1
  23   14   15 ar
  24   14   18 1
  25   15   16 ar
  26   15   36 1
  27   16   17 ar
  28   16   37 1
  29   17   38 1
  30   18   39 1
  31   18   40 1
  32   18   41 1
  33   19   20 1
  34   19   22 1
  35   19   42 1
  36   20   21 1
  37   20   43 1
  38   20   44 1
  39   21   22 1
  40   21   45 1
  41   21   46 1
  42   22   47 1
  43   22   48 1
  44   23   24 1
  45   23   29 1
  46   23   30 1
  47   24   25 1
  48   24   49 1
  49   24   50 1
  50   25   26 1
  51   25   51 1
  52   25   52 1
  53   26   27 1
  54   27   28 1
  55   27   31 1
  56   27   53 1
  57   28   29 1
  58   28   54 1
  59   28   55 1
  60   29   56 1
  61   29   57 1
  62   30   31 1
  63   30   58 1
  64   30   59 1
  65   31   60 1
  66   31   61 1

#	End of record

