#	Name: ASD01940338
#	Creating user name:	WinNT
#	Creation time:	15. 06. 2019 20:12

#	Modifying user name:	WinNT
#	Modification time:	15. 06. 2019 20:12

#	Program:	/corina/corina34_cracker 3.40 0067  02.08.2006

@<TRIPOS>MOLECULE
ASD01940338
  43   45    0    0    0
SMALL
NO_CHARGES


@<TRIPOS>ATOM
   1 C1            -3.6735     1.9045     0.9951 C.ar    
   2 C2            -4.8919     2.4888     0.6800 C.ar    
   3 C3            -6.0185     2.1856     1.4302 C.ar    
   4 C4            -5.9250     1.3029     2.4890 C.ar    
   5 C5            -4.7098     0.7224     2.8013 C.ar    
   6 C6            -3.5852     1.0227     2.0546 C.ar    
   7 S7            -2.2415     2.2815     0.0401 S.o2    
   8 O8            -2.1744     3.6986    -0.0403 O.2     
   9 O9            -1.1892     1.4819     0.5620 O.2     
  10 N10           -2.5220     1.7386    -1.4991 N.am    
  11 O11           -4.9812     3.3571    -0.3617 O.3     
  12 C12           -6.2855     3.8335    -0.6991 C.3     
  13 F13           -6.7948     4.5896     0.3620 F       
  14 F14           -6.2083     4.6316    -1.8455 F       
  15 F15           -7.1303     2.7457    -0.9443 F       
  16 C16           -2.6119     0.3631    -1.7514 C.ar    
  17 C17           -2.2122    -0.1482    -2.9855 C.ar    
  18 C18           -2.3031    -1.5117    -3.2298 C.ar    
  19 C19           -2.7903    -2.3597    -2.2475 C.ar    
  20 C20           -3.1868    -1.8495    -1.0235 C.ar    
  21 C21           -3.0932    -0.4926    -0.7724 C.ar    
  22 N22           -1.7205     0.7121    -3.9767 N.pl3   
  23 C23           -1.6757     0.2903    -5.3093 C.ar    
  24 C24           -2.8496     0.1948    -6.0503 C.ar    
  25 C25           -2.8008    -0.2221    -7.3673 C.ar    
  26 C26           -1.5865    -0.5443    -7.9476 C.ar    
  27 C27           -0.4188    -0.4504    -7.2128 C.ar    
  28 C28           -0.4594    -0.0285    -5.8976 C.ar    
  29 I29           -1.5171    -1.1764    -9.9438 I       
  30 F30           -4.0351     0.5085    -5.4834 F       
  31 F31           -2.8786    -3.6866    -2.4854 F       
  32 F32           -1.9174    -2.0117    -4.4242 F       
  33 H33           -6.9679     2.6394     1.1871 H       
  34 H34           -6.8019     1.0665     3.0735 H       
  35 H35           -4.6386     0.0333     3.6297 H       
  36 H36           -2.6371     0.5677     2.3003 H       
  37 H37           -2.6240     2.3727    -2.2260 H       
  38 H38           -3.5665    -2.5134    -0.2609 H       
  39 H39           -3.3990    -0.0987     0.1856 H       
  40 H40           -1.4113     1.6001    -3.7384 H       
  41 H41           -3.7111    -0.2968    -7.9438 H       
  42 H42            0.5270    -0.7034    -7.6688 H       
  43 H43            0.4539     0.0486    -5.3263 H       
@<TRIPOS>BOND
   1    1    2 ar
   2    1    6 ar
   3    1    7 1
   4    2    3 ar
   5    2   11 1
   6    3    4 ar
   7    3   33 1
   8    4    5 ar
   9    4   34 1
  10    5    6 ar
  11    5   35 1
  12    6   36 1
  13    7    8 2
  14    7    9 2
  15    7   10 am
  16   10   16 1
  17   10   37 1
  18   11   12 1
  19   12   13 1
  20   12   14 1
  21   12   15 1
  22   16   17 ar
  23   16   21 ar
  24   17   18 ar
  25   17   22 1
  26   18   19 ar
  27   18   32 1
  28   19   20 ar
  29   19   31 1
  30   20   21 ar
  31   20   38 1
  32   21   39 1
  33   22   23 1
  34   22   40 1
  35   23   24 ar
  36   23   28 ar
  37   24   25 ar
  38   24   30 1
  39   25   26 ar
  40   25   41 1
  41   26   27 ar
  42   26   29 1
  43   27   28 ar
  44   27   42 1
  45   28   43 1

#	End of record

