#	Name: ASD06170174
#	Creating user name:	WinNT
#	Creation time:	15. 06. 2019 21:05

#	Modifying user name:	WinNT
#	Modification time:	15. 06. 2019 21:05

#	Program:	/corina/corina34_cracker 3.40 0067  02.08.2006

@<TRIPOS>MOLECULE
ASD06170174
  72   76    0    0    0
SMALL
NO_CHARGES


@<TRIPOS>ATOM
   1 N1             0.5001     1.5440    -0.4227 N.pl3   
   2 N2             0.0856     0.2630    -0.0460 N.am    
   3 C3             1.1775    -0.5158     0.1009 C.2     
   4 C4             2.3404     0.3330    -0.2030 C.2     
   5 C5             1.8428     1.5829    -0.5154 C.2     
   6 C6             3.7520    -0.0696    -0.1788 C.2     
   7 O7             4.6198     0.7382    -0.4529 O.2     
   8 N8             4.0867    -1.3338     0.1470 N.am    
   9 C9            -0.3943     2.6745    -0.6839 C.3     
  10 C10           -0.5744     3.4892     0.5985 C.3     
  11 C11           -1.5084     4.6699     0.3257 C.3     
  12 C12           -1.2389    -0.1429     0.1470 C.ar    
  13 C13           -2.1961     0.1208    -0.8241 C.ar    
  14 C14           -3.5030    -0.2818    -0.6307 C.ar    
  15 C15           -3.8588    -0.9468     0.5283 C.ar    
  16 C16           -2.9082    -1.2105     1.4974 C.ar    
  17 C17           -1.5985    -0.8157     1.3076 C.ar    
  18 O18            1.1969    -1.6895     0.4217 O.2     
  19 C19            5.4953    -1.7355     0.1712 C.3     
  20 C20            5.6706    -2.9237     1.1190 C.3     
  21 C21            7.1418    -3.3433     1.1442 C.3     
  22 C22            7.5815    -3.7457    -0.2649 C.3     
  23 C23            7.4062    -2.5576    -1.2127 C.3     
  24 C24            5.9351    -2.1380    -1.2379 C.3     
  25 O25            8.9555    -4.1376    -0.2413 O.3     
  26 N26           10.1825    -6.7606    -3.1782 N.ar    
  27 C27            8.9640    -6.2735    -3.1952 C.ar    
  28 C28            8.5159    -5.3876    -2.2237 C.ar    
  29 C29            9.3661    -5.0004    -1.2032 C.ar    
  30 C30           10.6757    -5.5314    -1.1943 C.ar    
  31 C31           11.5940    -5.1857    -0.1920 C.ar    
  32 C32           12.8478    -5.7143    -0.2106 C.ar    
  33 C33           13.2352    -6.6010    -1.2194 C.ar    
  34 C34           12.3572    -6.9597    -2.2170 C.ar    
  35 C35           11.0574    -6.4288    -2.2214 C.ar    
  36 O36           14.4928    -7.1143    -1.2155 O.3     
  37 C37           15.3577    -6.7039    -0.1546 C.3     
  38 C38            2.6644     2.7876    -0.8960 C.3     
  39 H39            3.3949    -1.9777     0.3655 H       
  40 H40            0.0374     3.3077    -1.4590 H       
  41 H41           -1.3631     2.3020    -1.0168 H       
  42 H42           -1.0061     2.8560     1.3736 H       
  43 H43            0.3944     3.8617     0.9315 H       
  44 H44           -1.6368     5.2504     1.2394 H       
  45 H45           -1.0767     5.3032    -0.4494 H       
  46 H46           -2.4772     4.2975    -0.0072 H       
  47 H47           -1.9189     0.6405    -1.7294 H       
  48 H48           -4.2479    -0.0766    -1.3853 H       
  49 H49           -4.8815    -1.2605     0.6772 H       
  50 H50           -3.1894    -1.7298     2.4017 H       
  51 H51           -0.8556    -1.0259     2.0628 H       
  52 H52            6.1052    -0.9012     0.5177 H       
  53 H53            5.3573    -2.6370     2.1229 H       
  54 H54            5.0607    -3.7580     0.7725 H       
  55 H55            7.7516    -2.5090     1.4908 H       
  56 H56            7.2666    -4.1897     1.8195 H       
  57 H57            6.9716    -4.5800    -0.6114 H       
  58 H58            8.0161    -1.7233    -0.8662 H       
  59 H59            7.7195    -2.8443    -2.2166 H       
  60 H60            5.3252    -2.9723    -1.5845 H       
  61 H61            5.8102    -1.2915    -1.9132 H       
  62 H62            8.2914    -6.5690    -3.9868 H       
  63 H63            7.5075    -5.0029    -2.2645 H       
  64 H64           11.3067    -4.5014     0.5926 H       
  65 H65           13.5519    -5.4453     0.5629 H       
  66 H66           12.6664    -7.6452    -2.9921 H       
  67 H67           15.4832    -5.6216    -0.1861 H       
  68 H68           14.9211    -6.9913     0.8019 H       
  69 H69           16.3286    -7.1857    -0.2703 H       
  70 H70            2.9229     3.3494     0.0015 H       
  71 H71            3.5765     2.4620    -1.3962 H       
  72 H72            2.0880     3.4227    -1.5687 H       
@<TRIPOS>BOND
   1    1    2 1
   2    1    5 1
   3    1    9 1
   4    2    3 am
   5    2   12 1
   6    3    4 1
   7    3   18 2
   8    4    5 2
   9    4    6 1
  10    5   38 1
  11    6    7 2
  12    6    8 am
  13    8   19 1
  14    8   39 1
  15    9   10 1
  16    9   40 1
  17    9   41 1
  18   10   11 1
  19   10   42 1
  20   10   43 1
  21   11   44 1
  22   11   45 1
  23   11   46 1
  24   12   13 ar
  25   12   17 ar
  26   13   14 ar
  27   13   47 1
  28   14   15 ar
  29   14   48 1
  30   15   16 ar
  31   15   49 1
  32   16   17 ar
  33   16   50 1
  34   17   51 1
  35   19   20 1
  36   19   24 1
  37   19   52 1
  38   20   21 1
  39   20   53 1
  40   20   54 1
  41   21   22 1
  42   21   55 1
  43   21   56 1
  44   22   23 1
  45   22   25 1
  46   22   57 1
  47   23   24 1
  48   23   58 1
  49   23   59 1
  50   24   60 1
  51   24   61 1
  52   25   29 1
  53   26   27 ar
  54   26   35 ar
  55   27   28 ar
  56   27   62 1
  57   28   29 ar
  58   28   63 1
  59   29   30 ar
  60   30   31 ar
  61   30   35 ar
  62   31   32 ar
  63   31   64 1
  64   32   33 ar
  65   32   65 1
  66   33   34 ar
  67   33   36 1
  68   34   35 ar
  69   34   66 1
  70   36   37 1
  71   37   67 1
  72   37   68 1
  73   37   69 1
  74   38   70 1
  75   38   71 1
  76   38   72 1

#	End of record

