#	Name: ASD02210007
#	Creating user name:	WinNT
#	Creation time:	15. 06. 2019 20:20

#	Modifying user name:	WinNT
#	Modification time:	15. 06. 2019 20:20

#	Program:	/corina/corina34_cracker 3.40 0067  02.08.2006

@<TRIPOS>MOLECULE
ASD02210007
  14   13    0    0    0
SMALL
NO_CHARGES


@<TRIPOS>ATOM
   1 C1            -0.0184     1.5028     0.0103 C.2     
   2 N2            -1.3527    -0.5135     0.2527 N.3     
   3 C3             0.0021    -0.0041     0.0020 C.3     
   4 C4             0.4893    -0.5000    -1.3609 C.3     
   5 C5             0.6271    -2.0004    -1.3296 C.2     
   6 O6             0.3602    -2.6160    -0.3116 O.co2   
   7 O7             1.0053    -2.5987    -2.3223 O.co2   
   8 O8             1.0291     2.1267     0.0037 O.co2   
   9 O9            -1.0824     2.0980     0.0186 O.co2   
  10 H10           -1.6722    -0.2535     1.1738 H       
  11 H11           -1.9959    -0.1948    -0.4564 H       
  12 H12            0.6750    -0.3626     0.7809 H       
  13 H13           -0.2304    -0.2172    -2.1290 H       
  14 H14            1.4566    -0.0510    -1.5863 H       
@<TRIPOS>BOND
   1    1    3 1
   2    1    8 ar
   3    1    9 ar
   4    2    3 1
   5    2   10 1
   6    2   11 1
   7    3    4 1
   8    3   12 1
   9    4    5 1
  10    4   13 1
  11    4   14 1
  12    5    6 ar
  13    5    7 ar

#	End of record

