#	Name: ASD02198480
#	Creating user name:	WinNT
#	Creation time:	15. 06. 2019 20:19

#	Modifying user name:	WinNT
#	Modification time:	15. 06. 2019 20:19

#	Program:	/corina/corina34_cracker 3.40 0067  02.08.2006

@<TRIPOS>MOLECULE
ASD02198480
  38   41    0    0    0
SMALL
NO_CHARGES


@<TRIPOS>ATOM
   1 C1             0.0832     1.0107    -0.1353 C.2     
   2 C2             0.3420    -0.3184    -0.2209 C.2     
   3 N3             1.6136    -0.7783    -0.2229 N.pl3   
   4 N4             2.6391    -0.0131    -0.1457 N.2     
   5 C5             2.5301     1.2950    -0.0581 C.2     
   6 C6             1.1858     1.8944    -0.0486 C.2     
   7 C7             1.8204    -2.1590    -0.3132 C.ar    
   8 C8             3.3074    -4.0239    -0.5635 C.ar    
   9 C9             2.2293    -4.8906    -0.4930 C.ar    
  10 C10            0.9464    -4.3922    -0.3379 C.ar    
  11 C11            0.7400    -3.0300    -0.2481 C.ar    
  12 C12            3.7340     2.1461     0.0297 C.2     
  13 N13            4.8699     1.8753     0.7396 N.pl3   
  14 N14            5.7576     2.9413     0.5473 N.2     
  15 C15            5.1939     3.8215    -0.2411 C.2     
  16 C16            3.9257     3.3598    -0.5934 C.2     
  17 C17            5.1042     0.7360     1.5201 C.ar    
  18 C18            4.1037     0.2406     2.3459 C.ar    
  19 O19            1.0281     3.1035     0.0306 O.2     
  20 C20            3.1058    -2.6609    -0.4740 C.ar    
  21 C21            6.3355     0.0962     1.4653 C.ar    
  22 C22            6.5633    -1.0269     2.2361 C.ar    
  23 C23            5.5669    -1.5145     3.0618 C.ar    
  24 C24            4.3378    -0.8829     3.1142 C.ar    
  25 F25            2.4289    -6.2239    -0.5812 F       
  26 H26           -0.9307     1.3826    -0.1378 H       
  27 H27           -0.4781    -1.0180    -0.2880 H       
  28 H28            4.3070    -4.4146    -0.6844 H       
  29 H29            0.1071    -5.0698    -0.2836 H       
  30 H30           -0.2605    -2.6418    -0.1268 H       
  31 H31            5.6389     4.7497    -0.5678 H       
  32 H32            3.2187     3.8658    -1.2342 H       
  33 H33            3.1437     0.7336     2.3876 H       
  34 H34            3.9466    -1.9854    -0.5294 H       
  35 H35            7.1139     0.4763     0.8204 H       
  36 H36            7.5206    -1.5251     2.1937 H       
  37 H37            5.7475    -2.3929     3.6636 H       
  38 H38            3.5617    -1.2659     3.7603 H       
@<TRIPOS>BOND
   1    1    2 2
   2    1    6 1
   3    1   26 1
   4    2    3 1
   5    2   27 1
   6    3    4 1
   7    3    7 1
   8    4    5 2
   9    5    6 1
  10    5   12 1
  11    6   19 2
  12    7   20 ar
  13    7   11 ar
  14    8    9 ar
  15    8   20 ar
  16    8   28 1
  17    9   10 ar
  18    9   25 1
  19   10   11 ar
  20   10   29 1
  21   11   30 1
  22   12   13 1
  23   12   16 2
  24   13   14 1
  25   13   17 1
  26   14   15 2
  27   15   16 1
  28   15   31 1
  29   16   32 1
  30   17   21 ar
  31   17   18 ar
  32   18   24 ar
  33   18   33 1
  34   20   34 1
  35   21   22 ar
  36   21   35 1
  37   22   23 ar
  38   22   36 1
  39   23   24 ar
  40   23   37 1
  41   24   38 1

#	End of record

