#	Name: ASD00170638
#	Creating user name:	WinNT
#	Creation time:	15. 06. 2019 18:32

#	Modifying user name:	WinNT
#	Modification time:	15. 06. 2019 18:32

#	Program:	/corina/corina34_cracker 3.40 0067  02.08.2006

@<TRIPOS>MOLECULE
ASD00170638
  43   46    0    0    0
SMALL
NO_CHARGES


@<TRIPOS>ATOM
   1 C1            -0.0167     1.2070     0.0021 C.2     
   2 O2             0.6379     0.9466    -0.9917 O.2     
   3 C3             0.4749     0.8051     1.3375 C.ar    
   4 C4             1.6299     0.0295     1.4549 C.ar    
   5 C5             2.0834    -0.3423     2.7030 C.ar    
   6 C6             1.3954     0.0519     3.8387 C.ar    
   7 C7             0.2488     0.8211     3.7285 C.ar    
   8 C8            -0.2107     1.2046     2.4862 C.ar    
   9 Cl9            1.9723    -0.4205     5.4064 Cl      
  10 S10           -3.0507     3.7630    -0.2634 S.3     
  11 C11           -1.3791     3.2816    -0.0713 C.2     
  12 C12           -1.2848     1.9219    -0.1249 C.2     
  13 C13           -2.5711     1.2397    -0.3216 C.2     
  14 C14           -2.5854    -0.2789    -0.3704 C.3     
  15 S15           -4.0490    -0.9023    -1.2270 S.3     
  16 C16           -5.3940    -0.0773    -0.3234 C.3     
  17 S17           -5.3065     1.6946    -0.6920 S.3     
  18 C18           -3.5972     2.0886    -0.4230 C.2     
  19 C19           -6.7230    -0.6268    -0.7736 C.ar    
  20 C20           -7.5622    -1.2380     0.1396 C.ar    
  21 C21           -8.7811    -1.7425    -0.2706 C.ar    
  22 C22           -9.1628    -1.6356    -1.6001 C.ar    
  23 C23           -8.3189    -1.0219    -2.5144 C.ar    
  24 C24           -7.1036    -0.5139    -2.0980 C.ar    
  25 O25          -10.3611    -2.1315    -2.0061 O.3     
  26 C26          -10.6883    -1.9860    -3.3896 C.3     
  27 N27           -0.3172     4.1467     0.1066 N.pl3   
  28 H28            2.1667    -0.2791     0.5701 H       
  29 H29            2.9767    -0.9423     2.7950 H       
  30 H30           -0.2839     1.1248     4.6176 H       
  31 H31           -1.1020     1.8087     2.4018 H       
  32 H32           -1.6932    -0.6267    -0.8909 H       
  33 H33           -2.5763    -0.6678     0.6478 H       
  34 H34           -5.2714    -0.2377     0.7477 H       
  35 H35           -7.2645    -1.3213     1.1744 H       
  36 H36           -9.4361    -2.2201     0.4430 H       
  37 H37           -8.6138    -0.9375    -3.5499 H       
  38 H38           -6.4484    -0.0319    -2.8085 H       
  39 H39          -10.7062    -0.9276    -3.6493 H       
  40 H40           -9.9396    -2.4963    -3.9956 H       
  41 H41          -11.6686    -2.4233    -3.5790 H       
  42 H42           -0.4591     5.1050     0.0586 H       
  43 H43            0.5704     3.7958     0.2796 H       
@<TRIPOS>BOND
   1    1    2 2
   2    1    3 1
   3    1   12 1
   4    3    4 ar
   5    3    8 ar
   6    4    5 ar
   7    4   28 1
   8    5    6 ar
   9    5   29 1
  10    6    7 ar
  11    6    9 1
  12    7    8 ar
  13    7   30 1
  14    8   31 1
  15   10   11 1
  16   10   18 1
  17   11   12 2
  18   11   27 1
  19   12   13 1
  20   13   14 1
  21   13   18 2
  22   14   15 1
  23   14   32 1
  24   14   33 1
  25   15   16 1
  26   16   17 1
  27   16   19 1
  28   16   34 1
  29   17   18 1
  30   19   20 ar
  31   19   24 ar
  32   20   21 ar
  33   20   35 1
  34   21   22 ar
  35   21   36 1
  36   22   23 ar
  37   22   25 1
  38   23   24 ar
  39   23   37 1
  40   24   38 1
  41   25   26 1
  42   26   39 1
  43   26   40 1
  44   26   41 1
  45   27   42 1
  46   27   43 1

#	End of record

