#	Name: ASD00842304
#	Creating user name:	WinNT
#	Creation time:	15. 06. 2019 18:44

#	Modifying user name:	WinNT
#	Modification time:	15. 06. 2019 18:44

#	Program:	/corina/corina34_cracker 3.40 0067  02.08.2006

@<TRIPOS>MOLECULE
ASD00842304
  95  100    0    0    0
SMALL
NO_CHARGES


@<TRIPOS>ATOM
   1 F1             6.0872    -1.6047    -1.9947 F       
   2 C2             0.9848     1.5611    -0.3516 C.ar    
   3 C3             1.2989     0.2350    -0.6105 C.ar    
   4 C4             1.2412    -0.7015     0.4117 C.ar    
   5 C5             0.8713    -0.3114     1.6840 C.ar    
   6 C6             0.5582     1.0111     1.9395 C.ar    
   7 C7             0.6154     1.9462     0.9229 C.ar    
   8 C8             1.5813    -2.1431     0.1338 C.3     
   9 C9             1.3253    -2.9941     1.3593 C.2     
  10 C10            0.7743    -2.6627    -1.0577 C.3     
  11 C11           -0.6949    -2.4453    -0.8024 C.2     
  12 N12           -1.6074    -2.9144    -1.6764 N.am    
  13 O13           -1.0562    -1.8482     0.1895 O.2     
  14 C14           -3.0349    -2.6138    -1.5018 C.3     
  15 C15           -3.8199    -3.9293    -1.5061 C.3     
  16 C16           -3.4933    -4.7094    -2.7815 C.3     
  17 C17           -1.9990    -5.0385    -2.8117 C.3     
  18 C18           -1.1928    -3.7309    -2.8254 C.3     
  19 C19           -4.3018    -6.0081    -2.8058 C.3     
  20 C20           -5.7973    -5.6804    -2.7774 C.3     
  21 C21           -6.6010    -6.9799    -2.8633 C.3     
  22 N22           -6.2600    -7.6867    -4.1045 N.3     
  23 C23           -4.8384    -8.0536    -4.1333 C.3     
  24 C24           -3.9821    -6.7861    -4.0853 C.3     
  25 C25           -7.1126    -8.8688    -4.2885 C.3     
  26 O26            0.2582    -3.1584     1.9121 O.2     
  27 N27            2.5020    -3.5336     1.7194 N.am    
  28 C28            3.0634    -2.2982    -0.1188 C.ar    
  29 C29            3.5424    -3.1454     0.8727 C.ar    
  30 C30            3.9082    -1.7826    -1.0760 C.ar    
  31 C31            5.2548    -2.1080    -1.0571 C.ar    
  32 C32            5.7450    -2.9526    -0.0725 C.ar    
  33 C33            4.8969    -3.4698     0.8878 C.ar    
  34 F34            7.0577    -3.2713    -0.0523 F       
  35 C35            2.4506    -6.1891     2.4408 C.ar    
  36 C36            3.5240    -6.9229     1.9707 C.ar    
  37 C37            1.1858    -6.7471     2.4640 C.ar    
  38 C38            0.9916    -8.0398     2.0173 C.ar    
  39 C39            2.0670    -8.7782     1.5451 C.ar    
  40 C40            3.3350    -8.2158     1.5225 C.ar    
  41 O41            1.8786   -10.0502     1.1055 O.3     
  42 H42            4.5110    -6.4848     1.9536 H       
  43 C43            3.0310   -10.7508     0.6333 C.3     
  44 C44           -6.9051    -9.4333    -5.6953 C.3     
  45 C45           -7.7930   -10.6644    -5.8869 C.3     
  46 S46            2.6962    -4.5425     3.0181 S.o2    
  47 O47            4.0625    -4.4499     3.3974 O.2     
  48 O48            1.6225    -4.2644     3.9064 O.2     
  49 O49            1.6621    -0.1463    -1.8633 O.3     
  50 C50            2.1295     0.2645    -4.1985 C.3     
  51 C51            1.5911     0.8456    -2.8895 C.3     
  52 H52            1.0333     2.2927    -1.1445 H       
  53 H53            0.8263    -1.0400     2.4800 H       
  54 H54            0.2685     1.3139     2.9349 H       
  55 H55            0.3704     2.9784     1.1249 H       
  56 H56            1.0699    -2.1253    -1.9588 H       
  57 H57            0.9665    -3.7274    -1.1901 H       
  58 H58           -3.1868    -2.1007    -0.5522 H       
  59 H59           -3.3779    -1.9810    -2.3203 H       
  60 H60           -3.5406    -4.5224    -0.6352 H       
  61 H61           -4.8882    -3.7155    -1.4738 H       
  62 H62           -3.7499    -4.1059    -3.6521 H       
  63 H63           -1.7369    -5.6212    -1.9286 H       
  64 H64           -1.7713    -5.6143    -3.7088 H       
  65 H65           -1.3867    -3.1918    -3.7526 H       
  66 H66           -0.1293    -3.9565    -2.7470 H       
  67 H67           -4.0450    -6.6134    -1.9365 H       
  68 H68           -6.0390    -5.1638    -1.8485 H       
  69 H69           -6.0461    -5.0419    -3.6250 H       
  70 H70           -6.3620    -7.6120    -2.0080 H       
  71 H71           -7.6663    -6.7492    -2.8577 H       
  72 H72           -4.6077    -8.6806    -3.2721 H       
  73 H73           -4.6235    -8.6026    -5.0501 H       
  74 H74           -4.2023    -6.1650    -4.9535 H       
  75 H75           -2.9269    -7.0594    -4.0909 H       
  76 H76           -6.8480    -9.6260    -3.5504 H       
  77 H77           -8.1576    -8.5864    -4.1607 H       
  78 H78            3.5215    -1.1255    -1.8409 H       
  79 H79            5.2851    -4.1268     1.6520 H       
  80 H80            0.3490    -6.1720     2.8321 H       
  81 H81            0.0035    -8.4753     2.0360 H       
  82 H82            4.1738    -8.7887     1.1557 H       
  83 H83            3.4646   -10.2112    -0.2087 H       
  84 H84            3.7657   -10.8239     1.4351 H       
  85 H85            2.7419   -11.7518     0.3131 H       
  86 H86           -7.1697    -8.6761    -6.4333 H       
  87 H87           -5.8601    -9.7156    -5.8230 H       
  88 H88           -7.5284   -11.4217    -5.1488 H       
  89 H89           -8.8381   -10.3821    -5.7592 H       
  90 H90           -7.6452   -11.0666    -6.8891 H       
  91 H91            2.1570     1.0454    -4.9585 H       
  92 H92            3.1360    -0.1217    -4.0378 H       
  93 H93            1.4790    -0.5441    -4.5318 H       
  94 H94            0.5542     1.1521    -3.0274 H       
  95 H95            2.1902     1.7095    -2.6019 H       
@<TRIPOS>BOND
   1    1   31 1
   2    2    3 ar
   3    2    7 ar
   4    2   52 1
   5    3    4 ar
   6    3   49 1
   7    4    5 ar
   8    4    8 1
   9    5    6 ar
  10    5   53 1
  11    6    7 ar
  12    6   54 1
  13    7   55 1
  14    8    9 1
  15    8   10 1
  16    8   28 1
  17    9   26 2
  18    9   27 am
  19   10   11 1
  20   10   56 1
  21   10   57 1
  22   11   12 am
  23   11   13 2
  24   12   14 1
  25   12   18 1
  26   14   15 1
  27   14   58 1
  28   14   59 1
  29   15   16 1
  30   15   60 1
  31   15   61 1
  32   16   17 1
  33   16   19 1
  34   16   62 1
  35   17   18 1
  36   17   63 1
  37   17   64 1
  38   18   65 1
  39   18   66 1
  40   19   20 1
  41   19   24 1
  42   19   67 1
  43   20   21 1
  44   20   68 1
  45   20   69 1
  46   21   22 1
  47   21   70 1
  48   21   71 1
  49   22   23 1
  50   22   25 1
  51   23   24 1
  52   23   72 1
  53   23   73 1
  54   24   74 1
  55   24   75 1
  56   25   44 1
  57   25   76 1
  58   25   77 1
  59   27   46 am
  60   27   29 1
  61   28   29 ar
  62   28   30 ar
  63   29   33 ar
  64   30   31 ar
  65   30   78 1
  66   31   32 ar
  67   32   33 ar
  68   32   34 1
  69   33   79 1
  70   35   36 ar
  71   35   37 ar
  72   35   46 1
  73   36   42 1
  74   36   40 ar
  75   37   38 ar
  76   37   80 1
  77   38   39 ar
  78   38   81 1
  79   39   40 ar
  80   39   41 1
  81   40   82 1
  82   41   43 1
  83   43   83 1
  84   43   84 1
  85   43   85 1
  86   44   45 1
  87   44   86 1
  88   44   87 1
  89   45   88 1
  90   45   89 1
  91   45   90 1
  92   46   47 2
  93   46   48 2
  94   49   51 1
  95   50   51 1
  96   50   91 1
  97   50   92 1
  98   50   93 1
  99   51   94 1
 100   51   95 1

#	End of record

