#	Name: ASD01810570
#	Creating user name:	WinNT
#	Creation time:	15. 06. 2019 19:24

#	Modifying user name:	WinNT
#	Modification time:	15. 06. 2019 19:24

#	Program:	/corina/corina34_cracker 3.40 0067  02.08.2006

@<TRIPOS>MOLECULE
ASD01810570
  57   61    0    0    0
SMALL
NO_CHARGES


@<TRIPOS>ATOM
   1 C1             0.0112     1.6585     0.3711 C.ar    
   2 C2            -0.0348     0.2910     0.5473 C.ar    
   3 C3             1.1339    -0.4536     0.5325 C.ar    
   4 C4             2.3549     0.1587     0.3422 C.ar    
   5 C5             2.4230     1.5362     0.1627 C.ar    
   6 C6             1.2368     2.2878     0.1783 C.ar    
   7 N7             3.6455     2.1568    -0.0292 N.pl3   
   8 C8             3.7731     3.4815    -0.2073 C.2     
   9 C9             2.6843     4.3177    -0.2105 C.2     
  10 C10            1.3319     3.7478    -0.0142 C.2     
  11 C11            2.4730     5.7529    -0.3709 C.2     
  12 N12            1.1406     5.9501    -0.2716 N.am    
  13 N13            0.4849     4.7348    -0.0589 N.2     
  14 C14            0.4774     7.2525    -0.3729 C.3     
  15 C15            0.1194     7.5234    -1.8115 C.ar    
  16 O16            3.3281     6.6036    -0.5565 O.2     
  17 C17            4.8552     1.3305    -0.0379 C.3     
  18 C18            5.3628     1.1681     1.3717 C.ar    
  19 C19            0.9184     8.3501    -2.5785 C.ar    
  20 C20            0.5899     8.5987    -3.8983 C.ar    
  21 C21           -0.5371     8.0200    -4.4508 C.ar    
  22 C22           -1.3359     7.1923    -3.6837 C.ar    
  23 C23           -1.0051     6.9404    -2.3656 C.ar    
  24 C24           -1.8757     6.0381    -1.5295 C.3     
  25 C25           -0.8957     8.2918    -5.8891 C.3     
  26 C26            5.1500    -0.0174     2.0495 C.ar    
  27 C27            5.6139    -0.1689     3.3422 C.ar    
  28 C28            6.2945     0.8696     3.9610 C.ar    
  29 C29            6.5083     2.0592     3.2803 C.ar    
  30 C30            6.0468     2.2051     1.9843 C.ar    
  31 F31            6.2545     3.3629     1.3197 F       
  32 O32            6.7508     0.7218     5.2325 O.3     
  33 C33            7.4429     1.8324     5.8066 C.3     
  34 H34           -0.9005     2.2373     0.3784 H       
  35 H35           -0.9846    -0.2008     0.6976 H       
  36 H36            1.0882    -1.5236     0.6716 H       
  37 H37            3.2590    -0.4319     0.3330 H       
  38 H38            4.7581     3.9002    -0.3515 H       
  39 H39           -0.4292     7.2466     0.2322 H       
  40 H40            1.1495     8.0314    -0.0128 H       
  41 H41            4.6230     0.3509    -0.4557 H       
  42 H42            5.6203     1.8129    -0.6463 H       
  43 H43            1.7991     8.8023    -2.1469 H       
  44 H44            1.2139     9.2453    -4.4975 H       
  45 H45           -2.2167     6.7404    -4.1153 H       
  46 H46           -1.5281     5.0093    -1.6229 H       
  47 H47           -1.8217     6.3465    -0.4855 H       
  48 H48           -2.9072     6.1059    -1.8755 H       
  49 H49           -0.4225     7.5466    -6.5285 H       
  50 H50           -1.9777     8.2397    -6.0098 H       
  51 H51           -0.5462     9.2855    -6.1691 H       
  52 H52            4.6203    -0.8262     1.5683 H       
  53 H53            5.4464    -1.0956     3.8710 H       
  54 H54            7.0379     2.8690     3.7601 H       
  55 H55            8.3221     2.0630     5.2049 H       
  56 H56            6.7821     2.6989     5.8314 H       
  57 H57            7.7526     1.5824     6.8214 H       
@<TRIPOS>BOND
   1    1    2 ar
   2    1    6 ar
   3    1   34 1
   4    2    3 ar
   5    2   35 1
   6    3    4 ar
   7    3   36 1
   8    4    5 ar
   9    4   37 1
  10    5    6 ar
  11    5    7 1
  12    6   10 1
  13    7    8 1
  14    7   17 1
  15    8    9 2
  16    8   38 1
  17    9   10 1
  18    9   11 1
  19   10   13 2
  20   11   12 am
  21   11   16 2
  22   12   13 1
  23   12   14 1
  24   14   15 1
  25   14   39 1
  26   14   40 1
  27   15   19 ar
  28   15   23 ar
  29   17   18 1
  30   17   41 1
  31   17   42 1
  32   18   26 ar
  33   18   30 ar
  34   19   20 ar
  35   19   43 1
  36   20   21 ar
  37   20   44 1
  38   21   22 ar
  39   21   25 1
  40   22   23 ar
  41   22   45 1
  42   23   24 1
  43   24   46 1
  44   24   47 1
  45   24   48 1
  46   25   49 1
  47   25   50 1
  48   25   51 1
  49   26   27 ar
  50   26   52 1
  51   27   28 ar
  52   27   53 1
  53   28   29 ar
  54   28   32 1
  55   29   30 ar
  56   29   54 1
  57   30   31 1
  58   32   33 1
  59   33   55 1
  60   33   56 1
  61   33   57 1

#	End of record

