#	Name: ASD09116191
#	Creating user name:	WinNT
#	Creation time:	15. 06. 2019 21:21

#	Modifying user name:	WinNT
#	Modification time:	15. 06. 2019 21:21

#	Program:	/corina/corina34_cracker 3.40 0067  02.08.2006

@<TRIPOS>MOLECULE
ASD09116191
  71   76    0    0    0
SMALL
NO_CHARGES


@<TRIPOS>ATOM
   1 N1            -0.5243     3.4908     0.8553 N.2     
   2 C2            -0.8638     2.2793     0.0880 C.3     
   3 C3             0.7628     3.6629     0.7221 C.2     
   4 N4             1.3408     2.7149    -0.0434 N.2     
   5 C5             0.4726     1.8385    -0.4768 C.2     
   6 N6             1.4581     4.7043     1.3029 N.pl3   
   7 C7             2.8538     4.7600     1.1966 C.ar    
   8 C8             3.4994     5.9887     1.1723 C.ar    
   9 C9             3.5919     3.5858     1.1213 C.ar    
  10 C10            4.9688     3.6411     1.0164 C.ar    
  11 C11            5.6143     4.8728     0.9864 C.ar    
  12 C12            4.8758     6.0448     1.0670 C.ar    
  13 N13            0.7167     0.7593    -1.2678 N.pl3   
  14 C14           -1.4340     1.2186     0.9939 C.ar    
  15 C15           -2.5384     0.4901     0.6157 C.ar    
  16 N16           -0.8788     0.9626     2.1719 N.ar    
  17 C17           -1.3742     0.0359     2.9674 C.ar    
  18 N18           -2.4366    -0.6767     2.6364 N.ar    
  19 C19           -3.0336    -0.4795     1.4817 C.ar    
  20 N20            7.0102     4.9300     0.8806 N.3     
  21 C21            7.5808     3.5872     0.7150 C.3     
  22 C22           -4.2496    -1.1134     0.8073 C.3     
  23 C23           -3.6489    -1.9396    -0.3743 C.3     
  24 C24           -3.0931    -0.8653    -1.3397 C.3     
  25 C25           -3.4233     0.4905    -0.6285 C.3     
  26 C26           -4.8074     0.1311     0.0224 C.3     
  27 F27            5.6875     2.4994     0.9435 F       
  28 C28            7.5978     5.6177     2.0374 C.3     
  29 C29            9.1028     5.7901     1.8195 C.3     
  30 C30            9.7484     4.4136     1.6384 C.3     
  31 C31            9.0853     3.6989     0.4577 C.3     
  32 N32           11.1836     4.5758     1.3708 N.3     
  33 C33           11.8583     3.2724     1.3089 C.3     
  34 C34           12.0028     2.7053     2.7226 C.3     
  35 C35           12.8545     5.8330     0.0961 C.3     
  36 C36           11.4058     5.3426     0.1376 C.3     
  37 H37           -1.5637     2.5155    -0.7136 H       
  38 H38            0.9803     5.3975     1.7846 H       
  39 H39            2.9253     6.9013     1.2353 H       
  40 H40            3.0899     2.6298     1.1450 H       
  41 H41            5.3769     7.0013     1.0437 H       
  42 H42            1.6191     0.5750    -1.5720 H       
  43 H43           -0.0117     0.1738    -1.5278 H       
  44 H44           -0.8971    -0.1468     3.9189 H       
  45 H45            7.4095     3.0055     1.6208 H       
  46 H46            7.1036     3.0915    -0.1304 H       
  47 H47           -4.9423    -1.6424     1.4617 H       
  48 H48           -2.8463    -2.5860    -0.0192 H       
  49 H49           -4.4259    -2.5272    -0.8633 H       
  50 H50           -2.0163    -0.9818    -1.4617 H       
  51 H51           -3.5963    -0.9220    -2.3050 H       
  52 H52           -3.3794     1.3843    -1.2508 H       
  53 H53           -5.5546    -0.1491    -0.7201 H       
  54 H54           -5.1678     0.9141     0.6896 H       
  55 H55            7.1330     6.5969     2.1525 H       
  56 H56            7.4265     5.0265     2.9370 H       
  57 H57            9.2747     6.3929     0.9278 H       
  58 H58            9.5413     6.2866     2.6852 H       
  59 H59            9.6102     3.8243     2.5450 H       
  60 H60            9.5112     2.7014     0.3503 H       
  61 H61            9.2569     4.2688    -0.4555 H       
  62 H62           11.2684     2.5864     0.7009 H       
  63 H63           12.8457     3.3951     0.8640 H       
  64 H64           12.5879     1.7863     2.6874 H       
  65 H65           12.5085     3.4339     3.3564 H       
  66 H66           11.0151     2.4918     3.1312 H       
  67 H67           13.5290     4.9780     0.1427 H       
  68 H68           13.0261     6.3810    -0.8304 H       
  69 H69           13.0405     6.4893     0.9462 H       
  70 H70           11.2128     4.7060    -0.7258 H       
  71 H71           10.7317     6.1988     0.1158 H       
@<TRIPOS>BOND
   1    1    2 1
   2    1    3 2
   3    2   14 1
   4    2    5 1
   5    2   37 1
   6    3    4 1
   7    3    6 1
   8    4    5 2
   9    5   13 1
  10    6    7 1
  11    6   38 1
  12    7    8 ar
  13    7    9 ar
  14    8   12 ar
  15    8   39 1
  16    9   10 ar
  17    9   40 1
  18   10   11 ar
  19   10   27 1
  20   11   12 ar
  21   11   20 1
  22   12   41 1
  23   13   42 1
  24   13   43 1
  25   14   15 ar
  26   14   16 ar
  27   15   19 ar
  28   15   25 1
  29   16   17 ar
  30   17   18 ar
  31   17   44 1
  32   18   19 ar
  33   19   22 1
  34   20   28 1
  35   20   21 1
  36   21   31 1
  37   21   45 1
  38   21   46 1
  39   22   23 1
  40   22   26 1
  41   22   47 1
  42   23   24 1
  43   23   48 1
  44   23   49 1
  45   24   25 1
  46   24   50 1
  47   24   51 1
  48   25   26 1
  49   25   52 1
  50   26   53 1
  51   26   54 1
  52   28   29 1
  53   28   55 1
  54   28   56 1
  55   29   30 1
  56   29   57 1
  57   29   58 1
  58   30   31 1
  59   30   32 1
  60   30   59 1
  61   31   60 1
  62   31   61 1
  63   32   33 1
  64   32   36 1
  65   33   34 1
  66   33   62 1
  67   33   63 1
  68   34   64 1
  69   34   65 1
  70   34   66 1
  71   35   36 1
  72   35   67 1
  73   35   68 1
  74   35   69 1
  75   36   70 1
  76   36   71 1

#	End of record

