#	Name: ASD01230442
#	Creating user name:	WinNT
#	Creation time:	15. 06. 2019 19:14

#	Modifying user name:	WinNT
#	Modification time:	15. 06. 2019 19:14

#	Program:	/corina/corina34_cracker 3.40 0067  02.08.2006

@<TRIPOS>MOLECULE
ASD01230442
  27   27    0    0    0
SMALL
NO_CHARGES


@<TRIPOS>ATOM
   1 C1             0.0326     1.3322     0.1753 C.2     
   2 N2             0.0021    -0.0041     0.0020 N.am    
   3 O3             1.1017     1.9261     0.1636 O.co2   
   4 O4            -1.0092     1.9515     0.3392 O.co2   
   5 C5             1.1759    -0.6955    -0.2969 C.ar    
   6 C6             2.0209    -1.0967     0.7328 C.ar    
   7 C7             3.1823    -1.7826     0.4217 C.ar    
   8 C8             3.4593    -2.0443    -0.9133 C.ar    
   9 C9             2.5754    -1.6163    -1.8836 C.ar    
  10 N10            1.4731    -0.9688    -1.5570 N.ar    
  11 Br11           1.5891    -0.7098     2.5328 Br      
  12 C12           -1.2641    -0.7303     0.1276 C.3     
  13 C13           -2.2350    -0.2534    -0.9544 C.3     
  14 C14           -1.0107    -2.2298    -0.0395 C.3     
  15 C15           -1.8688    -0.4659     1.5080 C.3     
  16 H16            3.8578    -2.1064     1.1997 H       
  17 H17            4.3572    -2.5770    -1.1899 H       
  18 H18            2.7869    -1.8178    -2.9234 H       
  19 H19           -1.8042    -0.4417    -1.9377 H       
  20 H20           -3.1771    -0.7937    -0.8609 H       
  21 H21           -2.4155     0.8149    -0.8353 H       
  22 H22           -0.3189    -2.5696     0.7314 H       
  23 H23           -1.9527    -2.7701     0.0540 H       
  24 H24           -0.5798    -2.4182    -1.0228 H       
  25 H25           -2.0493     0.6024     1.6270 H       
  26 H26           -2.8108    -1.0062     1.6014 H       
  27 H27           -1.1771    -0.8056     2.2788 H       
@<TRIPOS>BOND
   1    1    2 am
   2    1    3 ar
   3    1    4 ar
   4    2    5 1
   5    2   12 1
   6    5    6 ar
   7    5   10 ar
   8    6    7 ar
   9    6   11 1
  10    7    8 ar
  11    7   16 1
  12    8    9 ar
  13    8   17 1
  14    9   10 ar
  15    9   18 1
  16   12   13 1
  17   12   15 1
  18   12   14 1
  19   13   19 1
  20   13   20 1
  21   13   21 1
  22   14   22 1
  23   14   23 1
  24   14   24 1
  25   15   25 1
  26   15   26 1
  27   15   27 1

#	End of record

