#	Name: ASD00842290
#	Creating user name:	WinNT
#	Creation time:	15. 06. 2019 18:44

#	Modifying user name:	WinNT
#	Modification time:	15. 06. 2019 18:44

#	Program:	/corina/corina34_cracker 3.40 0067  02.08.2006

@<TRIPOS>MOLECULE
ASD00842290
  92   97    0    0    0
SMALL
NO_CHARGES


@<TRIPOS>ATOM
   1 F1             6.0126    -1.7076    -2.1530 F       
   2 C2             0.8900     1.5141    -0.6900 C.ar    
   3 C3             1.2216     0.1751    -0.8359 C.ar    
   4 C4             1.2012    -0.6664     0.2671 C.ar    
   5 C5             0.8508    -0.1693     1.5072 C.ar    
   6 C6             0.5202     1.1659     1.6500 C.ar    
   7 C7             0.5402     2.0065     0.5527 C.ar    
   8 C8             1.5604    -2.1217     0.1121 C.3     
   9 C9             1.3439    -2.8631     1.4141 C.2     
  10 C10            0.7387    -2.7586    -1.0104 C.3     
  11 C11           -0.7280    -2.5272    -0.7528 C.2     
  12 N12           -1.6497    -3.0617    -1.5780 N.am    
  13 O13           -1.0788    -1.8599     0.1973 O.2     
  14 C14           -3.0756    -2.7491    -1.4105 C.3     
  15 C15           -3.8590    -4.0614    -1.3057 C.3     
  16 C16           -3.5460    -4.9362    -2.5218 C.3     
  17 C17           -2.0518    -5.2662    -2.5439 C.3     
  18 C18           -1.2473    -3.9631    -2.6662 C.3     
  19 N19           -4.3211    -6.1815    -2.4413 N.3     
  20 C20           -4.1371    -6.9954    -3.6510 C.3     
  21 C21           -4.8949    -8.3158    -3.4943 C.3     
  22 N22           -6.3189    -8.0359    -3.2629 N.3     
  23 C23           -6.5029    -7.2220    -2.0532 C.3     
  24 C24           -5.7450    -5.9015    -2.2099 C.3     
  25 H25           -6.7347    -7.5888    -4.0662 H       
  26 O26            0.2912    -2.9934     2.0023 O.2     
  27 N27            2.5367    -3.3499     1.7954 N.am    
  28 C28            3.0396    -2.2761    -0.1576 C.ar    
  29 C29            3.5530    -3.0233     0.8951 C.ar    
  30 C30            3.8559    -1.8357    -1.1752 C.ar    
  31 C31            5.2081    -2.1374    -1.1564 C.ar    
  32 C32            5.7325    -2.8825    -0.1110 C.ar    
  33 C33            4.9130    -3.3243     0.9099 C.ar    
  34 F34            7.0507    -3.1778    -0.0907 F       
  35 C35            2.5457    -5.9303     2.7526 C.ar    
  36 C36            1.2990    -6.3804     2.3425 C.ar    
  37 C37            3.6096    -6.8094     2.8247 C.ar    
  38 C38            3.4349    -8.1379     2.4885 C.ar    
  39 C39            2.1897    -8.5931     2.0777 C.ar    
  40 C40            1.1210    -7.7134     2.0049 C.ar    
  41 O41            2.0184    -9.9001     1.7475 O.3     
  42 O42            0.2530    -5.5155     2.2722 O.3     
  43 C43            3.1632   -10.7497     1.8463 C.3     
  44 C44           -1.0013    -6.0481     1.8421 C.3     
  45 C45           -2.0498    -4.9340     1.8260 C.3     
  46 O46            1.5656    -0.3117    -2.0572 O.3     
  47 C47            1.9802    -0.1045    -4.4290 C.3     
  48 C48            1.4565     0.5827    -3.1663 C.3     
  49 S49            2.7745    -4.2350     3.1748 S.o2    
  50 O50            4.1464    -4.0877     3.5146 O.2     
  51 O51            1.7142    -3.8947     4.0576 O.2     
  52 H52            0.9095     2.1721    -1.5461 H       
  53 H53            0.8347    -0.8239     2.3660 H       
  54 H54            0.2458     1.5525     2.6203 H       
  55 H55            0.2816     3.0489     0.6668 H       
  56 H56            1.0156    -2.3085    -1.9638 H       
  57 H57            0.9372    -3.8299    -1.0432 H       
  58 H58           -3.2172    -2.1653    -0.5009 H       
  59 H59           -3.4286    -2.1805    -2.2708 H       
  60 H60           -3.5691    -4.5864    -0.3955 H       
  61 H61           -4.9272    -3.8461    -1.2776 H       
  62 H62           -3.8132    -4.4007    -3.4328 H       
  63 H63           -1.7789    -5.7799    -1.6221 H       
  64 H64           -1.8336    -5.9084    -3.3971 H       
  65 H65           -1.4524    -3.4961    -3.6295 H       
  66 H66           -0.1827    -4.1818    -2.5831 H       
  67 H67           -4.5231    -6.4549    -4.5152 H       
  68 H68           -3.0760    -7.1999    -3.7938 H       
  69 H69           -4.7837    -8.9089    -4.4020 H       
  70 H70           -4.4906    -8.8688    -2.6464 H       
  71 H71           -7.5640    -7.0175    -1.9104 H       
  72 H72           -6.1168    -7.7625    -1.1890 H       
  73 H73           -5.8562    -5.3085    -1.3022 H       
  74 H74           -6.1494    -5.3486    -3.0578 H       
  75 H75            3.4426    -1.2560    -1.9873 H       
  76 H76            5.3278    -3.9039     1.7213 H       
  77 H77            4.5793    -6.4571     3.1441 H       
  78 H78            4.2680    -8.8229     2.5450 H       
  79 H79            0.1512    -8.0657     1.6859 H       
  80 H80            2.8893   -11.7637     1.5550 H       
  81 H81            3.9474   -10.3809     1.1851 H       
  82 H82            3.5260   -10.7524     2.8741 H       
  83 H83           -0.8956    -6.4620     0.8393 H       
  84 H84           -1.3168    -6.8341     2.5282 H       
  85 H85           -2.1555    -4.5200     2.8288 H       
  86 H86           -1.7343    -4.1480     1.1399 H       
  87 H87           -3.0066    -5.3402     1.4979 H       
  88 H88            1.9788     0.6054    -5.2562 H       
  89 H89            2.9966    -0.4579    -4.2554 H       
  90 H90            1.3384    -0.9504    -4.6751 H       
  91 H91            0.4117     0.8583    -3.3094 H       
  92 H92            2.0450     1.4789    -2.9697 H       
@<TRIPOS>BOND
   1    1   31 1
   2    2    3 ar
   3    2    7 ar
   4    2   52 1
   5    3    4 ar
   6    3   46 1
   7    4    5 ar
   8    4    8 1
   9    5    6 ar
  10    5   53 1
  11    6    7 ar
  12    6   54 1
  13    7   55 1
  14    8    9 1
  15    8   10 1
  16    8   28 1
  17    9   26 2
  18    9   27 am
  19   10   11 1
  20   10   56 1
  21   10   57 1
  22   11   12 am
  23   11   13 2
  24   12   14 1
  25   12   18 1
  26   14   15 1
  27   14   58 1
  28   14   59 1
  29   15   16 1
  30   15   60 1
  31   15   61 1
  32   16   17 1
  33   16   19 1
  34   16   62 1
  35   17   18 1
  36   17   63 1
  37   17   64 1
  38   18   65 1
  39   18   66 1
  40   19   20 1
  41   19   24 1
  42   20   21 1
  43   20   67 1
  44   20   68 1
  45   21   22 1
  46   21   69 1
  47   21   70 1
  48   22   23 1
  49   22   25 1
  50   23   24 1
  51   23   71 1
  52   23   72 1
  53   24   73 1
  54   24   74 1
  55   27   49 am
  56   27   29 1
  57   28   29 ar
  58   28   30 ar
  59   29   33 ar
  60   30   31 ar
  61   30   75 1
  62   31   32 ar
  63   32   33 ar
  64   32   34 1
  65   33   76 1
  66   35   36 ar
  67   35   37 ar
  68   35   49 1
  69   36   42 1
  70   36   40 ar
  71   37   38 ar
  72   37   77 1
  73   38   39 ar
  74   38   78 1
  75   39   40 ar
  76   39   41 1
  77   40   79 1
  78   41   43 1
  79   42   44 1
  80   43   80 1
  81   43   81 1
  82   43   82 1
  83   44   45 1
  84   44   83 1
  85   44   84 1
  86   45   85 1
  87   45   86 1
  88   45   87 1
  89   46   48 1
  90   47   48 1
  91   47   88 1
  92   47   89 1
  93   47   90 1
  94   48   91 1
  95   48   92 1
  96   49   50 2
  97   49   51 2

#	End of record

