#	Name: ASD01410180
#	Creating user name:	WinNT
#	Creation time:	15. 06. 2019 19:16

#	Modifying user name:	WinNT
#	Modification time:	15. 06. 2019 19:16

#	Program:	/corina/corina34_cracker 3.40 0067  02.08.2006

@<TRIPOS>MOLECULE
ASD01410180
  36   39    0    0    0
SMALL
NO_CHARGES


@<TRIPOS>ATOM
   1 C1           -10.0366    -3.4038     0.1876 C.ar    
   2 C2            -8.9683    -4.2914     0.1482 C.ar    
   3 C3            -7.6719    -3.8101     0.1052 C.ar    
   4 C4            -7.4462    -2.4277     0.1018 C.ar    
   5 C5            -8.5262    -1.5305     0.1417 C.ar    
   6 C6            -9.8193    -2.0340     0.1787 C.ar    
   7 C7            -6.2251    -1.6074     0.0630 C.2     
   8 C8            -6.7106    -0.2209     0.0843 C.2     
   9 O9            -8.0628    -0.2614     0.1302 O.3     
  10 O10           -5.0686    -1.9923     0.0223 O.2     
  11 C11           -5.9403     0.9010     0.0614 C.2     
  12 C12           -6.5496     2.1772    -0.0324 C.2     
  13 O13          -11.3062    -3.8823     0.2297 O.3     
  14 O14           -6.6250    -4.6724     0.0671 O.3     
  15 C15           -7.8823     2.4070    -0.2170 C.2     
  16 N16           -5.8909     3.3887     0.0543 N.pl3   
  17 C17           -6.8112     4.4042    -0.0817 C.ar    
  18 C18           -8.0763     3.8077    -0.2543 C.ar    
  19 C19           -6.7047     5.7912    -0.0743 C.ar    
  20 C20           -7.8320     6.5659    -0.2382 C.ar    
  21 C21           -9.0777     5.9760    -0.4115 C.ar    
  22 C22           -9.2085     4.6177    -0.4176 C.ar    
  23 C23           -4.4507     3.5640     0.2574 C.3     
  24 H24           -9.1497    -5.3560     0.1514 H       
  25 H25          -10.6595    -1.3561     0.2096 H       
  26 H26           -4.8648     0.8188     0.1148 H       
  27 H27          -11.6438    -4.0237     1.1247 H       
  28 H28           -6.3517    -4.9199    -0.8269 H       
  29 H29           -8.6506     1.6547    -0.3169 H       
  30 H30           -5.7408     6.2595     0.0601 H       
  31 H31           -7.7464     7.6425    -0.2317 H       
  32 H32           -9.9513     6.5982    -0.5387 H       
  33 H33          -10.1810     4.1680    -0.5533 H       
  34 H34           -3.9393     3.5129    -0.7039 H       
  35 H35           -4.2641     4.5346     0.7170 H       
  36 H36           -4.0771     2.7750     0.9101 H       
@<TRIPOS>BOND
   1    1    2 ar
   2    1   13 1
   3    1    6 ar
   4    2    3 ar
   5    2   24 1
   6    3    4 ar
   7    3   14 1
   8    4    5 ar
   9    4    7 1
  10    5    6 ar
  11    5    9 1
  12    6   25 1
  13    7    8 1
  14    7   10 2
  15    8    9 1
  16    8   11 2
  17   11   12 1
  18   11   26 1
  19   12   16 1
  20   12   15 2
  21   13   27 1
  22   14   28 1
  23   15   18 1
  24   15   29 1
  25   16   17 1
  26   16   23 1
  27   17   18 ar
  28   17   19 ar
  29   18   22 ar
  30   19   20 ar
  31   19   30 1
  32   20   21 ar
  33   20   31 1
  34   21   22 ar
  35   21   32 1
  36   22   33 1
  37   23   34 1
  38   23   35 1
  39   23   36 1

#	End of record

