#	Name: ASD04590108
#	Creating user name:	WinNT
#	Creation time:	15. 06. 2019 20:50

#	Modifying user name:	WinNT
#	Modification time:	15. 06. 2019 20:50

#	Program:	/corina/corina34_cracker 3.40 0067  02.08.2006

@<TRIPOS>MOLECULE
ASD04590108
  37   39    0    0    0
SMALL
NO_CHARGES


@<TRIPOS>ATOM
   1 N1            -0.0168     1.2780    -0.0129 N.pl3   
   2 N2             0.0010    -0.0043    -0.0132 N.2     
   3 C3             1.2413    -0.4514    -0.0246 C.2     
   4 C4             2.1013     0.7388    -0.0322 C.2     
   5 C5             1.2292     1.7910    -0.0241 C.2     
   6 C6             1.6766    -1.8610    -0.0283 C.2     
   7 O7             2.8622    -2.1312    -0.0387 O.2     
   8 N8             0.7603    -2.8493    -0.0201 N.am    
   9 C9             1.1687    -4.1838    -0.1365 C.ar    
  10 C10            0.4823    -5.1820     0.5423 C.ar    
  11 C11            0.8856    -6.4976     0.4271 C.ar    
  12 C12            1.9764    -6.8222    -0.3661 C.ar    
  13 C13            2.6626    -5.8255    -1.0445 C.ar    
  14 C14            2.2567    -4.5102    -0.9352 C.ar    
  15 C15            3.5838     0.7880    -0.0453 C.ar    
  16 C16            4.2490     1.5856    -0.9746 C.ar    
  17 C17            4.3165     0.0413     0.8754 C.ar    
  18 C18            5.6957     0.0909     0.8587 C.ar    
  19 C19            6.3507     0.8802    -0.0694 C.ar    
  20 C20            5.6284     1.6275    -0.9822 C.ar    
  21 O21            2.3735    -8.1178    -0.4784 O.3     
  22 C22            3.5043    -8.3798    -1.3118 C.3     
  23 H23           -0.8265     1.8122    -0.0091 H       
  24 H24            1.4902     2.8390    -0.0269 H       
  25 H25           -0.1820    -2.6363     0.0663 H       
  26 H26           -0.3665    -4.9294     1.1604 H       
  27 H27            0.3518    -7.2741     0.9549 H       
  28 H28            3.5120    -6.0789    -1.6616 H       
  29 H29            2.7881    -3.7349    -1.4672 H       
  30 H30            3.6860     2.1694    -1.6878 H       
  31 H31            3.8061    -0.5747     1.6009 H       
  32 H32            6.2645    -0.4874     1.5717 H       
  33 H33            7.4301     0.9162    -0.0787 H       
  34 H34            6.1450     2.2420    -1.7047 H       
  35 H35            3.2906    -8.0499    -2.3285 H       
  36 H36            4.3706    -7.8401    -0.9292 H       
  37 H37            3.7143    -9.4494    -1.3135 H       
@<TRIPOS>BOND
   1    1    2 1
   2    1    5 1
   3    1   23 1
   4    2    3 2
   5    3    4 1
   6    3    6 1
   7    4    5 2
   8    4   15 1
   9    5   24 1
  10    6    7 2
  11    6    8 am
  12    8    9 1
  13    8   25 1
  14    9   10 ar
  15    9   14 ar
  16   10   11 ar
  17   10   26 1
  18   11   12 ar
  19   11   27 1
  20   12   13 ar
  21   12   21 1
  22   13   14 ar
  23   13   28 1
  24   14   29 1
  25   15   16 ar
  26   15   17 ar
  27   16   20 ar
  28   16   30 1
  29   17   18 ar
  30   17   31 1
  31   18   19 ar
  32   18   32 1
  33   19   20 ar
  34   19   33 1
  35   20   34 1
  36   21   22 1
  37   22   35 1
  38   22   36 1
  39   22   37 1

#	End of record

