#	Name: ASD01812815
#	Creating user name:	WinNT
#	Creation time:	15. 06. 2019 19:29

#	Modifying user name:	WinNT
#	Modification time:	15. 06. 2019 19:29

#	Program:	/corina/corina34_cracker 3.40 0067  02.08.2006

@<TRIPOS>MOLECULE
ASD01812815
  52   56    0    0    0
SMALL
NO_CHARGES


@<TRIPOS>ATOM
   1 N1            -0.0158     1.3147     0.0093 N.ar    
   2 C2             0.0021    -0.0041     0.0020 C.ar    
   3 C3             1.1989    -0.7033    -0.0127 C.ar    
   4 C4             2.3829    -0.0013    -0.0202 C.ar    
   5 C5             2.3448     1.3978    -0.0128 C.ar    
   6 C6             1.0955     2.0332     0.0025 C.ar    
   7 C7             3.8373    -0.3889    -0.0363 C.3     
   8 N8             4.5955     0.8684    -0.0373 N.am    
   9 C9             3.7280     1.8961    -0.0237 C.2     
  10 C10            6.0558     0.9844    -0.0504 C.3     
  11 C11            6.5432     1.0311    -1.4757 C.ar    
  12 C12            6.6712     2.2480    -2.1206 C.ar    
  13 C13            7.1171     2.2967    -3.4259 C.ar    
  14 C14            7.4386     1.1168    -4.0939 C.ar    
  15 C15            7.3078    -0.1064    -3.4393 C.ar    
  16 C16            6.8664    -0.1428    -2.1321 C.ar    
  17 O17            1.0255     3.3856     0.0100 O.3     
  18 O18            4.0429     3.0706    -0.0212 O.2     
  19 C19            7.9181     1.1627    -5.4973 C.ar    
  20 C20           -0.2795     3.9677     0.0251 C.3     
  21 C21           -0.1576     5.4928     0.0317 C.3     
  22 C22           -0.7137     6.2512    -1.1752 C.3     
  23 C23           -1.4479     6.3040     0.1661 C.3     
  24 C24            8.0549     2.3805    -6.1698 C.ar    
  25 C25            8.5040     2.3780    -7.4742 C.ar    
  26 N26            8.8022     1.2475    -8.0856 N.ar    
  27 C27            8.6871     0.0776    -7.4871 C.ar    
  28 C28            8.2506    -0.0099    -6.1809 C.ar    
  29 C29            9.0430    -1.1797    -8.2378 C.3     
  30 H30           -0.9309    -0.5480     0.0080 H       
  31 H31            1.2023    -1.7833    -0.0178 H       
  32 H32            4.0797    -0.9721     0.8522 H       
  33 H33            4.0624    -0.9631    -0.9351 H       
  34 H34            6.3524     1.8979     0.4651 H       
  35 H35            6.4932     0.1235     0.4552 H       
  36 H36            6.4213     3.1618    -1.6020 H       
  37 H37            7.2163     3.2474    -3.9286 H       
  38 H38            7.5556    -1.0238    -3.9524 H       
  39 H39            6.7688    -1.0899    -1.6223 H       
  40 H40           -0.8289     3.6509    -0.8614 H       
  41 H41           -0.8123     3.6419     0.9185 H       
  42 H42            0.7389     5.8908     0.5071 H       
  43 H43           -0.1830     7.1482    -1.4942 H       
  44 H44           -1.1664     5.6635    -1.9739 H       
  45 H45           -2.3835     5.7512     0.2499 H       
  46 H46           -1.4001     7.2359     0.7296 H       
  47 H47            7.8123     3.3097    -5.6755 H       
  48 H48            8.6126     3.3139    -8.0021 H       
  49 H49            8.1634    -0.9707    -5.6954 H       
  50 H50           10.0980    -1.4076    -8.0853 H       
  51 H51            8.4358    -2.0068    -7.8699 H       
  52 H52            8.8528    -1.0342    -9.3012 H       
@<TRIPOS>BOND
   1    1    2 ar
   2    1    6 ar
   3    2    3 ar
   4    2   30 1
   5    3    4 ar
   6    3   31 1
   7    4    7 1
   8    4    5 ar
   9    5    6 ar
  10    5    9 1
  11    6   17 1
  12    7    8 1
  13    7   32 1
  14    7   33 1
  15    8    9 am
  16    8   10 1
  17    9   18 2
  18   10   11 1
  19   10   34 1
  20   10   35 1
  21   11   12 ar
  22   11   16 ar
  23   12   13 ar
  24   12   36 1
  25   13   14 ar
  26   13   37 1
  27   14   15 ar
  28   14   19 1
  29   15   16 ar
  30   15   38 1
  31   16   39 1
  32   17   20 1
  33   19   24 ar
  34   19   28 ar
  35   20   21 1
  36   20   40 1
  37   20   41 1
  38   21   23 1
  39   21   22 1
  40   21   42 1
  41   22   23 1
  42   22   43 1
  43   22   44 1
  44   23   45 1
  45   23   46 1
  46   24   25 ar
  47   24   47 1
  48   25   26 ar
  49   25   48 1
  50   26   27 ar
  51   27   28 ar
  52   27   29 1
  53   28   49 1
  54   29   50 1
  55   29   51 1
  56   29   52 1

#	End of record

