#	Name: ASD00311051
#	Creating user name:	WinNT
#	Creation time:	15. 06. 2019 18:34

#	Modifying user name:	WinNT
#	Modification time:	15. 06. 2019 18:34

#	Program:	/corina/corina34_cracker 3.40 0067  02.08.2006

@<TRIPOS>MOLECULE
ASD00311051
  39   42    0    0    0
SMALL
NO_CHARGES


@<TRIPOS>ATOM
   1 C1            -0.0179     1.4694     0.0101 C.2     
   2 C2             0.0021    -0.0041     0.0020 C.ar    
   3 C3             1.2229    -0.6874    -0.0133 C.ar    
   4 C4             1.2406    -2.0525    -0.0203 C.ar    
   5 C5             0.0396    -2.7675    -0.0127 C.ar    
   6 C6            -1.1805    -2.0855     0.0022 C.ar    
   7 C7            -1.1997    -0.7204     0.0155 C.ar    
   8 O8             1.0261     2.0913     0.0035 O.2     
   9 O9            -1.1941     2.1274     0.0193 O.3     
  10 C10            0.1134    -7.0218    -0.0738 C.2     
  11 C11           -0.3998    -6.3843     1.0402 C.2     
  12 C12           -0.4279    -4.9605     1.0684 C.2     
  13 C13            0.0596    -4.2451    -0.0208 C.2     
  14 C14            0.5730    -4.9450    -1.1337 C.2     
  15 N15            0.5901    -6.2868    -1.1398 N.am    
  16 C16           -0.8528    -7.3303     2.0589 C.2     
  17 C17           -0.6899    -8.6107     1.7307 C.2     
  18 S18            0.0267    -8.7674     0.1391 S.3     
  19 O19            1.0026    -4.3277    -2.0942 O.2     
  20 C20           -1.4434    -6.9005     3.3480 C.ar    
  21 C21           -2.7744    -7.1959     3.6412 C.ar    
  22 C22           -3.3189    -6.7930     4.8434 C.ar    
  23 C23           -2.5473    -6.0970     5.7567 C.ar    
  24 C24           -1.2265    -5.8006     5.4712 C.ar    
  25 C25           -0.6689    -6.2040     4.2752 C.ar    
  26 O26           -0.9248    -4.3092     2.1452 O.3     
  27 Cl27          -1.1358    -9.9485     2.7432 Cl      
  28 H28            2.1510    -0.1351    -0.0199 H       
  29 H29            2.1829    -2.5801    -0.0322 H       
  30 H30           -2.1081    -2.6386     0.0074 H       
  31 H31           -2.1424    -0.1936     0.0315 H       
  32 H32           -1.1566     3.0936     0.0243 H       
  33 H33            0.9469    -6.7517    -1.9128 H       
  34 H34           -3.3779    -7.7386     2.9287 H       
  35 H35           -4.3495    -7.0212     5.0717 H       
  36 H36           -2.9779    -5.7834     6.6962 H       
  37 H37           -0.6292    -5.2566     6.1880 H       
  38 H38            0.3638    -5.9767     4.0557 H       
  39 H39           -0.9000    -3.3456     2.0680 H       
@<TRIPOS>BOND
   1    1    2 1
   2    1    8 2
   3    1    9 1
   4    2    3 ar
   5    2    7 ar
   6    3    4 ar
   7    3   28 1
   8    4    5 ar
   9    4   29 1
  10    5    6 ar
  11    5   13 1
  12    6    7 ar
  13    6   30 1
  14    7   31 1
  15    9   32 1
  16   10   11 2
  17   10   15 1
  18   10   18 1
  19   11   12 1
  20   11   16 1
  21   12   13 2
  22   12   26 1
  23   13   14 1
  24   14   15 am
  25   14   19 2
  26   15   33 1
  27   16   17 2
  28   16   20 1
  29   17   18 1
  30   17   27 1
  31   20   21 ar
  32   20   25 ar
  33   21   22 ar
  34   21   34 1
  35   22   23 ar
  36   22   35 1
  37   23   24 ar
  38   23   36 1
  39   24   25 ar
  40   24   37 1
  41   25   38 1
  42   26   39 1

#	End of record

