#	Name: ASD02030647
#	Creating user name:	WinNT
#	Creation time:	15. 06. 2019 20:15

#	Modifying user name:	WinNT
#	Modification time:	15. 06. 2019 20:15

#	Program:	/corina/corina34_cracker 3.40 0067  02.08.2006

@<TRIPOS>MOLECULE
ASD02030647
  67   70    0    0    0
SMALL
NO_CHARGES


@<TRIPOS>ATOM
   1 C1             0.3648     2.1813    -0.0974 C.ar    
   2 C2             0.2655     0.8063    -0.0981 C.ar    
   3 C3             1.4183     0.0345    -0.1279 C.ar    
   4 C4             2.6567     0.6521    -0.1509 C.ar    
   5 C5             2.7546     2.0376    -0.1436 C.ar    
   6 C6             1.6079     2.7999    -0.1260 C.ar    
   7 C7             1.6416     4.3076    -0.1507 C.3     
   8 C8             4.1354     2.6390    -0.1408 C.3     
   9 C9             4.0982     4.0892    -0.6200 C.3     
  10 N10            3.0100     4.7753     0.0944 N.am    
  11 C11            1.1710     4.8050    -1.5189 C.3     
  12 O12            1.9622     4.2000    -2.5436 O.3     
  13 C13            1.6716     4.5378    -3.8284 C.ar    
  14 C14            3.2613     5.7934     0.9411 C.2     
  15 S15            4.8774     6.2429     1.2836 S.2     
  16 C16            2.1431     6.5209     1.5733 C.ar    
  17 C17            1.0795     5.2250    -6.4438 C.ar    
  18 C18            0.3546     5.7803    -5.3998 C.ar    
  19 C19            0.6498     5.4372    -4.0948 C.ar    
  20 C20            2.4005     3.9873    -4.8720 C.ar    
  21 C21            2.1052     4.3304    -6.1771 C.ar    
  22 C22            2.2383     6.9345     2.9035 C.ar    
  23 C23            0.9874     6.8037     0.8417 C.ar    
  24 C24           -0.0533     7.4841     1.4385 C.ar    
  25 C25            0.0456     7.8865     2.7589 C.ar    
  26 C26            1.1896     7.6144     3.4878 C.ar    
  27 O27            0.7888     5.5628    -7.7286 O.3     
  28 C28            1.5757     4.9528    -8.7536 C.3     
  29 C29            1.2904     8.0617     4.9233 C.3     
  30 O30            1.3318    -1.3217    -0.1341 O.3     
  31 C31            0.0307    -1.8895     0.0300 C.3     
  32 C32           -0.5918    -2.1438    -1.3443 C.3     
  33 C33            0.1437    -3.2118     0.7913 C.3     
  34 C34            1.1057     5.4510   -10.1218 C.3     
  35 F35            1.8447     9.3451     4.9741 F       
  36 F36            0.0142     8.0819     5.4962 F       
  37 F37            2.1059     7.1731     5.6324 F       
  38 H38           -0.5321     2.7827    -0.0789 H       
  39 H39           -0.7046     0.3321    -0.0752 H       
  40 H40            3.5542     0.0518    -0.1743 H       
  41 H41            0.9808     4.6980     0.6233 H       
  42 H42            4.5386     2.6061     0.8714 H       
  43 H43            4.7802     2.0595    -0.8016 H       
  44 H44            5.0486     4.5750    -0.3991 H       
  45 H45            3.9092     4.1181    -1.6931 H       
  46 H46            0.1242     4.5374    -1.6624 H       
  47 H47            1.2791     5.8885    -1.5685 H       
  48 H48           -0.4442     6.4769    -5.6075 H       
  49 H49            0.0849     5.8689    -3.2819 H       
  50 H50            3.1993     3.2907    -4.6643 H       
  51 H51            2.6697     3.8980    -6.9900 H       
  52 H52            3.1306     6.7224     3.4737 H       
  53 H53            0.9090     6.4905    -0.1889 H       
  54 H54           -0.9474     7.7038     0.8739 H       
  55 H55           -0.7722     8.4194     3.2211 H       
  56 H56            2.6240     5.2154    -8.6117 H       
  57 H57            1.4623     3.8699    -8.7027 H       
  58 H58           -0.5986    -1.1994     0.5919 H       
  59 H59            0.0376    -2.8339    -1.9062 H       
  60 H60           -1.5842    -2.5769    -1.2191 H       
  61 H61           -0.6723    -1.2017    -1.8867 H       
  62 H62            0.5872    -3.0307     1.7704 H       
  63 H63           -0.8487    -3.6450     0.9164 H       
  64 H64            0.7731    -3.9020     0.2294 H       
  65 H65            0.0574     5.1883   -10.2637 H       
  66 H66            1.2191     6.5339   -10.1727 H       
  67 H67            1.7059     4.9857   -10.9037 H       
@<TRIPOS>BOND
   1    1    2 ar
   2    1    6 ar
   3    1   38 1
   4    2    3 ar
   5    2   39 1
   6    3    4 ar
   7    3   30 1
   8    4    5 ar
   9    4   40 1
  10    5    6 ar
  11    5    8 1
  12    6    7 1
  13    7   10 1
  14    7   11 1
  15    7   41 1
  16    8    9 1
  17    8   42 1
  18    8   43 1
  19    9   10 1
  20    9   44 1
  21    9   45 1
  22   10   14 am
  23   11   12 1
  24   11   46 1
  25   11   47 1
  26   12   13 1
  27   13   20 ar
  28   13   19 ar
  29   14   15 2
  30   14   16 1
  31   16   23 ar
  32   16   22 ar
  33   17   18 ar
  34   17   21 ar
  35   17   27 1
  36   18   19 ar
  37   18   48 1
  38   19   49 1
  39   20   21 ar
  40   20   50 1
  41   21   51 1
  42   22   26 ar
  43   22   52 1
  44   23   24 ar
  45   23   53 1
  46   24   25 ar
  47   24   54 1
  48   25   26 ar
  49   25   55 1
  50   26   29 1
  51   27   28 1
  52   28   34 1
  53   28   56 1
  54   28   57 1
  55   29   35 1
  56   29   36 1
  57   29   37 1
  58   30   31 1
  59   31   32 1
  60   31   33 1
  61   31   58 1
  62   32   59 1
  63   32   60 1
  64   32   61 1
  65   33   62 1
  66   33   63 1
  67   33   64 1
  68   34   65 1
  69   34   66 1
  70   34   67 1

#	End of record

