#	Name: ASD05723010
#	Creating user name:	WinNT
#	Creation time:	15. 06. 2019 21:02

#	Modifying user name:	WinNT
#	Modification time:	15. 06. 2019 21:02

#	Program:	/corina/corina34_cracker 3.40 0067  02.08.2006

@<TRIPOS>MOLECULE
ASD05723010
  65   69    0    0    0
SMALL
NO_CHARGES


@<TRIPOS>ATOM
   1 C1            -1.8226     1.8761     1.0360 C.3     
   2 C2            -0.9254     0.6889     0.6804 C.3     
   3 C3            -0.1946     0.2062     1.9362 C.3     
   4 O4             0.5842    -0.9492     1.6140 O.3     
   5 C5            -0.1861    -2.0356     1.0927 C.3     
   6 C6            -0.9168    -1.5757    -0.1716 C.3     
   7 N7            -1.7487    -0.4063     0.1474 N.3     
   8 C8            -2.4649     0.0058    -0.9553 C.ar    
   9 N9            -1.9332     0.8392    -1.8388 N.ar    
  10 C10           -2.6161     1.2423    -2.9062 C.ar    
  11 N11           -3.8504     0.8478    -3.1570 N.ar    
  12 C12           -4.4787     0.0046    -2.3245 C.ar    
  13 C13           -3.7853    -0.4544    -1.1770 C.ar    
  14 C14           -4.4202    -1.3411    -0.2959 C.ar    
  15 C15           -5.6964    -1.7359    -0.5855 C.ar    
  16 C16           -6.3295    -1.2523    -1.7382 C.ar    
  17 N17           -5.7241    -0.4073    -2.5568 N.ar    
  18 C18           -7.7127    -1.6881    -2.0412 C.ar    
  19 C19           -8.3593    -1.2175    -3.1838 C.ar    
  20 C20           -9.6462    -1.6254    -3.4631 C.ar    
  21 C21          -10.2987    -2.5039    -2.6081 C.ar    
  22 C22           -9.6575    -2.9745    -1.4692 C.ar    
  23 C23           -8.3691    -2.5747    -1.1871 C.ar    
  24 O24          -11.5667    -2.9034    -2.8858 O.3     
  25 C25          -12.1784    -3.8080    -1.9641 C.3     
  26 C26          -10.3458    -1.1170    -4.6973 C.3     
  27 O27           -9.4757    -0.2341    -5.4084 O.3     
  28 N28           -2.0074     2.1121    -3.7907 N.3     
  29 C29           -1.7103     3.3986    -3.1443 C.3     
  30 C30           -1.0930     4.3499    -4.1728 C.3     
  31 O31            0.0742     3.7440    -4.7349 O.3     
  32 C32           -0.1790     2.4895    -5.3732 C.3     
  33 C33           -0.7870     1.5194    -4.3568 C.3     
  34 C34           -1.1342     0.2018    -5.0526 C.3     
  35 H35           -1.2217     2.6607     1.4958 H       
  36 H36           -2.2915     2.2611     0.1305 H       
  37 H37           -2.5937     1.5522     1.7350 H       
  38 H38           -0.1964     0.9954    -0.0697 H       
  39 H39            0.4609     0.9965     2.3022 H       
  40 H40           -0.9231    -0.0489     2.7058 H       
  41 H41            0.4756    -2.8668     0.8487 H       
  42 H42           -0.9143    -2.3560     1.8378 H       
  43 H43           -0.1876    -1.3061    -0.9357 H       
  44 H44           -1.5497    -2.3830    -0.5402 H       
  45 H45           -3.9146    -1.7027     0.5873 H       
  46 H46           -6.2148    -2.4184     0.0716 H       
  47 H47           -7.8525    -0.5340    -3.8490 H       
  48 H48          -10.1678    -3.6573    -0.8061 H       
  49 H49           -7.8696    -2.9444    -0.3038 H       
  50 H50          -11.5887    -4.7230    -1.9075 H       
  51 H51          -12.2264    -3.3452    -0.9784 H       
  52 H52          -13.1865    -4.0459    -2.3034 H       
  53 H53          -10.6114    -1.9585    -5.3370 H       
  54 H54          -11.2497    -0.5811    -4.4078 H       
  55 H55           -9.8614     0.1320    -6.2161 H       
  56 H56           -2.6316     3.8317    -2.7549 H       
  57 H57           -1.0073     3.2411    -2.3263 H       
  58 H58           -1.8160     4.5498    -4.9636 H       
  59 H59           -0.8185     5.2851    -3.6849 H       
  60 H60           -0.8754     2.6353    -6.1989 H       
  61 H61            0.7566     2.0792    -5.7534 H       
  62 H62           -0.0692     1.3318    -3.5582 H       
  63 H63           -1.8387     0.3930    -5.8621 H       
  64 H64           -0.2267    -0.2448    -5.4588 H       
  65 H65           -1.5847    -0.4816    -4.3328 H       
@<TRIPOS>BOND
   1    1    2 1
   2    1   35 1
   3    1   36 1
   4    1   37 1
   5    2    3 1
   6    2    7 1
   7    2   38 1
   8    3    4 1
   9    3   39 1
  10    3   40 1
  11    4    5 1
  12    5    6 1
  13    5   41 1
  14    5   42 1
  15    6    7 1
  16    6   43 1
  17    6   44 1
  18    7    8 1
  19    8    9 ar
  20    8   13 ar
  21    9   10 ar
  22   10   11 ar
  23   10   28 1
  24   11   12 ar
  25   12   13 ar
  26   12   17 ar
  27   13   14 ar
  28   14   15 ar
  29   14   45 1
  30   15   16 ar
  31   15   46 1
  32   16   17 ar
  33   16   18 1
  34   18   19 ar
  35   18   23 ar
  36   19   20 ar
  37   19   47 1
  38   20   21 ar
  39   20   26 1
  40   21   22 ar
  41   21   24 1
  42   22   23 ar
  43   22   48 1
  44   23   49 1
  45   24   25 1
  46   25   50 1
  47   25   51 1
  48   25   52 1
  49   26   27 1
  50   26   53 1
  51   26   54 1
  52   27   55 1
  53   28   29 1
  54   28   33 1
  55   29   30 1
  56   29   56 1
  57   29   57 1
  58   30   31 1
  59   30   58 1
  60   30   59 1
  61   31   32 1
  62   32   33 1
  63   32   60 1
  64   32   61 1
  65   33   34 1
  66   33   62 1
  67   34   63 1
  68   34   64 1
  69   34   65 1

#	End of record

