#	Name: ASD04430054
#	Creating user name:	WinNT
#	Creation time:	15. 06. 2019 20:49

#	Modifying user name:	WinNT
#	Modification time:	15. 06. 2019 20:49

#	Program:	/corina/corina34_cracker 3.40 0067  02.08.2006

@<TRIPOS>MOLECULE
ASD04430054
  47   50    0    0    0
SMALL
NO_CHARGES


@<TRIPOS>ATOM
   1 N1             0.5039     1.7720    -0.5608 N.am    
   2 C2             0.3765     0.4301    -0.4045 C.2     
   3 N3             1.3954    -0.3755    -0.3311 N.2     
   4 C4             2.6585     0.0709    -0.4063 C.2     
   5 C5             2.8903     1.4461    -0.5689 C.2     
   6 C6             1.7316     2.3353    -0.6488 C.2     
   7 N7             3.8810    -0.5260    -0.3612 N.pl3   
   8 N8             4.8596     0.4672    -0.4943 N.2     
   9 C9             4.2846     1.6322    -0.6172 C.2     
  10 O10            1.8665     3.5380    -0.7897 O.2     
  11 C11           -1.0095    -0.1540    -0.3111 C.3     
  12 C12           -0.9130    -1.6712    -0.1389 C.3     
  13 C13            4.1193    -1.8976    -0.2081 C.ar    
  14 C14            3.4177    -2.8159    -0.9778 C.ar    
  15 C15            3.6555    -4.1679    -0.8248 C.ar    
  16 C16            4.5906    -4.6073     0.0940 C.ar    
  17 C17            5.2911    -3.6951     0.8622 C.ar    
  18 C18            5.0622    -2.3419     0.7099 C.ar    
  19 C19           -0.2478    -1.9911     1.2013 C.3     
  20 C20            5.8259    -1.3487     1.5474 C.3     
  21 C21           -2.3171    -2.2783    -0.1691 C.3     
  22 C22           -2.2206    -3.7955     0.0031 C.3     
  23 C23           -1.5553    -4.1154     1.3433 C.3     
  24 C24           -0.1513    -3.5083     1.3734 C.3     
  25 O25           -2.9384    -1.9795    -1.4208 O.3     
  26 H26           -0.2882     2.3294    -0.6138 H       
  27 H27            4.7922     2.5780    -0.7360 H       
  28 H28           -1.5283     0.2766     0.5454 H       
  29 H29           -1.5620     0.0738    -1.2226 H       
  30 H30           -0.3179    -2.0917    -0.9495 H       
  31 H31            2.6866    -2.4734    -1.6952 H       
  32 H32            3.1100    -4.8827    -1.4232 H       
  33 H33            4.7742    -5.6650     0.2123 H       
  34 H34            6.0207    -4.0414     1.5793 H       
  35 H35            0.7525    -1.5587     1.2228 H       
  36 H36           -0.8429    -1.5706     2.0119 H       
  37 H37            6.6921    -0.9930     0.9895 H       
  38 H38            5.1793    -0.5056     1.7909 H       
  39 H39            6.1586    -1.8291     2.4675 H       
  40 H40           -2.9122    -1.8578     0.6415 H       
  41 H41           -3.2209    -4.2280    -0.0184 H       
  42 H42           -1.6254    -4.2160    -0.8075 H       
  43 H43           -2.1505    -3.6949     2.1539 H       
  44 H44           -1.4866    -5.1963     1.4659 H       
  45 H45            0.4439    -3.9289     0.5628 H       
  46 H46            0.3227    -3.7362     2.3282 H       
  47 H47           -3.8335    -2.3343    -1.5102 H       
@<TRIPOS>BOND
   1    1    2 1
   2    1    6 am
   3    1   26 1
   4    2    3 2
   5    2   11 1
   6    3    4 1
   7    4    5 2
   8    4    7 1
   9    5    6 1
  10    5    9 1
  11    6   10 2
  12    7    8 1
  13    7   13 1
  14    8    9 2
  15    9   27 1
  16   11   12 1
  17   11   28 1
  18   11   29 1
  19   12   21 1
  20   12   19 1
  21   12   30 1
  22   13   14 ar
  23   13   18 ar
  24   14   15 ar
  25   14   31 1
  26   15   16 ar
  27   15   32 1
  28   16   17 ar
  29   16   33 1
  30   17   18 ar
  31   17   34 1
  32   18   20 1
  33   19   24 1
  34   19   35 1
  35   19   36 1
  36   20   37 1
  37   20   38 1
  38   20   39 1
  39   21   22 1
  40   21   25 1
  41   21   40 1
  42   22   23 1
  43   22   41 1
  44   22   42 1
  45   23   24 1
  46   23   43 1
  47   23   44 1
  48   24   45 1
  49   24   46 1
  50   25   47 1

#	End of record

