#	Name: ASD03320101
#	Creating user name:	WinNT
#	Creation time:	15. 06. 2019 20:36

#	Modifying user name:	WinNT
#	Modification time:	15. 06. 2019 20:36

#	Program:	/corina/corina34_cracker 3.40 0067  02.08.2006

@<TRIPOS>MOLECULE
ASD03320101
  38   40    0    0    0
SMALL
NO_CHARGES


@<TRIPOS>ATOM
   1 C1            -0.0077     1.3432    -0.1949 C.ar    
   2 C2             0.0217    -0.0349     0.0276 C.ar    
   3 C3            -1.1538    -0.7588     0.0438 C.ar    
   4 C4            -2.3644    -0.1255    -0.1591 C.ar    
   5 C5            -2.4070     1.2505    -0.3818 C.ar    
   6 C6            -1.2278     1.9875    -0.3949 C.ar    
   7 C7             1.2512     2.1181    -0.2122 C.2     
   8 O8             1.2238     3.3180    -0.4060 O.2     
   9 N9             2.4292     1.4944    -0.0131 N.am    
  10 C10            3.6283     2.2096    -0.1264 C.ar    
  11 C11           -3.7092     1.9281    -0.6000 C.ar    
  12 C12            3.6883     3.5342     0.2866 C.ar    
  13 C13            4.8697     4.2393     0.1751 C.ar    
  14 C14            5.9992     3.6235    -0.3501 C.ar    
  15 C15            5.9389     2.2980    -0.7629 C.ar    
  16 C16            4.7584     1.5921    -0.6466 C.ar    
  17 S17            7.5073     4.5233    -0.4932 S.3     
  18 C18            8.6420     3.3058    -1.2150 C.3     
  19 F19            8.1475     2.8846    -2.4540 F       
  20 C20           -4.9051     1.2061    -0.5863 C.ar    
  21 N21           -6.0431     1.8490    -0.7846 N.ar    
  22 C22           -6.0589     3.1507    -0.9928 C.ar    
  23 N23           -4.9537     3.8691    -1.0136 N.ar    
  24 C24           -3.7734     3.3063    -0.8190 C.ar    
  25 F25            9.9018     3.8884    -1.3893 F       
  26 F26            8.7516     2.2053    -0.3582 F       
  27 H27            0.9654    -0.5354     0.1868 H       
  28 H28           -1.1266    -1.8247     0.2155 H       
  29 H29           -3.2803    -0.6975    -0.1455 H       
  30 H30           -1.2564     3.0533    -0.5666 H       
  31 H31            2.4467     0.5503     0.2087 H       
  32 H32            2.8103     4.0128     0.6948 H       
  33 H33            4.9161     5.2696     0.4957 H       
  34 H34            6.8166     1.8191    -1.1711 H       
  35 H35            4.7114     0.5619    -0.9673 H       
  36 H36           -4.9000     0.1395    -0.4168 H       
  37 H37           -7.0066     3.6437    -1.1516 H       
  38 H38           -2.8724     3.9014    -0.8371 H       
@<TRIPOS>BOND
   1    1    2 ar
   2    1    7 1
   3    1    6 ar
   4    2    3 ar
   5    2   27 1
   6    3    4 ar
   7    3   28 1
   8    4    5 ar
   9    4   29 1
  10    5    6 ar
  11    5   11 1
  12    6   30 1
  13    7    8 2
  14    7    9 am
  15    9   10 1
  16    9   31 1
  17   10   12 ar
  18   10   16 ar
  19   11   20 ar
  20   11   24 ar
  21   12   13 ar
  22   12   32 1
  23   13   14 ar
  24   13   33 1
  25   14   15 ar
  26   14   17 1
  27   15   16 ar
  28   15   34 1
  29   16   35 1
  30   17   18 1
  31   18   19 1
  32   18   25 1
  33   18   26 1
  34   20   21 ar
  35   20   36 1
  36   21   22 ar
  37   22   23 ar
  38   22   37 1
  39   23   24 ar
  40   24   38 1

#	End of record

