#	Name: ASD01911197
#	Creating user name:	WinNT
#	Creation time:	15. 06. 2019 19:57

#	Modifying user name:	WinNT
#	Modification time:	15. 06. 2019 19:57

#	Program:	/corina/corina34_cracker 3.40 0067  02.08.2006

@<TRIPOS>MOLECULE
ASD01911197
  40   41    0    0    0
SMALL
NO_CHARGES


@<TRIPOS>ATOM
   1 N1            -0.0169     1.3965     0.0097 N.2     
   2 N2             0.0021    -0.0041     0.0020 N.pl3   
   3 C3             1.2284     1.8226     0.0001 C.2     
   4 C4             2.0722     0.6950    -0.0140 C.2     
   5 C5             1.2909    -0.4070    -0.0125 C.2     
   6 C6             1.7727    -1.8348    -0.0243 C.3     
   7 C7             1.6661     3.2408     0.0031 C.ar    
   8 C8             3.0185     3.5554    -0.1136 C.ar    
   9 C9             3.4199     4.8757    -0.1108 C.ar    
  10 C10            2.4824     5.8861     0.0078 C.ar    
  11 C11            1.1389     5.5794     0.1244 C.ar    
  12 C12            0.7258     4.2623     0.1169 C.ar    
  13 C13           -1.1724    -0.8798     0.0090 C.3     
  14 C14           -1.5888    -1.1729    -1.4094 C.2     
  15 O15           -2.6491    -1.9606    -1.6484 O.3     
  16 O16           -0.9682    -0.6990    -2.3314 O.2     
  17 C17           -2.9926    -2.1997    -3.0388 C.3     
  18 C18            2.0688    -2.2850     1.4077 C.3     
  19 C19            0.1235     6.6854     0.2541 C.3     
  20 C20           -0.3549     7.1043    -1.1375 C.3     
  21 H21            3.1521     0.7089    -0.0246 H       
  22 H22            1.0023    -2.4747    -0.4544 H       
  23 H23            2.6808    -1.9069    -0.6229 H       
  24 H24            3.7513     2.7674    -0.2058 H       
  25 H25            4.4679     5.1207    -0.2008 H       
  26 H26            2.8009     6.9180     0.0096 H       
  27 H27           -0.3236     4.0239     0.2080 H       
  28 H28           -0.9267    -1.8130     0.5158 H       
  29 H29           -1.9906    -0.3861     0.5332 H       
  30 H30           -3.8657    -2.8500    -3.0907 H       
  31 H31           -3.2169    -1.2508    -3.5260 H       
  32 H32           -2.1530    -2.6777    -3.5434 H       
  33 H33            1.1607    -2.2130     2.0063 H       
  34 H34            2.4173    -3.3178     1.3991 H       
  35 H35            2.8392    -1.6451     1.8378 H       
  36 H36           -0.7257     6.3323     0.8392 H       
  37 H37            0.5791     7.5401     0.7542 H       
  38 H38           -1.0893     7.9043    -1.0437 H       
  39 H39            0.4942     7.4575    -1.7226 H       
  40 H40           -0.8105     6.2497    -1.6377 H       
@<TRIPOS>BOND
   1    1    2 1
   2    1    3 2
   3    2   13 1
   4    2    5 1
   5    3    4 1
   6    3    7 1
   7    4    5 2
   8    4   21 1
   9    5    6 1
  10    6   18 1
  11    6   22 1
  12    6   23 1
  13    7    8 ar
  14    7   12 ar
  15    8    9 ar
  16    8   24 1
  17    9   10 ar
  18    9   25 1
  19   10   11 ar
  20   10   26 1
  21   11   12 ar
  22   11   19 1
  23   12   27 1
  24   13   14 1
  25   13   28 1
  26   13   29 1
  27   14   15 1
  28   14   16 2
  29   15   17 1
  30   17   30 1
  31   17   31 1
  32   17   32 1
  33   18   33 1
  34   18   34 1
  35   18   35 1
  36   19   20 1
  37   19   36 1
  38   19   37 1
  39   20   38 1
  40   20   39 1
  41   20   40 1

#	End of record

