#	Name: ASD01870657
#	Creating user name:	WinNT
#	Creation time:	15. 06. 2019 19:39

#	Modifying user name:	WinNT
#	Modification time:	15. 06. 2019 19:39

#	Program:	/corina/corina34_cracker 3.40 0067  02.08.2006

@<TRIPOS>MOLECULE
ASD01870657
  46   49    0    0    0
SMALL
NO_CHARGES


@<TRIPOS>ATOM
   1 C1            -0.3536     1.4403    -0.5702 C.ar    
   2 N2            -0.2829     0.0441    -0.6079 N.am    
   3 C3            -1.1512    -0.6943     0.1114 C.2     
   4 C4            -1.1441    -2.1656    -0.0075 C.ar    
   5 C5            -0.2305    -4.1677    -0.9694 C.ar    
   6 C6            -0.2342    -2.7949    -0.8610 C.ar    
   7 C7            -2.0436    -2.9327     0.7375 C.ar    
   8 C8            -2.0341    -4.3051     0.6240 C.ar    
   9 C9            -1.1309    -4.9276    -0.2307 C.ar    
  10 N10           -1.1246    -6.3211    -0.3437 N.am    
  11 C11           -0.5933    -8.5529     0.0455 C.3     
  12 C12           -0.3603    -7.1067     0.4249 C.2     
  13 C13           -1.8866    -6.9799    -1.2255 C.2     
  14 C14           -1.6388    -8.4660    -1.0851 C.3     
  15 C15           -1.9905    -9.1452     0.2400 C.3     
  16 C16           -2.1164   -10.6700     0.2392 C.3     
  17 C17           -2.9452    -8.4061     1.1797 C.3     
  18 O18            0.3986    -6.7208     1.2878 O.2     
  19 O19           -2.6537    -6.4672    -2.0117 O.2     
  20 C20           -0.7008     2.0879     0.6082 C.ar    
  21 C21           -0.7692     3.4670     0.6422 C.ar    
  22 C22           -0.4925     4.2027    -0.4953 C.ar    
  23 C23           -0.1468     3.5608    -1.6706 C.ar    
  24 C24           -0.0711     2.1826    -1.7098 C.ar    
  25 O25           -1.9403    -0.1485     0.8583 O.2     
  26 H26            0.2750    -9.2094    -0.0114 H       
  27 H27           -1.5597    -9.0563    -1.9980 H       
  28 C28           -1.1463     4.1706     1.9204 C.3     
  29 H29            0.3910    -0.3929    -1.1518 H       
  30 H30            0.4725    -4.6548    -1.6289 H       
  31 H31            0.4652    -2.2054    -1.4352 H       
  32 H32           -2.7450    -2.4500     1.4018 H       
  33 H33           -2.7288    -4.8987     1.1998 H       
  34 H34           -1.5122   -11.0849     1.0460 H       
  35 H35           -3.1599   -10.9485     0.3866 H       
  36 H36           -1.7668   -11.0630    -0.7155 H       
  37 H37           -3.1098    -7.3945     0.8084 H       
  38 H38           -3.8964    -8.9367     1.2223 H       
  39 H39           -2.5097    -8.3603     2.1779 H       
  40 H40           -0.9174     1.5138     1.4970 H       
  41 H41           -0.5467     5.2810    -0.4660 H       
  42 H42            0.0684     4.1384    -2.5575 H       
  43 H43            0.1988     1.6819    -2.6279 H       
  44 H44           -0.2463     4.3828     2.4976 H       
  45 H45           -1.6552     5.1052     1.6842 H       
  46 H46           -1.8102     3.5328     2.5040 H       
@<TRIPOS>BOND
   1    1    2 1
   2    1   20 ar
   3    1   24 ar
   4    2    3 am
   5    2   29 1
   6    3    4 1
   7    3   25 2
   8    4    7 ar
   9    4    6 ar
  10    5    6 ar
  11    5    9 ar
  12    5   30 1
  13    6   31 1
  14    7    8 ar
  15    7   32 1
  16    8    9 ar
  17    8   33 1
  18    9   10 1
  19   10   13 am
  20   10   12 am
  21   11   12 1
  22   11   14 1
  23   11   15 1
  24   11   26 1
  25   12   18 2
  26   13   14 1
  27   13   19 2
  28   14   27 1
  29   14   15 1
  30   15   16 1
  31   15   17 1
  32   16   34 1
  33   16   35 1
  34   16   36 1
  35   17   37 1
  36   17   38 1
  37   17   39 1
  38   20   21 ar
  39   20   40 1
  40   21   22 ar
  41   21   28 1
  42   22   23 ar
  43   22   41 1
  44   23   24 ar
  45   23   42 1
  46   24   43 1
  47   28   44 1
  48   28   45 1
  49   28   46 1

#	End of record

