#	Name: ASD01915137
#	Creating user name:	WinNT
#	Creation time:	15. 06. 2019 20:04

#	Modifying user name:	WinNT
#	Modification time:	15. 06. 2019 20:04

#	Program:	/corina/corina34_cracker 3.40 0067  02.08.2006

@<TRIPOS>MOLECULE
ASD01915137
  38   41    0    0    0
SMALL
NO_CHARGES


@<TRIPOS>ATOM
   1 C1            -0.0169     1.3924     0.0097 C.ar    
   2 C2             0.0021    -0.0041     0.0020 C.ar    
   3 N3            -1.1430    -0.6903     0.0092 N.ar    
   4 C4            -2.3136    -0.0965     0.0236 C.ar    
   5 C5            -2.4136     1.2863     0.0316 C.ar    
   6 C6            -1.2657     2.0479     0.0305 C.ar    
   7 C7             1.3286     1.9586    -0.0001 C.2     
   8 C8             2.3058     1.0549    -0.0143 C.2     
   9 S9             1.6661    -0.5766    -0.0169 S.3     
  10 C10            1.5853     3.4181     0.0053 C.ar    
  11 C11            1.2155     4.1894     1.1060 C.ar    
  12 S12            4.0232     1.4487    -0.0291 S.o2    
  13 O13            4.6882     0.3231    -0.5858 O.2     
  14 O14            4.1297     2.7593    -0.5679 O.2     
  15 C15            4.5480     1.5567     1.6495 C.ar    
  16 C16            5.0200     0.4338     2.2964 C.ar    
  17 C17            4.4910     2.7693     2.3139 C.ar    
  18 C18            4.9019     2.8633     3.6316 C.ar    
  19 C19            5.3717     1.7469     4.2923 C.ar    
  20 C20            5.4360     0.5213     3.6266 C.ar    
  21 C21            1.4573     5.5494     1.1050 C.ar    
  22 C22            2.0651     6.1458     0.0136 C.ar    
  23 C23            2.4338     5.3845    -1.0811 C.ar    
  24 C24            2.2028     4.0242    -1.0885 C.ar    
  25 Cl25           0.9978     6.5123     2.4745 Cl      
  26 C26            5.9222    -0.6416     4.3062 C.1     
  27 N27            6.3079    -1.5641     4.8453 N.1     
  28 H28           -3.2129    -0.6945     0.0290 H       
  29 H29           -3.3830     1.7623     0.0430 H       
  30 H30           -1.3209     3.1265     0.0366 H       
  31 H31            0.7406     3.7248     1.9575 H       
  32 H32            5.0675    -0.5111     1.7755 H       
  33 H33            4.1243     3.6463     1.8014 H       
  34 H34            4.8550     3.8127     4.1441 H       
  35 H35            5.6929     1.8218     5.3207 H       
  36 H36            2.2517     7.2096     0.0165 H       
  37 H37            2.9077     5.8552    -1.9298 H       
  38 H38            2.4913     3.4313    -1.9438 H       
@<TRIPOS>BOND
   1    1    2 ar
   2    1    7 1
   3    1    6 ar
   4    2    3 ar
   5    2    9 1
   6    3    4 ar
   7    4    5 ar
   8    4   28 1
   9    5    6 ar
  10    5   29 1
  11    6   30 1
  12    7    8 2
  13    7   10 1
  14    8    9 1
  15    8   12 1
  16   10   11 ar
  17   10   24 ar
  18   11   21 ar
  19   11   31 1
  20   12   13 2
  21   12   14 2
  22   12   15 1
  23   15   16 ar
  24   15   17 ar
  25   16   20 ar
  26   16   32 1
  27   17   18 ar
  28   17   33 1
  29   18   19 ar
  30   18   34 1
  31   19   20 ar
  32   19   35 1
  33   20   26 1
  34   21   22 ar
  35   21   25 1
  36   22   23 ar
  37   22   36 1
  38   23   24 ar
  39   23   37 1
  40   24   38 1
  41   26   27 3

#	End of record

