#	Name: ASD01910751
#	Creating user name:	WinNT
#	Creation time:	15. 06. 2019 19:56

#	Modifying user name:	WinNT
#	Modification time:	15. 06. 2019 19:56

#	Program:	/corina/corina34_cracker 3.40 0067  02.08.2006

@<TRIPOS>MOLECULE
ASD01910751
  50   53    0    0    0
SMALL
NO_CHARGES


@<TRIPOS>ATOM
   1 C1            -0.1169     1.7523     0.3984 C.ar    
   2 C2            -0.0221     0.3718     0.4105 C.ar    
   3 C3            -1.1656    -0.4006     0.3556 C.ar    
   4 C4            -2.4117     0.2094     0.2888 C.ar    
   5 C5            -2.5039     1.5953     0.2773 C.ar    
   6 C6            -1.3573     2.3628     0.3377 C.ar    
   7 N7            -3.5704    -0.5697     0.2327 N.3     
   8 C8            -4.7703     0.2753     0.1672 C.3     
   9 C9            -5.9996    -0.6069    -0.0749 C.3     
  10 N10           -6.0328    -1.6552     0.9563 N.am    
  11 C11           -4.8178    -2.4546     1.1752 C.3     
  12 C12           -3.6349    -1.4997     1.3680 C.3     
  13 C13           -7.1471    -1.8776     1.6811 C.2     
  14 C14           -7.2008    -3.0153     2.6242 C.ar    
  15 O15           -8.1079    -1.1431     1.5595 O.2     
  16 C16           -7.8252    -2.8669     3.8646 C.ar    
  17 C17           -7.8772    -3.9281     4.7471 C.ar    
  18 C18           -7.3133    -5.1422     4.4109 C.ar    
  19 C19           -6.6849    -5.3052     3.1724 C.ar    
  20 C20           -6.6338    -4.2389     2.2748 C.ar    
  21 C21           -6.0997    -6.5651     2.8245 C.1     
  22 C22           -5.6200    -7.5980     2.5393 C.1     
  23 C23           -5.0349    -8.8578     2.1915 C.ar    
  24 C24           -4.4065    -9.0224     0.9543 C.ar    
  25 C25           -3.8448   -10.2386     0.6264 C.ar    
  26 C26           -3.9027   -11.2945     1.5189 C.ar    
  27 C27           -4.5237   -11.1391     2.7458 C.ar    
  28 C28           -5.0844    -9.9269     3.0900 C.ar    
  29 Cl29           1.3227     2.7202     0.4670 Cl      
  30 H30            0.9470    -0.1020     0.4625 H       
  31 H31           -1.0911    -1.4780     0.3643 H       
  32 H32           -3.4714     2.0722     0.2251 H       
  33 H33           -1.4283     3.4404     0.3291 H       
  34 H34           -4.8881     0.8132     1.1078 H       
  35 H35           -4.6682     0.9891    -0.6502 H       
  36 H36           -6.9035    -0.0011    -0.0103 H       
  37 H37           -5.9326    -1.0657    -1.0613 H       
  38 H38           -4.9402    -3.0704     2.0662 H       
  39 H39           -4.6371    -3.0910     0.3089 H       
  40 H40           -2.7095    -2.0731     1.4215 H       
  41 H41           -3.7686    -0.9370     2.2920 H       
  42 H42           -8.2683    -1.9197     4.1347 H       
  43 H43           -8.3611    -3.8072     5.7051 H       
  44 H44           -7.3572    -5.9677     5.1059 H       
  45 H45           -6.1498    -4.3588     1.3168 H       
  46 H46           -4.3612    -8.1994     0.2564 H       
  47 H47           -3.3588   -10.3673    -0.3295 H       
  48 H48           -3.4614   -12.2446     1.2566 H       
  49 H49           -4.5657   -11.9677     3.4371 H       
  50 H50           -5.5688    -9.8070     4.0478 H       
@<TRIPOS>BOND
   1    1    2 ar
   2    1   29 1
   3    1    6 ar
   4    2    3 ar
   5    2   30 1
   6    3    4 ar
   7    3   31 1
   8    4    5 ar
   9    4    7 1
  10    5    6 ar
  11    5   32 1
  12    6   33 1
  13    7    8 1
  14    7   12 1
  15    8    9 1
  16    8   34 1
  17    8   35 1
  18    9   10 1
  19    9   36 1
  20    9   37 1
  21   10   11 1
  22   10   13 am
  23   11   12 1
  24   11   38 1
  25   11   39 1
  26   12   40 1
  27   12   41 1
  28   13   14 1
  29   13   15 2
  30   14   16 ar
  31   14   20 ar
  32   16   17 ar
  33   16   42 1
  34   17   18 ar
  35   17   43 1
  36   18   19 ar
  37   18   44 1
  38   19   20 ar
  39   19   21 1
  40   20   45 1
  41   21   22 3
  42   22   23 1
  43   23   24 ar
  44   23   28 ar
  45   24   25 ar
  46   24   46 1
  47   25   26 ar
  48   25   47 1
  49   26   27 ar
  50   26   48 1
  51   27   28 ar
  52   27   49 1
  53   28   50 1

#	End of record

