#	Name: ASD09890098
#	Creating user name:	WinNT
#	Creation time:	15. 06. 2019 21:24

#	Modifying user name:	WinNT
#	Modification time:	15. 06. 2019 21:24

#	Program:	/corina/corina34_cracker 3.40 0067  02.08.2006

@<TRIPOS>MOLECULE
ASD09890098
  57   61    0    0    0
SMALL
NO_CHARGES


@<TRIPOS>ATOM
   1 C1            -0.0171     1.3672     0.0645 C.2     
   2 N2            -0.0052    -0.0001     0.0345 N.pl3   
   3 C3            -1.2992    -0.4349     0.1214 C.2     
   4 N4            -2.0751     0.6197     0.2015 N.2     
   5 N5            -1.2612     1.7595     0.1706 N.2     
   6 S6            -1.8301    -2.1150     0.1245 S.3     
   7 C7            -3.6333    -1.9729     0.2617 C.3     
   8 C8             1.1333    -0.8132    -0.0681 C.ar    
   9 C9             2.0809    -0.8331     0.9511 C.ar    
  10 C10            3.1887    -1.6523     0.8041 C.ar    
  11 C11            3.3157    -2.4169    -0.3403 C.ar    
  12 N12            2.3994    -2.3752    -1.2880 N.ar    
  13 C13            1.3282    -1.6142    -1.1851 C.ar    
  14 C14           -4.2814    -3.3643     0.1534 C.3     
  15 C15           -5.0348    -3.6038     1.4781 C.3     
  16 C16           -5.3100    -2.1796     2.0214 C.3     
  17 C17           -4.0154    -1.4154     1.6484 C.3     
  18 O18            1.0706     2.1751     0.0014 O.3     
  19 C19            0.8655     3.5142    -0.0937 C.ar    
  20 C20           -0.4195     4.0068    -0.2838 C.ar    
  21 C21           -0.6309     5.3653    -0.3812 C.ar    
  22 C22            0.4471     6.2460    -0.2881 C.ar    
  23 C23            1.7363     5.7481    -0.0967 C.ar    
  24 C24            1.9403     4.3888     0.0051 C.ar    
  25 C25            0.2235     7.7067    -0.3928 C.ar    
  26 C26            1.3042     8.5858    -0.2993 C.ar    
  27 C27            1.1004     9.9328    -0.3959 C.ar    
  28 C28           -0.1936    10.4321    -0.5890 C.ar    
  29 C29           -1.2760     9.5485    -0.6825 C.ar    
  30 C30           -1.0669     8.2019    -0.5905 C.ar    
  31 C31           -0.4154    11.8808    -0.6928 C.2     
  32 O32            0.5067    12.6495    -0.5195 O.2     
  33 C33           -1.7886    12.4117    -1.0147 C.3     
  34 H34           -4.0169    -1.3202    -0.5225 H       
  35 H35            1.9561    -0.2246     1.8346 H       
  36 H36            3.9444    -1.6927     1.5747 H       
  37 H37            4.1773    -3.0569    -0.4603 H       
  38 H38            0.5993    -1.6068    -1.9819 H       
  39 H39           -4.9802    -3.3866    -0.6828 H       
  40 H40           -3.5124    -4.1249     0.0184 H       
  41 H41           -5.9717    -4.1296     1.2944 H       
  42 H42           -4.4120    -4.1643     2.1752 H       
  43 H43           -6.1753    -1.7381     1.5270 H       
  44 H44           -5.4494    -2.1988     3.1023 H       
  45 H45           -3.2279    -1.6225     2.3731 H       
  46 H46           -4.2084    -0.3443     1.5890 H       
  47 H47           -1.2536     3.3246    -0.3558 H       
  48 H48           -1.6300     5.7476    -0.5297 H       
  49 H49            2.5729     6.4273    -0.0242 H       
  50 H50            2.9380     4.0027     0.1536 H       
  51 H51            2.3020     8.2003    -0.1500 H       
  52 H52            1.9366    10.6125    -0.3232 H       
  53 H53           -2.2749     9.9313    -0.8310 H       
  54 H54           -1.9013     7.5201    -0.6626 H       
  55 H55           -2.4990    11.5857    -1.0473 H       
  56 H56           -2.0927    13.1224    -0.2462 H       
  57 H57           -1.7672    12.9111    -1.9833 H       
@<TRIPOS>BOND
   1    1    2 1
   2    1   18 1
   3    1    5 2
   4    2    3 1
   5    2    8 1
   6    3    4 2
   7    3    6 1
   8    4    5 1
   9    6    7 1
  10    7   14 1
  11    7   17 1
  12    7   34 1
  13    8    9 ar
  14    8   13 ar
  15    9   10 ar
  16    9   35 1
  17   10   11 ar
  18   10   36 1
  19   11   12 ar
  20   11   37 1
  21   12   13 ar
  22   13   38 1
  23   14   15 1
  24   14   39 1
  25   14   40 1
  26   15   16 1
  27   15   41 1
  28   15   42 1
  29   16   17 1
  30   16   43 1
  31   16   44 1
  32   17   45 1
  33   17   46 1
  34   18   19 1
  35   19   20 ar
  36   19   24 ar
  37   20   21 ar
  38   20   47 1
  39   21   22 ar
  40   21   48 1
  41   22   23 ar
  42   22   25 1
  43   23   24 ar
  44   23   49 1
  45   24   50 1
  46   25   26 ar
  47   25   30 ar
  48   26   27 ar
  49   26   51 1
  50   27   28 ar
  51   27   52 1
  52   28   29 ar
  53   28   31 1
  54   29   30 ar
  55   29   53 1
  56   30   54 1
  57   31   32 2
  58   31   33 1
  59   33   55 1
  60   33   56 1
  61   33   57 1

#	End of record

