#	Name: ASD00170420
#	Creating user name:	WinNT
#	Creation time:	15. 06. 2019 18:32

#	Modifying user name:	WinNT
#	Modification time:	15. 06. 2019 18:32

#	Program:	/corina/corina34_cracker 3.40 0067  02.08.2006

@<TRIPOS>MOLECULE
ASD00170420
  40   41    0    0    0
SMALL
NO_CHARGES


@<TRIPOS>ATOM
   1 C1             0.8183     1.0337    -0.8743 C.2     
   2 C2             0.6375    -0.3111    -0.6483 C.2     
   3 C3            -0.7284    -0.6396    -0.2978 C.2     
   4 C4            -1.5267     0.4160    -0.2652 C.2     
   5 S5            -0.6445     1.8811    -0.6568 S.3     
   6 C6            -1.1943    -2.0416    -0.0007 C.3     
   7 N7             2.0194     1.6170    -1.2231 N.pl3   
   8 C8             1.7088    -1.3017    -0.7509 C.2     
   9 C9             2.5814    -1.5703     0.4125 C.ar    
  10 O10            1.8821    -1.9052    -1.7942 O.2     
  11 C11            3.6538    -2.4562     0.2943 C.ar    
  12 C12            4.4644    -2.7023     1.3824 C.ar    
  13 C13            4.2162    -2.0726     2.5909 C.ar    
  14 C14            3.1533    -1.1929     2.7143 C.ar    
  15 C15            2.3394    -0.9345     1.6316 C.ar    
  16 Cl16           5.2409    -2.3874     3.9564 Cl      
  17 N17           -1.3024    -2.7979    -1.2554 N.3     
  18 C18           -1.4560    -4.2350    -0.9923 C.3     
  19 C19           -2.4074    -2.2928    -2.0811 C.3     
  20 C20           -3.7323    -2.5071    -1.3464 C.3     
  21 C21           -1.1725    -5.0213    -2.2738 C.3     
  22 H22           -2.5792     0.3805    -0.0257 H       
  23 H23           -0.4768    -2.5310     0.6579 H       
  24 H24           -2.1687    -2.0051     0.4866 H       
  25 H25            2.8280     1.0820    -1.2525 H       
  26 H26            2.0551     2.5621    -1.4390 H       
  27 H27            3.8481    -2.9481    -0.6474 H       
  28 H28            5.2941    -3.3878     1.2923 H       
  29 H29            2.9642    -0.7053     3.6592 H       
  30 H30            1.5110    -0.2485     1.7289 H       
  31 H31           -0.7536    -4.5394    -0.2163 H       
  32 H32           -2.4744    -4.4367    -0.6600 H       
  33 H33           -2.2639    -1.2287    -2.2686 H       
  34 H34           -2.4269    -2.8295    -3.0296 H       
  35 H35           -4.5441    -2.0671    -1.9255 H       
  36 H36           -3.9110    -3.5754    -1.2237 H       
  37 H37           -3.6855    -2.0317    -0.3667 H       
  38 H38           -1.8760    -4.7181    -3.0492 H       
  39 H39           -0.1548    -4.8183    -2.6070 H       
  40 H40           -1.2849    -6.0877    -2.0781 H       
@<TRIPOS>BOND
   1    1    2 2
   2    1    7 1
   3    1    5 1
   4    2    3 1
   5    2    8 1
   6    3    4 2
   7    3    6 1
   8    4    5 1
   9    4   22 1
  10    6   17 1
  11    6   23 1
  12    6   24 1
  13    7   25 1
  14    7   26 1
  15    8    9 1
  16    8   10 2
  17    9   11 ar
  18    9   15 ar
  19   11   12 ar
  20   11   27 1
  21   12   13 ar
  22   12   28 1
  23   13   14 ar
  24   13   16 1
  25   14   15 ar
  26   14   29 1
  27   15   30 1
  28   17   18 1
  29   17   19 1
  30   18   21 1
  31   18   31 1
  32   18   32 1
  33   19   20 1
  34   19   33 1
  35   19   34 1
  36   20   35 1
  37   20   36 1
  38   20   37 1
  39   21   38 1
  40   21   39 1
  41   21   40 1

#	End of record

