#	Name: ASD01913678
#	Creating user name:	WinNT
#	Creation time:	15. 06. 2019 20:02

#	Modifying user name:	WinNT
#	Modification time:	15. 06. 2019 20:02

#	Program:	/corina/corina34_cracker 3.40 0067  02.08.2006

@<TRIPOS>MOLECULE
ASD01913678
  37   39    0    0    0
SMALL
NO_CHARGES


@<TRIPOS>ATOM
   1 C1            -0.0046     1.2896     0.0119 C.ar    
   2 N2             0.0161    -0.0288    -0.0004 N.ar    
   3 C3             1.1485    -0.7044    -0.0197 C.ar    
   4 C4             2.3640    -0.0467    -0.0273 C.ar    
   5 C5             2.3821     1.3397    -0.0148 C.ar    
   6 C6             1.1716     2.0153     0.0050 C.ar    
   7 C7             3.6866     2.0942    -0.0219 C.3     
   8 O8             4.0844     2.3450    -1.3714 O.3     
   9 C9             5.2453     3.0192    -1.5553 C.ar    
  10 N10            5.9473     3.4089    -0.5022 N.ar    
  11 C11            7.0812     4.0662    -0.6320 C.ar    
  12 C12            7.5805     4.3739    -1.8983 C.ar    
  13 C13            6.8566     3.9727    -3.0309 C.ar    
  14 C14            5.6852     3.2868    -2.8479 C.ar    
  15 C15            8.8508     5.1108    -2.0438 C.2     
  16 N16            9.5380     5.4919    -0.9487 N.am    
  17 O17            9.2775     5.3741    -3.1514 O.2     
  18 C18           10.7883     6.0913    -1.0846 C.ar    
  19 N19           11.3386     6.1962    -2.2841 N.ar    
  20 C20           12.5201     6.7565    -2.4567 C.ar    
  21 C21           13.2302     7.2570    -1.3830 C.ar    
  22 C22           12.6883     7.1667    -0.1083 C.ar    
  23 C23           11.4441     6.5789     0.0400 C.ar    
  24 H24           -0.9518     1.8084     0.0230 H       
  25 H25            1.1258    -1.7841    -0.0293 H       
  26 H26            3.2881    -0.6055    -0.0423 H       
  27 H27            1.1480     3.0950     0.0148 H       
  28 H28            3.5612     3.0418     0.5020 H       
  29 H29            4.4522     1.5010     0.4783 H       
  30 H30            7.6285     4.3696     0.2482 H       
  31 H31            7.2165     4.1961    -4.0244 H       
  32 H32            5.1044     2.9634    -3.6991 H       
  33 H33            9.1620     5.3488    -0.0661 H       
  34 H34           12.9378     6.8246    -3.4503 H       
  35 H35           14.1973     7.7135    -1.5335 H       
  36 H36           13.2235     7.5500     0.7478 H       
  37 H37           10.9928     6.4922     1.0174 H       
@<TRIPOS>BOND
   1    1    2 ar
   2    1    6 ar
   3    1   24 1
   4    2    3 ar
   5    3    4 ar
   6    3   25 1
   7    4    5 ar
   8    4   26 1
   9    5    6 ar
  10    5    7 1
  11    6   27 1
  12    7    8 1
  13    7   28 1
  14    7   29 1
  15    8    9 1
  16    9   10 ar
  17    9   14 ar
  18   10   11 ar
  19   11   12 ar
  20   11   30 1
  21   12   13 ar
  22   12   15 1
  23   13   14 ar
  24   13   31 1
  25   14   32 1
  26   15   16 am
  27   15   17 2
  28   16   18 1
  29   16   33 1
  30   18   19 ar
  31   18   23 ar
  32   19   20 ar
  33   20   21 ar
  34   20   34 1
  35   21   22 ar
  36   21   35 1
  37   22   23 ar
  38   22   36 1
  39   23   37 1

#	End of record

