#	Name: ASD04882230
#	Creating user name:	WinNT
#	Creation time:	15. 06. 2019 20:54

#	Modifying user name:	WinNT
#	Modification time:	15. 06. 2019 20:54

#	Program:	/corina/corina34_cracker 3.40 0067  02.08.2006

@<TRIPOS>MOLECULE
ASD04882230
  68   71    0    0    0
SMALL
NO_CHARGES


@<TRIPOS>ATOM
   1 N1            -0.1365     1.5554    -0.0362 N.am    
   2 C2            -0.0764     0.1558    -0.0457 C.ar    
   3 C3            -1.2527    -0.5953     0.0295 C.ar    
   4 C4            -1.1946    -1.9842     0.0202 C.ar    
   5 C5             0.0216    -2.6251    -0.0630 C.ar    
   6 C6             1.2018    -1.8801    -0.1380 C.ar    
   7 C7             1.1457    -0.4835    -0.1351 C.ar    
   8 N8            -2.4846     0.0485     0.1142 N.3     
   9 C9            -2.6118     0.7769     1.3842 C.3     
  10 C10           -3.5899    -0.9048    -0.0559 C.3     
  11 C11           -4.9202    -0.1483    -0.0359 C.3     
  12 N12           -5.0475     0.5801     1.2341 N.3     
  13 C13           -3.9421     1.5335     1.4042 C.3     
  14 C14           -6.2831     1.2259     1.3191 C.ar    
  15 C15            2.5044    -2.5669    -0.2266 C.2     
  16 O16            3.5307    -1.9180    -0.2918 O.2     
  17 C17            0.8450     2.2680     0.5514 C.2     
  18 O18            1.7290     1.6972     1.1630 O.2     
  19 C19           -6.6353     2.1820     0.3747 C.ar    
  20 C20           -7.1647     0.9095     2.3446 C.ar    
  21 C21           -8.3857     1.5501     2.4257 C.ar    
  22 C22           -8.7309     2.5049     1.4872 C.ar    
  23 C23           -7.8576     2.8186     0.4617 C.ar    
  24 C24            0.8479     3.7311     0.4538 C.2     
  25 N25            2.5570    -3.9136    -0.2354 N.am    
  26 C26           -6.7897    -0.1318     3.3674 C.3     
  27 C27            1.7773     4.5699     0.9992 C.2     
  28 C28            1.3911     5.8758     0.6592 C.2     
  29 C29            0.2573     5.7783    -0.0695 C.2     
  30 O30           -0.0641     4.4841    -0.1953 O.3     
  31 C31            3.8506    -4.5956    -0.3234 C.3     
  32 C32            3.6305    -6.1097    -0.3148 C.3     
  33 N33            4.9241    -6.7917    -0.4028 N.am    
  34 C34            4.9767    -8.1384    -0.4116 C.2     
  35 C35            6.2756    -8.8232    -0.5000 C.2     
  36 C36            6.3274   -10.1521    -0.5086 C.2     
  37 O37            3.9503    -8.7874    -0.3464 O.2     
  38 H38           -0.8824     2.0117    -0.4561 H       
  39 H39           -2.1052    -2.5620     0.0788 H       
  40 H40            0.0634    -3.7043    -0.0700 H       
  41 H41            2.0560     0.0948    -0.1929 H       
  42 H42           -2.5830     0.0700     2.2133 H       
  43 H43           -1.7891     1.4853     1.4811 H       
  44 H44           -3.4802    -1.4225    -1.0088 H       
  45 H45           -3.5722    -1.6309     0.7569 H       
  46 H46           -4.9490     0.5586    -0.8651 H       
  47 H47           -5.7429    -0.8567    -0.1329 H       
  48 H48           -4.0518     2.0511     2.3571 H       
  49 H49           -3.9598     2.2595     0.5914 H       
  50 H50           -5.9538     2.4274    -0.4264 H       
  51 H51           -9.0717     1.3046     3.2229 H       
  52 H52           -9.6866     3.0038     1.5525 H       
  53 H53           -8.1303     3.5649    -0.2698 H       
  54 H54            1.7384    -4.4313    -0.1834 H       
  55 H55           -6.2771     0.3467     4.2019 H       
  56 H56           -7.6910    -0.6262     3.7298 H       
  57 H57           -6.1297    -0.8690     2.9102 H       
  58 H58            2.6420     4.2838     1.5796 H       
  59 H59            1.9036     6.7873     0.9295 H       
  60 H60           -0.2965     6.6071    -0.4851 H       
  61 H61            4.3516    -4.3065    -1.2473 H       
  62 H62            4.4688    -4.3135     0.5288 H       
  63 H63            3.1295    -6.3988     0.6091 H       
  64 H64            3.0123    -6.3918    -1.1670 H       
  65 H65            5.7428    -6.2740    -0.4548 H       
  66 H66            7.1871    -8.2468    -0.5579 H       
  67 H67            5.4159   -10.7285    -0.4507 H       
  68 H68            7.2811   -10.6549    -0.5735 H       
@<TRIPOS>BOND
   1    1    2 1
   2    1   17 am
   3    1   38 1
   4    2    3 ar
   5    2    7 ar
   6    3    4 ar
   7    3    8 1
   8    4    5 ar
   9    4   39 1
  10    5    6 ar
  11    5   40 1
  12    6    7 ar
  13    6   15 1
  14    7   41 1
  15    8    9 1
  16    8   10 1
  17    9   13 1
  18    9   42 1
  19    9   43 1
  20   10   11 1
  21   10   44 1
  22   10   45 1
  23   11   12 1
  24   11   46 1
  25   11   47 1
  26   12   13 1
  27   12   14 1
  28   13   48 1
  29   13   49 1
  30   14   19 ar
  31   14   20 ar
  32   15   16 2
  33   15   25 am
  34   17   18 2
  35   17   24 1
  36   19   23 ar
  37   19   50 1
  38   20   21 ar
  39   20   26 1
  40   21   22 ar
  41   21   51 1
  42   22   23 ar
  43   22   52 1
  44   23   53 1
  45   24   27 2
  46   24   30 1
  47   25   31 1
  48   25   54 1
  49   26   55 1
  50   26   56 1
  51   26   57 1
  52   27   28 1
  53   27   58 1
  54   28   29 2
  55   28   59 1
  56   29   30 1
  57   29   60 1
  58   31   32 1
  59   31   61 1
  60   31   62 1
  61   32   33 1
  62   32   63 1
  63   32   64 1
  64   33   34 am
  65   33   65 1
  66   34   35 1
  67   34   37 2
  68   35   36 2
  69   35   66 1
  70   36   67 1
  71   36   68 1

#	End of record

