#	Name: ASD01940386
#	Creating user name:	WinNT
#	Creation time:	15. 06. 2019 20:12

#	Modifying user name:	WinNT
#	Modification time:	15. 06. 2019 20:12

#	Program:	/corina/corina34_cracker 3.40 0067  02.08.2006

@<TRIPOS>MOLECULE
ASD01940386
  38   40    0    0    0
SMALL
NO_CHARGES


@<TRIPOS>ATOM
   1 S1             1.4538     2.3537    -2.6102 S.3     
   2 N2             1.6396     0.7516    -3.1338 N.2     
   3 C3             2.2942     0.1026    -2.2341 C.2     
   4 C4             2.7052     0.7797    -1.0733 C.ar    
   5 C5             2.3133     2.1322    -1.0823 C.ar    
   6 C6             2.6198     2.9847    -0.0258 C.ar    
   7 C7             3.3136     2.5232     1.0514 C.ar    
   8 C8             3.7238     1.1811     1.1011 C.ar    
   9 C9             3.4267     0.3089     0.0527 C.ar    
  10 C10            4.4730     0.6902     2.2682 C.2     
  11 O11            4.9179    -0.4420     2.2732 O.2     
  12 N12            4.6665     1.4949     3.3320 N.am    
  13 O13            5.3876     1.0224     4.4553 O.3     
  14 C14            5.5162     1.9799     5.5082 C.3     
  15 C15            6.3085     1.3644     6.6633 C.3     
  16 O16            7.6441     1.0933     6.2338 O.3     
  17 N17            3.8356    -1.0121     0.1121 N.pl3   
  18 C18            3.0239    -1.9684     0.7313 C.ar    
  19 C19            3.3760    -3.3138     0.6904 C.ar    
  20 C20            2.5714    -4.2556     1.3041 C.ar    
  21 C21            1.4175    -3.8606     1.9579 C.ar    
  22 C22            1.0657    -2.5238     1.9997 C.ar    
  23 C23            1.8682    -1.5766     1.3930 C.ar    
  24 I24            0.2004    -5.2911     2.8861 I       
  25 F25            4.5023    -3.6993     0.0516 F       
  26 H26            2.5230    -0.9442    -2.3694 H       
  27 H27            2.3060     4.0175    -0.0604 H       
  28 H28            3.5489     3.1900     1.8677 H       
  29 H29            4.3118     2.3977     3.3280 H       
  30 H30            6.0405     2.8604     5.1365 H       
  31 H31            4.5257     2.2684     5.8599 H       
  32 H32            6.3307     2.0617     7.5008 H       
  33 H33            5.8318     0.4355     6.9765 H       
  34 H34            8.2050     0.7010     6.9169 H       
  35 H35            4.6850    -1.2748    -0.2758 H       
  36 H36            2.8432    -5.3004     1.2729 H       
  37 H37            0.1645    -2.2193     2.5110 H       
  38 H38            1.5943    -0.5326     1.4300 H       
@<TRIPOS>BOND
   1    1    2 1
   2    1    5 1
   3    2    3 2
   4    3    4 1
   5    3   26 1
   6    4    5 ar
   7    4    9 ar
   8    5    6 ar
   9    6    7 ar
  10    6   27 1
  11    7    8 ar
  12    7   28 1
  13    8    9 ar
  14    8   10 1
  15    9   17 1
  16   10   11 2
  17   10   12 am
  18   12   13 1
  19   12   29 1
  20   13   14 1
  21   14   15 1
  22   14   30 1
  23   14   31 1
  24   15   16 1
  25   15   32 1
  26   15   33 1
  27   16   34 1
  28   17   18 1
  29   17   35 1
  30   18   19 ar
  31   18   23 ar
  32   19   20 ar
  33   19   25 1
  34   20   21 ar
  35   20   36 1
  36   21   22 ar
  37   21   24 1
  38   22   23 ar
  39   22   37 1
  40   23   38 1

#	End of record

