#	Name: ASD01915177
#	Creating user name:	WinNT
#	Creation time:	15. 06. 2019 20:05

#	Modifying user name:	WinNT
#	Modification time:	15. 06. 2019 20:05

#	Program:	/corina/corina34_cracker 3.40 0067  02.08.2006

@<TRIPOS>MOLECULE
ASD01915177
  40   42    0    0    0
SMALL
NO_CHARGES


@<TRIPOS>ATOM
   1 C1            -0.0167     1.3816     0.0096 C.ar    
   2 C2             0.0021    -0.0041     0.0020 C.ar    
   3 C3            -1.1829    -0.7184     0.0095 C.ar    
   4 C4            -2.3921    -0.0555     0.0246 C.ar    
   5 C5            -2.4203     1.3418     0.0324 C.ar    
   6 C6            -1.2211     2.0583     0.0305 C.ar    
   7 F7             1.1446     2.0718     0.0023 F       
   8 C8            -3.6727     2.0359     0.0476 C.1     
   9 C9            -4.6996     2.6049     0.0600 C.1     
  10 C10           -5.9520     3.2989     0.0752 C.ar    
  11 C11           -5.9805     4.6960     0.0830 C.ar    
  12 C12           -7.1905     5.3576     0.0977 C.ar    
  13 C13           -8.3745     4.6413     0.1047 C.ar    
  14 C14           -8.3542     3.2577     0.0975 C.ar    
  15 C15           -7.1517     2.5825     0.0766 C.ar    
  16 S16           -9.9156     5.4953     0.1234 S.o2    
  17 O17          -10.8673     4.5938     0.6718 O.2     
  18 O18           -9.6558     6.7800     0.6724 O.2     
  19 N19          -10.3589     5.7414    -1.4530 N.am    
  20 C20          -11.1731     4.7505    -2.1745 C.3     
  21 C21          -12.3577     5.4771    -2.8217 C.3     
  22 O22          -11.8705     6.5794    -3.5907 O.3     
  23 C23          -11.1947     7.5767    -2.8210 C.3     
  24 C24           -9.9553     6.9603    -2.1719 C.3     
  25 H25            0.9460    -0.5288    -0.0102 H       
  26 H26           -1.1608    -1.7981     0.0031 H       
  27 H27           -3.3158    -0.6151     0.0301 H       
  28 H28           -1.2355     3.1382     0.0369 H       
  29 H29           -5.0572     5.2563     0.0779 H       
  30 H30           -7.2141     6.4373     0.1040 H       
  31 H31           -9.2822     2.7053     0.1034 H       
  32 H32           -7.1373     1.5026     0.0710 H       
  33 H33          -10.5702     4.2716    -2.9460 H       
  34 H34          -11.5408     3.9989    -1.4759 H       
  35 H35          -12.8955     4.7882    -3.4731 H       
  36 H36          -13.0286     5.8435    -2.0448 H       
  37 H37          -10.8958     8.3984    -3.4718 H       
  38 H38          -11.8614     7.9508    -2.0440 H       
  39 H39           -9.5146     7.6715    -1.4733 H       
  40 H40           -9.2279     6.7021    -2.9415 H       
@<TRIPOS>BOND
   1    1    2 ar
   2    1    7 1
   3    1    6 ar
   4    2    3 ar
   5    2   25 1
   6    3    4 ar
   7    3   26 1
   8    4    5 ar
   9    4   27 1
  10    5    6 ar
  11    5    8 1
  12    6   28 1
  13    8    9 3
  14    9   10 1
  15   10   11 ar
  16   10   15 ar
  17   11   12 ar
  18   11   29 1
  19   12   13 ar
  20   12   30 1
  21   13   14 ar
  22   13   16 1
  23   14   15 ar
  24   14   31 1
  25   15   32 1
  26   16   17 2
  27   16   18 2
  28   16   19 am
  29   19   20 1
  30   19   24 1
  31   20   21 1
  32   20   33 1
  33   20   34 1
  34   21   22 1
  35   21   35 1
  36   21   36 1
  37   22   23 1
  38   23   24 1
  39   23   37 1
  40   23   38 1
  41   24   39 1
  42   24   40 1

#	End of record

