#	Name: ASD06020074
#	Creating user name:	WinNT
#	Creation time:	15. 06. 2019 21:04

#	Modifying user name:	WinNT
#	Modification time:	15. 06. 2019 21:04

#	Program:	/corina/corina34_cracker 3.40 0067  02.08.2006

@<TRIPOS>MOLECULE
ASD06020074
  49   53    0    0    0
SMALL
NO_CHARGES


@<TRIPOS>ATOM
   1 C1            -2.4280     1.3548     0.0273 C.ar    
   2 C2            -2.4012    -0.0435     0.0122 C.ar    
   3 C3            -3.6051    -0.7571     0.0263 C.ar    
   4 C4            -4.8036     0.0004     0.0561 C.ar    
   5 C5            -4.7384     1.3579     0.0695 C.ar    
   6 N6            -3.5811     2.0004     0.0547 N.ar    
   7 S7            -1.0731    -1.1980    -0.0236 S.3     
   8 C8            -2.2197    -2.5319    -0.0170 C.2     
   9 N9            -3.4311    -2.0794     0.0095 N.2     
  10 N10           -1.2339     2.0703     0.0191 N.pl3   
  11 C11           -2.4250     5.4142    -0.3614 C.ar    
  12 N12           -2.4012     4.1000    -0.2692 N.ar    
  13 C13           -1.2550     3.4537    -0.0779 C.ar    
  14 C14           -0.0730     4.1902     0.0241 C.ar    
  15 C15           -0.1466     5.5654    -0.0787 C.ar    
  16 N16           -1.3273     6.1373    -0.2694 N.ar    
  17 C17            1.1000     6.4057     0.0250 C.3     
  18 O18            2.1625     8.2960    -3.5570 O.3     
  19 C19            3.2330     7.9101    -2.6907 C.3     
  20 C20            2.6857     7.6926    -1.2776 C.3     
  21 N21            1.6151     6.6860    -1.3219 N.3     
  22 C22            0.5337     7.1148    -2.2208 C.3     
  23 C23            1.1027     7.3381    -3.6245 C.3     
  24 C24           -1.8520    -3.9631    -0.0380 C.ar    
  25 C25           -2.8468    -4.9436    -0.0304 C.ar    
  26 C26           -2.4960    -6.2788    -0.0507 C.ar    
  27 C27           -1.1626    -6.6474    -0.0780 C.ar    
  28 C28           -0.1714    -5.6833    -0.0852 C.ar    
  29 C29           -0.5073    -4.3422    -0.0714 C.ar    
  30 F30            0.4618    -3.4010    -0.0846 F       
  31 Cl31          -4.5206    -4.4844     0.0050 Cl      
  32 H32           -5.7616    -0.4980     0.0678 H       
  33 H33           -5.6555     1.9278     0.0922 H       
  34 H34           -0.3871     1.6014     0.0813 H       
  35 H35           -3.3698     5.9123    -0.5213 H       
  36 H36            0.8750     3.6967     0.1798 H       
  37 H37            0.8647     7.3444     0.5266 H       
  38 H38            1.8548     5.8669     0.5978 H       
  39 H39            3.6800     6.9849    -3.0543 H       
  40 H40            3.9874     8.6966    -2.6718 H       
  41 H41            3.4871     7.3432    -0.6266 H       
  42 H42            2.2869     8.6314    -0.8932 H       
  43 H43           -0.2357     6.3436    -2.2584 H       
  44 H44            0.1005     8.0444    -1.8515 H       
  45 H45            0.3164     7.7109    -4.2809 H       
  46 H46            1.4877     6.3962    -4.0152 H       
  47 H47           -3.2644    -7.0376    -0.0448 H       
  48 H48           -0.8946    -7.6935    -0.0934 H       
  49 H49            0.8672    -5.9785    -0.1058 H       
@<TRIPOS>BOND
   1    1    2 ar
   2    1    6 ar
   3    1   10 1
   4    2    3 ar
   5    2    7 1
   6    3    4 ar
   7    3    9 1
   8    4    5 ar
   9    4   32 1
  10    5    6 ar
  11    5   33 1
  12    7    8 1
  13    8    9 2
  14    8   24 1
  15   10   13 1
  16   10   34 1
  17   11   12 ar
  18   11   16 ar
  19   11   35 1
  20   12   13 ar
  21   13   14 ar
  22   14   15 ar
  23   14   36 1
  24   15   16 ar
  25   15   17 1
  26   17   21 1
  27   17   37 1
  28   17   38 1
  29   18   19 1
  30   18   23 1
  31   19   20 1
  32   19   39 1
  33   19   40 1
  34   20   21 1
  35   20   41 1
  36   20   42 1
  37   21   22 1
  38   22   23 1
  39   22   43 1
  40   22   44 1
  41   23   45 1
  42   23   46 1
  43   24   25 ar
  44   24   29 ar
  45   25   26 ar
  46   25   31 1
  47   26   27 ar
  48   26   47 1
  49   27   28 ar
  50   27   48 1
  51   28   29 ar
  52   28   49 1
  53   29   30 1

#	End of record

