#	Name: ASD01148926
#	Creating user name:	WinNT
#	Creation time:	15. 06. 2019 19:03

#	Modifying user name:	WinNT
#	Modification time:	15. 06. 2019 19:03

#	Program:	/corina/corina34_cracker 3.40 0067  02.08.2006

@<TRIPOS>MOLECULE
ASD01148926
  38   40    0    0    0
SMALL
NO_CHARGES


@<TRIPOS>ATOM
   1 C1            -0.1733     1.0600     0.2225 C.ar    
   2 C2            -0.0474    -0.3075     0.3839 C.ar    
   3 C3             1.1979    -0.9008     0.3142 C.ar    
   4 C4             2.3240    -0.1227     0.0817 C.ar    
   5 C5             2.1944     1.2502    -0.0799 C.ar    
   6 C6             0.9464     1.8377    -0.0091 C.ar    
   7 S7            -1.7645     1.8123     0.3048 S.o2    
   8 O8            -1.6687     3.0337    -0.4150 O.2     
   9 O9            -2.7058     0.7957    -0.0111 O.2     
  10 N10           -2.0319     2.2217     1.8870 N.am    
  11 N11            3.5889    -0.7216     0.0109 N.pl3   
  12 C12            4.0187    -1.5631    -0.9753 C.2     
  13 C13            5.2883    -1.9328    -0.6988 C.2     
  14 C14            5.6663    -1.3028     0.4990 C.2     
  15 C15            4.6064    -0.5563     0.9184 C.2     
  16 C16            3.2129    -2.0049    -2.1696 C.3     
  17 I17            6.4800    -3.2153    -1.8495 I       
  18 C18            4.5590     0.2806     2.1362 C.ar    
  19 C19            3.3300     0.6507     2.6846 C.ar    
  20 C20            3.2922     1.4313     3.8212 C.ar    
  21 C21            4.4702     1.8479     4.4179 C.ar    
  22 C22            5.6925     1.4839     3.8785 C.ar    
  23 C23            5.7431     0.6988     2.7454 C.ar    
  24 Cl24           4.4146     2.8311     5.8476 Cl      
  25 H25           -0.9237    -0.9123     0.5650 H       
  26 H26            1.2956    -1.9689     0.4407 H       
  27 H27            3.0686     1.8582    -0.2605 H       
  28 H28            0.8449     2.9056    -0.1347 H       
  29 H29           -1.3580     2.0305     2.5580 H       
  30 H30           -2.8624     2.6527     2.1427 H       
  31 H31            6.6221    -1.3910     0.9939 H       
  32 H32            3.3689    -1.3064    -2.9917 H       
  33 H33            3.5315    -3.0017    -2.4743 H       
  34 H34            2.1553    -2.0261    -1.9066 H       
  35 H35            2.4105     0.3269     2.2197 H       
  36 H36            2.3418     1.7183     4.2465 H       
  37 H37            6.6080     1.8119     4.3482 H       
  38 H38            6.6970     0.4121     2.3279 H       
@<TRIPOS>BOND
   1    1    2 ar
   2    1    6 ar
   3    1    7 1
   4    2    3 ar
   5    2   25 1
   6    3    4 ar
   7    3   26 1
   8    4    5 ar
   9    4   11 1
  10    5    6 ar
  11    5   27 1
  12    6   28 1
  13    7    8 2
  14    7    9 2
  15    7   10 am
  16   10   29 1
  17   10   30 1
  18   11   12 1
  19   11   15 1
  20   12   13 2
  21   12   16 1
  22   13   14 1
  23   13   17 1
  24   14   15 2
  25   14   31 1
  26   15   18 1
  27   16   32 1
  28   16   33 1
  29   16   34 1
  30   18   19 ar
  31   18   23 ar
  32   19   20 ar
  33   19   35 1
  34   20   21 ar
  35   20   36 1
  36   21   22 ar
  37   21   24 1
  38   22   23 ar
  39   22   37 1
  40   23   38 1

#	End of record

