#	Name: ASD08150193
#	Creating user name:	WinNT
#	Creation time:	15. 06. 2019 21:15

#	Modifying user name:	WinNT
#	Modification time:	15. 06. 2019 21:15

#	Program:	/corina/corina34_cracker 3.40 0067  02.08.2006

@<TRIPOS>MOLECULE
ASD08150193
  44   48    0    0    0
SMALL
NO_CHARGES


@<TRIPOS>ATOM
   1 N1            -0.0157     1.2952    -0.0517 N.2     
   2 C2             0.0018    -0.0026    -0.0878 C.2     
   3 N3             1.1484    -0.7345    -0.1052 N.am    
   4 C4             2.3558    -0.1234    -0.0850 C.2     
   5 C5             2.3701     1.3460    -0.0440 C.ar    
   6 C6             3.5601     2.0708    -0.0203 C.ar    
   7 C7             3.5159     3.4471     0.0183 C.ar    
   8 C8             2.2979     4.1146     0.0337 C.ar    
   9 C9             1.1111     3.4173     0.0112 C.ar    
  10 C10            1.1296     2.0215    -0.0285 C.ar    
  11 O11            3.3898    -0.7657    -0.0998 O.2     
  12 C12           -1.3149    -0.7353    -0.1111 C.3     
  13 S13           -2.6721     0.4618    -0.0808 S.3     
  14 N14           -5.9170     1.0956    -0.0704 N.2     
  15 C15           -7.2143     0.9914    -0.0761 C.2     
  16 N16           -7.5756    -0.3226    -0.1129 N.pl3   
  17 C17           -6.4224    -1.0658    -0.1307 C.ar    
  18 N18           -6.1436    -2.3649    -0.1660 N.ar    
  19 C19           -4.8954    -2.7836    -0.1750 C.ar    
  20 N20           -3.8691    -1.9535    -0.1507 N.ar    
  21 C21           -4.0496    -0.6364    -0.1144 C.ar    
  22 C22           -5.3651    -0.1409    -0.1030 C.ar    
  23 C23            4.8858     1.3542    -0.0362 C.3     
  24 C24            1.0407    -2.8707     1.0343 C.ar    
  25 C25            1.0787    -2.1334    -0.1439 C.ar    
  26 C26            1.0460    -2.8053    -1.3620 C.ar    
  27 C27            0.9765    -4.1895    -1.3491 C.ar    
  28 C28            0.9422    -4.8529    -0.1374 C.ar    
  29 N29            0.9747    -4.1873     1.0012 N.ar    
  30 Cl30           1.0879    -2.0505     2.5636 Cl      
  31 H31            4.4362     4.0120     0.0372 H       
  32 H32            2.2817     5.1940     0.0640 H       
  33 H33            0.1702     3.9473     0.0242 H       
  34 H34           -1.3804    -1.3360    -1.0183 H       
  35 H35           -1.3844    -1.3855     0.7610 H       
  36 H36           -7.9029     1.8231    -0.0549 H       
  37 H37           -8.4817    -0.6686    -0.1244 H       
  38 H38           -4.7039    -3.8461    -0.2036 H       
  39 H39            5.1534     1.1082    -1.0638 H       
  40 H40            5.6522     1.9985     0.3945 H       
  41 H41            4.8104     0.4378     0.5490 H       
  42 H42            1.0737    -2.2615    -2.2947 H       
  43 H43            0.9491    -4.7435    -2.2758 H       
  44 H44            0.8877    -5.9314    -0.1223 H       
@<TRIPOS>BOND
   1    1    2 2
   2    1   10 1
   3    2    3 1
   4    2   12 1
   5    3    4 am
   6    3   25 1
   7    4    5 1
   8    4   11 2
   9    5    6 ar
  10    5   10 ar
  11    6    7 ar
  12    6   23 1
  13    7    8 ar
  14    7   31 1
  15    8    9 ar
  16    8   32 1
  17    9   10 ar
  18    9   33 1
  19   12   13 1
  20   12   34 1
  21   12   35 1
  22   13   21 1
  23   14   15 2
  24   14   22 1
  25   15   16 1
  26   15   36 1
  27   16   17 1
  28   16   37 1
  29   17   18 ar
  30   17   22 ar
  31   18   19 ar
  32   19   20 ar
  33   19   38 1
  34   20   21 ar
  35   21   22 ar
  36   23   39 1
  37   23   40 1
  38   23   41 1
  39   24   25 ar
  40   24   29 ar
  41   24   30 1
  42   25   26 ar
  43   26   27 ar
  44   26   42 1
  45   27   28 ar
  46   27   43 1
  47   28   29 ar
  48   28   44 1

#	End of record

