#	Name: ASD01911892
#	Creating user name:	WinNT
#	Creation time:	15. 06. 2019 19:58

#	Modifying user name:	WinNT
#	Modification time:	15. 06. 2019 19:58

#	Program:	/corina/corina34_cracker 3.40 0067  02.08.2006

@<TRIPOS>MOLECULE
ASD01911892
  37   39    0    0    0
SMALL
NO_CHARGES


@<TRIPOS>ATOM
   1 C1            -1.0582    -0.4835    -2.0443 C.ar    
   2 C2            -1.0628     0.0683    -0.7672 C.ar    
   3 C3            -1.0155     1.4480    -0.6286 C.ar    
   4 N4            -0.9666     2.2303    -1.6886 N.ar    
   5 C5            -0.9607     1.7418    -2.9131 C.ar    
   6 C6            -1.0060     0.3750    -3.1328 C.ar    
   7 O7            -1.1135    -0.7329     0.3293 O.3     
   8 C8            -1.1596    -2.0770     0.1356 C.ar    
   9 C9            -0.0053    -2.7697    -0.2031 C.ar    
  10 C10           -0.0507    -4.1377    -0.4000 C.ar    
  11 C11           -1.2457    -4.8193    -0.2600 C.ar    
  12 C12           -2.4032    -4.1305     0.0789 C.ar    
  13 C13           -2.3580    -2.7580     0.2819 C.ar    
  14 N14           -3.6118    -4.8196     0.2201 N.am    
  15 C15           -3.6153    -6.0872     0.6779 C.2     
  16 C16           -4.8798    -6.8513     0.7287 C.ar    
  17 O17           -2.5786    -6.6023     1.0491 O.2     
  18 C18           -6.0718    -6.2611     0.3026 C.ar    
  19 C19           -7.2541    -6.9731     0.3498 C.ar    
  20 C20           -7.2671    -8.2718     0.8177 C.ar    
  21 C21           -6.0816    -8.8749     1.2468 C.ar    
  22 C22           -4.8841    -8.1639     1.1965 C.ar    
  23 C23           -6.0966   -10.2221     1.7320 C.1     
  24 F24           -0.9991    -0.1159    -4.3914 F       
  25 N25           -6.1085   -11.2909     2.1169 N.1     
  26 Cl26           1.3947    -5.0006    -0.8242 Cl      
  27 H27           -1.0899    -1.5539    -2.1847 H       
  28 H28           -1.0190     1.8860     0.3586 H       
  29 H29           -0.9203     2.4161    -3.7558 H       
  30 H30            0.9291    -2.2395    -0.3134 H       
  31 H31           -1.2790    -5.8877    -0.4146 H       
  32 H32           -3.2568    -2.2204     0.5455 H       
  33 H33           -4.4477    -4.3853    -0.0114 H       
  34 H34           -6.0689    -5.2453    -0.0643 H       
  35 H35           -8.1730    -6.5116     0.0194 H       
  36 H36           -8.1953    -8.8227     0.8526 H       
  37 H37           -3.9651    -8.6253     1.5264 H       
@<TRIPOS>BOND
   1    1    2 ar
   2    1    6 ar
   3    1   27 1
   4    2    3 ar
   5    2    7 1
   6    3    4 ar
   7    3   28 1
   8    4    5 ar
   9    5    6 ar
  10    5   29 1
  11    6   24 1
  12    7    8 1
  13    8    9 ar
  14    8   13 ar
  15    9   10 ar
  16    9   30 1
  17   10   11 ar
  18   10   26 1
  19   11   12 ar
  20   11   31 1
  21   12   13 ar
  22   12   14 1
  23   13   32 1
  24   14   15 am
  25   14   33 1
  26   15   16 1
  27   15   17 2
  28   16   18 ar
  29   16   22 ar
  30   18   19 ar
  31   18   34 1
  32   19   20 ar
  33   19   35 1
  34   20   21 ar
  35   20   36 1
  36   21   22 ar
  37   21   23 1
  38   22   37 1
  39   23   25 3

#	End of record

