#	Name: ASD02508159
#	Creating user name:	WinNT
#	Creation time:	15. 06. 2019 20:23

#	Modifying user name:	WinNT
#	Modification time:	15. 06. 2019 20:23

#	Program:	/corina/corina34_cracker 3.40 0067  02.08.2006

@<TRIPOS>MOLECULE
ASD02508159
  33   35    0    0    0
SMALL
NO_CHARGES


@<TRIPOS>ATOM
   1 C1             0.0947     1.7654     0.3882 C.ar    
   2 C2             0.0181     0.3617     0.3029 C.ar    
   3 C3             1.3305     2.3710     0.3535 C.ar    
   4 C4             2.4822     1.5694     0.2329 C.ar    
   5 C5             2.3922     0.2023     0.1500 C.ar    
   6 C6             1.1492    -0.4070     0.1864 C.ar    
   7 S7            -1.2563     2.8795     0.5472 S.3     
   8 C8            -0.4373     4.4275     0.5938 C.2     
   9 S9             1.2837     4.1250     0.4686 S.3     
  10 S10            3.8518    -0.7731    -0.0008 S.o2    
  11 N11            4.3527    -1.1463     1.5329 N.am    
  12 C12            3.5145    -1.8743     2.3851 C.ar    
  13 O13           -0.9688     5.5179     0.6983 O.2     
  14 O14            3.4556    -1.9978    -0.6027 O.2     
  15 O15            4.8476     0.0775    -0.5523 O.2     
  16 C16            3.4943    -1.5959     3.7503 C.ar    
  17 C17            2.6977    -2.8707     1.8720 C.ar    
  18 C18            1.8696    -3.5887     2.7165 C.ar    
  19 C19            1.8545    -3.3148     4.0722 C.ar    
  20 C20            2.6630    -2.3186     4.5892 C.ar    
  21 O21            4.2901    -0.6163     4.2579 O.3     
  22 C22            4.2171    -0.3860     5.6664 C.3     
  23 Cl23           0.8471    -4.8355     2.0733 Cl      
  24 H24           -0.9488    -0.1188     0.3300 H       
  25 H25            3.4542     2.0392     0.2048 H       
  26 H26            1.0700    -1.4821     0.1216 H       
  27 H27            5.2269    -0.8602     1.8407 H       
  28 H28            2.7077    -3.0860     0.8137 H       
  29 H29            1.2068    -3.8774     4.7283 H       
  30 H30            2.6491    -2.1074     5.6482 H       
  31 H31            3.1990    -0.1055     5.9364 H       
  32 H32            4.4967    -1.2954     6.1982 H       
  33 H33            4.9000     0.4188     5.9388 H       
@<TRIPOS>BOND
   1    1    2 ar
   2    1    3 ar
   3    1    7 1
   4    2    6 ar
   5    2   24 1
   6    3    4 ar
   7    3    9 1
   8    4    5 ar
   9    4   25 1
  10    5    6 ar
  11    5   10 1
  12    6   26 1
  13    7    8 1
  14    8    9 1
  15    8   13 2
  16   10   11 am
  17   10   14 2
  18   10   15 2
  19   11   12 1
  20   11   27 1
  21   12   16 ar
  22   12   17 ar
  23   16   21 1
  24   16   20 ar
  25   17   18 ar
  26   17   28 1
  27   18   19 ar
  28   18   23 1
  29   19   20 ar
  30   19   29 1
  31   20   30 1
  32   21   22 1
  33   22   31 1
  34   22   32 1
  35   22   33 1

#	End of record

