#	Name: ASD01840507
#	Creating user name:	WinNT
#	Creation time:	15. 06. 2019 19:37

#	Modifying user name:	WinNT
#	Modification time:	15. 06. 2019 19:37

#	Program:	/corina/corina34_cracker 3.40 0067  02.08.2006

@<TRIPOS>MOLECULE
ASD01840507
  44   46    0    0    0
SMALL
NO_CHARGES


@<TRIPOS>ATOM
   1 O1            -0.0161     1.3381     0.0094 O.3     
   2 C2             0.0021    -0.0041     0.0020 C.2     
   3 O3             1.0565    -0.5939    -0.0112 O.2     
   4 C4            -1.2926    -0.7753     0.0102 C.3     
   5 F5            -1.0184    -2.1471     0.0003 F       
   6 F6            -2.0198    -0.4534     1.1613 F       
   7 F7            -2.0416    -0.4412    -1.1232 F       
   8 H8             0.8394     1.7888     0.0037 H       
   9 C9             8.3143    17.1436    12.2165 C.3     
  10 C10            8.3685    15.6376    12.2083 C.ar    
  11 N11            8.4015    14.9980    11.0623 N.ar    
  12 C12            8.4500    13.6635    10.9903 C.ar    
  13 S13            8.4998    12.6232     9.5738 S.3     
  14 C14            8.5439    11.1594    10.5365 C.ar    
  15 C15            8.5959     9.8033    10.1604 C.ar    
  16 N16            8.6212     8.8694    11.0940 N.ar    
  17 N17            8.6002     9.1482    12.3452 N.ar    
  18 C18            8.5520    10.3797    12.7985 C.ar    
  19 C19            8.5212    11.4596    11.8925 C.ar    
  20 C20            8.4671    12.9041    12.1550 C.ar    
  21 C21            8.4331    13.5695    13.3972 C.ar    
  22 C22            8.4503    12.7894    14.6864 C.3     
  23 C23            8.3884    14.9486    13.4108 C.ar    
  24 Cl24           8.3513    15.8108    14.9171 Cl      
  25 N25            8.6200     9.4496     8.8145 N.3     
  26 C26            7.4218     9.9563     8.1120 C.3     
  27 C27            7.1105     8.8847     7.0376 C.3     
  28 C28            7.4628     7.5747     7.7903 C.3     
  29 C29            8.6741     7.9850     8.6539 C.3     
  30 H30            9.3282    17.5436    12.2226 H       
  31 H31            7.7911    17.4932    11.3265 H       
  32 H32            7.7843    17.4832    13.1064 H       
  33 H33            8.5364    10.5648    13.8624 H       
  34 H34            9.4789    12.5384    14.9455 H       
  35 H35            8.0121    13.3923    15.4818 H       
  36 H36            7.8724    11.8733    14.5645 H       
  37 H37            6.5869    10.0515     8.8062 H       
  38 H38            7.6357    10.9155     7.6405 H       
  39 H39            6.0565     8.9044     6.7604 H       
  40 H40            7.7456     9.0144     6.1613 H       
  41 H41            6.6315     7.2560     8.4191 H       
  42 H42            7.7392     6.7888     7.0874 H       
  43 H43            9.5997     7.7008     8.1534 H       
  44 H44            8.6143     7.5025     9.6295 H       
@<TRIPOS>BOND
   1    1    2 1
   2    1    8 1
   3    2    3 2
   4    2    4 1
   5    4    5 1
   6    4    6 1
   7    4    7 1
   8    9   10 1
   9    9   30 1
  10    9   31 1
  11    9   32 1
  12   10   23 ar
  13   10   11 ar
  14   11   12 ar
  15   12   20 ar
  16   12   13 1
  17   13   14 1
  18   14   19 ar
  19   14   15 ar
  20   15   16 ar
  21   15   25 1
  22   16   17 ar
  23   17   18 ar
  24   18   19 ar
  25   18   33 1
  26   19   20 1
  27   20   21 ar
  28   21   22 1
  29   21   23 ar
  30   22   34 1
  31   22   35 1
  32   22   36 1
  33   23   24 1
  34   25   29 1
  35   25   26 1
  36   26   27 1
  37   26   37 1
  38   26   38 1
  39   27   28 1
  40   27   39 1
  41   27   40 1
  42   28   29 1
  43   28   41 1
  44   28   42 1
  45   29   43 1
  46   29   44 1

#	End of record

