#	Name: ASD01230275
#	Creating user name:	WinNT
#	Creation time:	15. 06. 2019 19:12

#	Modifying user name:	WinNT
#	Modification time:	15. 06. 2019 19:12

#	Program:	/corina/corina34_cracker 3.40 0067  02.08.2006

@<TRIPOS>MOLECULE
ASD01230275
  43   45    0    0    0
SMALL
NO_CHARGES


@<TRIPOS>ATOM
   1 C1            -0.0187     1.5258     0.0104 C.3     
   2 C2             0.0021    -0.0041     0.0020 C.3     
   3 C3             1.4167     2.0553    -0.0004 C.3     
   4 C4             2.1567     1.5485     1.2391 C.3     
   5 C5             2.1328     1.5619    -1.2592 C.3     
   6 C6             2.1775     0.0187     1.2307 C.3     
   7 C7             2.1536     0.0321    -1.2676 C.3     
   8 C8             0.7182    -0.4975    -1.2568 C.3     
   9 C9             0.7421    -0.5109     1.2415 C.3     
  10 C10            2.8936    -0.4747    -0.0281 C.3     
  11 C11            2.8697    -0.4613    -2.5264 C.3     
  12 C12            2.1297     0.0455    -3.7660 C.3     
  13 C13           -1.4333    -0.5336     0.0129 C.3     
  14 C14           -2.1494    -0.0402     1.2717 C.3     
  15 O15            2.8686    -0.4547     2.3884 O.3     
  16 N16            4.2132    -0.0191     2.4747 N.pl3   
  17 O17            4.6789     0.6953     1.6051 O.2     
  18 O18            4.9039    -0.3587     3.4187 O.2     
  19 N19            1.3968     3.5242     0.0076 N.3     
  20 H20           -0.5459     1.8868    -0.8726 H       
  21 H21           -0.5289     1.8773     0.9072 H       
  22 H22            3.1793     1.9258     1.2314 H       
  23 H23            1.6465     1.9000     2.1359 H       
  24 H24            1.6057     1.9230    -2.1423 H       
  25 H25            3.1554     1.9392    -1.2670 H       
  26 H26            0.7330    -1.5874    -1.2628 H       
  27 H27            0.1910    -0.1364    -2.1398 H       
  28 H28            0.2319    -0.1594     2.1383 H       
  29 H29            0.7568    -1.6008     1.2356 H       
  30 H30            3.9162    -0.0975    -0.0359 H       
  31 H31            2.9084    -1.5646    -0.0341 H       
  32 H32            3.8923    -0.0840    -2.5342 H       
  33 H33            2.8845    -1.5512    -2.5324 H       
  34 H34            2.1150     1.1354    -3.7600 H       
  35 H35            2.6399    -0.3060    -4.6628 H       
  36 H36            1.1071    -0.3318    -3.7582 H       
  37 H37           -1.9605    -0.1726    -0.8702 H       
  38 H38           -1.4185    -1.6235     0.0069 H       
  39 H39           -1.6223    -0.4013     2.1547 H       
  40 H40           -2.1642     1.0497     1.2777 H       
  41 H41           -3.1720    -0.4175     1.2794 H       
  42 H42            2.3337     3.8986     0.0007 H       
  43 H43            0.8584     3.8828    -0.7667 H       
@<TRIPOS>BOND
   1    1    2 1
   2    1    3 1
   3    1   20 1
   4    1   21 1
   5    2    9 1
   6    2    8 1
   7    2   13 1
   8    3    4 1
   9    3    5 1
  10    3   19 1
  11    4    6 1
  12    4   22 1
  13    4   23 1
  14    5    7 1
  15    5   24 1
  16    5   25 1
  17    6    9 1
  18    6   10 1
  19    6   15 1
  20    7   11 1
  21    7    8 1
  22    7   10 1
  23    8   26 1
  24    8   27 1
  25    9   28 1
  26    9   29 1
  27   10   30 1
  28   10   31 1
  29   11   12 1
  30   11   32 1
  31   11   33 1
  32   12   34 1
  33   12   35 1
  34   12   36 1
  35   13   14 1
  36   13   37 1
  37   13   38 1
  38   14   39 1
  39   14   40 1
  40   14   41 1
  41   15   16 1
  42   16   17 2
  43   16   18 2
  44   19   42 1
  45   19   43 1

#	End of record

