#	Name: ASD01917013
#	Creating user name:	WinNT
#	Creation time:	15. 06. 2019 20:08

#	Modifying user name:	WinNT
#	Modification time:	15. 06. 2019 20:08

#	Program:	/corina/corina34_cracker 3.40 0067  02.08.2006

@<TRIPOS>MOLECULE
ASD01917013
  36   38    0    0    0
SMALL
NO_CHARGES


@<TRIPOS>ATOM
   1 C1            -0.0167     1.3826     0.0096 C.ar    
   2 C2             0.0021    -0.0041     0.0020 C.ar    
   3 C3            -1.1815    -0.7130     0.0095 C.ar    
   4 C4            -2.4007    -0.0351     0.0253 C.ar    
   5 C5            -2.4201     1.3606     0.0334 C.ar    
   6 C6            -1.2312     2.0655     0.0307 C.ar    
   7 C7            -3.6703    -0.7939     0.0328 C.2     
   8 N8            -4.8808    -0.2768     0.0470 N.2     
   9 C9            -5.7903    -1.2578     0.0500 C.2     
  10 N10           -5.1686    -2.4170     0.0376 N.2     
  11 N11           -3.7916    -2.1422     0.0204 N.pl3   
  12 C12           -7.2623    -1.0690     0.0653 C.ar    
  13 C13           -8.1091    -2.1753     0.0669 C.ar    
  14 C14           -7.8022     0.2153     0.0838 C.ar    
  15 C15           -9.1719     0.3852     0.0979 C.ar    
  16 C16          -10.0080    -0.7167     0.0941 C.ar    
  17 C17           -9.4773    -1.9939     0.0810 C.ar    
  18 O18            1.1518     2.0768     0.0022 O.3     
  19 C19            2.3598     1.3136    -0.0134 C.3     
  20 O20           -1.2467     3.4253     0.0391 O.3     
  21 C21           -2.5272     4.0595     0.0504 C.3     
  22 H22            0.9452    -0.5301    -0.0102 H       
  23 H23           -1.1641    -1.7928     0.0028 H       
  24 H24           -3.3622     1.8886     0.0452 H       
  25 H25           -3.0700    -2.7903     0.0081 H       
  26 H26           -7.6957    -3.1730     0.0567 H       
  27 H27           -7.1502     1.0763     0.0875 H       
  28 H28           -9.5915     1.3802     0.1123 H       
  29 H29          -11.0792    -0.5792     0.1055 H       
  30 H30          -10.1347    -2.8508     0.0778 H       
  31 H31            2.4009     0.6803     0.8728 H       
  32 H32            2.3839     0.6899    -0.9070 H       
  33 H33            3.2158     1.9883    -0.0180 H       
  34 H34           -3.0860     3.7656    -0.8381 H       
  35 H35           -3.0756     3.7548     0.9418 H       
  36 H36           -2.3967     5.1416     0.0562 H       
@<TRIPOS>BOND
   1    1    2 ar
   2    1   18 1
   3    1    6 ar
   4    2    3 ar
   5    2   22 1
   6    3    4 ar
   7    3   23 1
   8    4    5 ar
   9    4    7 1
  10    5    6 ar
  11    5   24 1
  12    6   20 1
  13    7    8 2
  14    7   11 1
  15    8    9 1
  16    9   10 2
  17    9   12 1
  18   10   11 1
  19   11   25 1
  20   12   13 ar
  21   12   14 ar
  22   13   17 ar
  23   13   26 1
  24   14   15 ar
  25   14   27 1
  26   15   16 ar
  27   15   28 1
  28   16   17 ar
  29   16   29 1
  30   17   30 1
  31   18   19 1
  32   19   31 1
  33   19   32 1
  34   19   33 1
  35   20   21 1
  36   21   34 1
  37   21   35 1
  38   21   36 1

#	End of record

