#	Name: ASD03331428
#	Creating user name:	WinNT
#	Creation time:	15. 06. 2019 20:39

#	Modifying user name:	WinNT
#	Modification time:	15. 06. 2019 20:39

#	Program:	/corina/corina34_cracker 3.40 0067  02.08.2006

@<TRIPOS>MOLECULE
ASD03331428
  79   83    0    0    0
SMALL
NO_CHARGES


@<TRIPOS>ATOM
   1 N1             0.6091     2.2970     0.4603 N.3     
   2 C2             0.9193     0.9058     0.1069 C.3     
   3 C3             1.9048     0.8831    -1.0637 C.3     
   4 C4             3.1830     1.6248    -0.6629 C.3     
   5 C5             2.8260     3.0563    -0.2533 C.3     
   6 C6             1.8138     3.0160     0.8939 C.3     
   7 N7            -2.9597     3.1482     2.4983 N.am    
   8 C8            -1.7695     3.8761     2.9591 C.3     
   9 C9            -0.7011     3.8184     1.8627 C.3     
  10 C10           -0.4388     2.3579     1.4880 C.3     
  11 C11           -1.7241     1.7304     0.9435 C.3     
  12 C12           -2.8040     1.7645     2.0294 C.3     
  13 C13            0.0115     1.5992     2.7098 C.2     
  14 O14           -0.4761     0.5189     2.9666 O.2     
  15 N15            0.9561     2.1213     3.5170 N.am    
  16 C16            3.8436     0.9056     0.5149 C.3     
  17 C17            4.1482     1.6582    -1.8496 C.3     
  18 C18           -4.1722     3.7366     2.5108 C.2     
  19 O19           -5.1336     3.1584     2.0412 O.2     
  20 N20           -4.9614     7.1804     3.4027 N.pl3   
  21 C21           -5.0704     6.1187     2.5668 C.2     
  22 C22           -4.3328     5.0800     3.0932 C.2     
  23 C23           -3.7574     5.5498     4.3025 C.2     
  24 C24           -4.1592     6.8362     4.4653 C.2     
  25 C25           -5.8610     6.0807     1.2843 C.3     
  26 C26           -4.9691     6.5221     0.1222 C.3     
  27 O27           -5.7187     6.4861    -1.0939 O.3     
  28 C28           -3.7959     7.7185     5.5951 C.ar    
  29 C29           -3.9523     7.2743     6.9101 C.ar    
  30 C30           -3.6108     8.1027     7.9603 C.ar    
  31 C31           -3.1144     9.3711     7.7115 C.ar    
  32 C32           -2.9578     9.8165     6.4100 C.ar    
  33 C33           -3.2902     8.9957     5.3518 C.ar    
  34 Cl34          -2.6870    10.4075     9.0370 Cl      
  35 Cl35          -4.5751     5.6844     7.2232 Cl      
  36 C36           -5.5650     8.4307     3.2116 C.ar    
  37 C37           -6.5941     8.8413     4.0483 C.ar    
  38 C38           -7.1869    10.0741     3.8582 C.ar    
  39 C39           -6.7560    10.8999     2.8347 C.ar    
  40 C40           -5.7308    10.4927     1.9991 C.ar    
  41 C41           -5.1309     9.2632     2.1887 C.ar    
  42 Cl42          -7.5032    12.4489     2.5982 Cl      
  43 H43            1.3642     0.4035     0.9659 H       
  44 H44            0.0025     0.3909    -0.1801 H       
  45 H45            2.1469    -0.1494    -1.3156 H       
  46 H46            1.4553     1.3732    -1.9274 H       
  47 H47            3.7263     3.5765     0.0739 H       
  48 H48            2.3910     3.5806    -1.1042 H       
  49 H49            1.5467     4.0338     1.1784 H       
  50 H50            2.2545     2.5038     1.7492 H       
  51 H51           -2.0315     4.9149     3.1597 H       
  52 H52           -1.3862     3.4117     3.8676 H       
  53 H53           -1.0508     4.3620     0.9850 H       
  54 H54            0.2204     4.2713     2.2285 H       
  55 H55           -2.0641     2.2937     0.0745 H       
  56 H56           -1.5306     0.6972     0.6551 H       
  57 H57           -2.5050     1.1279     2.8622 H       
  58 H58           -3.7486     1.4100     1.6167 H       
  59 H59            1.2846     3.0205     3.3608 H       
  60 H60            1.3074     1.5978     4.2543 H       
  61 H61            4.0922    -0.1151     0.2242 H       
  62 H62            4.7533     1.4342     0.7995 H       
  63 H63            3.1557     0.8852     1.3602 H       
  64 H64            3.6771     2.1734    -2.6868 H       
  65 H65            5.0578     2.1863    -1.5635 H       
  66 H66            4.3974     0.6388    -2.1441 H       
  67 H67           -3.1188     4.9887     4.9686 H       
  68 H68           -6.2147     5.0653     1.1055 H       
  69 H69           -6.7144     6.7541     1.3635 H       
  70 H70           -4.6154     7.5375     0.3010 H       
  71 H71           -4.1157     5.8487     0.0430 H       
  72 H72           -5.2150     6.7544    -1.8745 H       
  73 H73           -3.7314     7.7610     8.9777 H       
  74 H74           -2.5705    10.8071     6.2224 H       
  75 H75           -3.1629     9.3429     4.3371 H       
  76 H76           -6.9309     8.1971     4.8470 H       
  77 H77           -7.9877    10.3938     4.5085 H       
  78 H78           -5.3965    11.1388     1.2008 H       
  79 H79           -4.3276     8.9479     1.5394 H       
@<TRIPOS>BOND
   1    1    2 1
   2    1    6 1
   3    1   10 1
   4    2    3 1
   5    2   43 1
   6    2   44 1
   7    3    4 1
   8    3   45 1
   9    3   46 1
  10    4    5 1
  11    4   16 1
  12    4   17 1
  13    5    6 1
  14    5   47 1
  15    5   48 1
  16    6   49 1
  17    6   50 1
  18    7    8 1
  19    7   12 1
  20    7   18 am
  21    8    9 1
  22    8   51 1
  23    8   52 1
  24    9   10 1
  25    9   53 1
  26    9   54 1
  27   10   11 1
  28   10   13 1
  29   11   12 1
  30   11   55 1
  31   11   56 1
  32   12   57 1
  33   12   58 1
  34   13   14 2
  35   13   15 am
  36   15   59 1
  37   15   60 1
  38   16   61 1
  39   16   62 1
  40   16   63 1
  41   17   64 1
  42   17   65 1
  43   17   66 1
  44   18   19 2
  45   18   22 1
  46   20   21 1
  47   20   24 1
  48   20   36 1
  49   21   22 2
  50   21   25 1
  51   22   23 1
  52   23   24 2
  53   23   67 1
  54   24   28 1
  55   25   26 1
  56   25   68 1
  57   25   69 1
  58   26   27 1
  59   26   70 1
  60   26   71 1
  61   27   72 1
  62   28   29 ar
  63   28   33 ar
  64   29   30 ar
  65   29   35 1
  66   30   31 ar
  67   30   73 1
  68   31   32 ar
  69   31   34 1
  70   32   33 ar
  71   32   74 1
  72   33   75 1
  73   36   37 ar
  74   36   41 ar
  75   37   38 ar
  76   37   76 1
  77   38   39 ar
  78   38   77 1
  79   39   40 ar
  80   39   42 1
  81   40   41 ar
  82   40   78 1
  83   41   79 1

#	End of record

