#	Name: ASD09116257
#	Creating user name:	WinNT
#	Creation time:	15. 06. 2019 21:21

#	Modifying user name:	WinNT
#	Modification time:	15. 06. 2019 21:21

#	Program:	/corina/corina34_cracker 3.40 0067  02.08.2006

@<TRIPOS>MOLECULE
ASD09116257
  75   81    0    0    0
SMALL
NO_CHARGES


@<TRIPOS>ATOM
   1 N1            -0.0567     1.5275    -0.5270 N.pl3   
   2 N2            -0.0776     0.2486    -1.1065 N.2     
   3 C3             1.2417     1.9098    -0.4914 C.2     
   4 N4             1.9639     0.9392    -1.0097 N.2     
   5 C5             1.1651    -0.0671    -1.3824 C.2     
   6 N6             1.7236     3.1080     0.0019 N.pl3   
   7 C7             3.1044     3.3274     0.0827 C.ar    
   8 C8             3.6099     4.6159    -0.0249 C.ar    
   9 C9             4.9720     4.8333     0.0547 C.ar    
  10 C10            5.8359     3.7639     0.2426 C.ar    
  11 C11            5.3304     2.4726     0.3509 C.ar    
  12 C12            3.9675     2.2563     0.2761 C.ar    
  13 C13           -1.1571     2.2618    -0.0815 C.ar    
  14 N14           -1.0021     3.1842     0.8566 N.ar    
  15 N15           -1.9836     3.8808     1.3083 N.ar    
  16 C16           -3.2171     3.7145     0.8589 C.ar    
  17 C17           -3.4728     2.7781    -0.1469 C.ar    
  18 C18           -2.4211     2.0280    -0.6291 C.ar    
  19 C19           -4.3584     4.4774     1.4156 C.ar    
  20 C20           -5.5071     3.7859     1.8033 C.ar    
  21 C21           -5.5357     2.2856     1.6987 C.3     
  22 C22           -5.7437     1.8318     0.2564 C.3     
  23 C23           -4.8625     2.6357    -0.6960 C.3     
  24 C24           -4.2998     5.8600     1.5507 C.ar    
  25 C25           -5.3899     6.5448     2.0519 C.ar    
  26 C26           -6.5340     5.8580     2.4155 C.ar    
  27 C27           -6.5932     4.4807     2.2905 C.ar    
  28 N28            1.5860    -1.2600    -1.9693 N.pl3   
  29 F29            6.1711     1.4309     0.5335 F       
  30 N30            7.2172     3.9847     0.3228 N.3     
  31 C31            7.7232     4.6059    -0.9079 C.3     
  32 C32            9.2494     4.6985    -0.8440 C.3     
  33 C33            9.6547     5.5323     0.3747 C.3     
  34 C34            9.0746     4.8905     1.6381 C.3     
  35 C35            7.5535     4.7924     1.5022 C.3     
  36 N36           11.1196     5.5759     0.4744 N.3     
  37 C37           11.5472     6.4656     1.5639 C.3     
  38 C38           13.0742     6.4351     1.6708 C.3     
  39 O39           13.6427     6.8081     0.4126 O.3     
  40 C40           13.2477     5.9623    -0.6709 C.3     
  41 C41           11.7226     5.9879    -0.8015 C.3     
  42 H42            1.1053     3.7968     0.2920 H       
  43 H43            2.9380     5.4488    -0.1712 H       
  44 H44            5.3644     5.8359    -0.0298 H       
  45 H45            3.5742     1.2540     0.3601 H       
  46 H46           -2.5702     1.2820    -1.3958 H       
  47 H47           -4.5910     1.8845     2.0660 H       
  48 H48           -6.3486     1.9007     2.3144 H       
  49 H49           -5.4912     0.7747     0.1729 H       
  50 H50           -6.7894     1.9729    -0.0169 H       
  51 H51           -5.2960     3.6260    -0.8356 H       
  52 H52           -4.8171     2.1262    -1.6585 H       
  53 H53           -3.4065     6.3959     1.2655 H       
  54 H54           -5.3485     7.6185     2.1605 H       
  55 H55           -7.3862     6.3994     2.7991 H       
  56 H56           -7.4899     3.9505     2.5758 H       
  57 H57            2.5292    -1.4109    -2.1385 H       
  58 H58            0.9357    -1.9387    -2.2085 H       
  59 H59            7.4317     4.0009    -1.7665 H       
  60 H60            7.3025     5.6063    -1.0092 H       
  61 H61            9.6714     3.6973    -0.7566 H       
  62 H62            9.6234     5.1738    -1.7508 H       
  63 H63            9.2655     6.5449     0.2689 H       
  64 H64            9.4939     3.8924     1.7646 H       
  65 H65            9.3238     5.5030     2.5046 H       
  66 H66            7.1337     5.7919     1.3896 H       
  67 H67            7.1387     4.3228     2.3942 H       
  68 H68           11.2173     7.4829     1.3538 H       
  69 H69           11.1098     6.1270     2.5031 H       
  70 H70           13.3993     7.1365     2.4393 H       
  71 H71           13.4007     5.4290     1.9338 H       
  72 H72           13.6984     6.3216    -1.5961 H       
  73 H73           13.5793     4.9424    -0.4760 H       
  74 H74           11.4131     5.3007    -1.5890 H       
  75 H75           11.3954     6.9976    -1.0495 H       
@<TRIPOS>BOND
   1    1    2 1
   2    1    3 1
   3    1   13 1
   4    2    5 2
   5    3    4 2
   6    3    6 1
   7    4    5 1
   8    5   28 1
   9    6    7 1
  10    6   42 1
  11    7    8 ar
  12    7   12 ar
  13    8    9 ar
  14    8   43 1
  15    9   10 ar
  16    9   44 1
  17   10   11 ar
  18   10   30 1
  19   11   12 ar
  20   11   29 1
  21   12   45 1
  22   13   14 ar
  23   13   18 ar
  24   14   15 ar
  25   15   16 ar
  26   16   17 ar
  27   16   19 1
  28   17   18 ar
  29   17   23 1
  30   18   46 1
  31   19   20 ar
  32   19   24 ar
  33   20   21 1
  34   20   27 ar
  35   21   22 1
  36   21   47 1
  37   21   48 1
  38   22   23 1
  39   22   49 1
  40   22   50 1
  41   23   51 1
  42   23   52 1
  43   24   25 ar
  44   24   53 1
  45   25   26 ar
  46   25   54 1
  47   26   27 ar
  48   26   55 1
  49   27   56 1
  50   28   57 1
  51   28   58 1
  52   30   31 1
  53   30   35 1
  54   31   32 1
  55   31   59 1
  56   31   60 1
  57   32   33 1
  58   32   61 1
  59   32   62 1
  60   33   34 1
  61   33   36 1
  62   33   63 1
  63   34   35 1
  64   34   64 1
  65   34   65 1
  66   35   66 1
  67   35   67 1
  68   36   37 1
  69   36   41 1
  70   37   38 1
  71   37   68 1
  72   37   69 1
  73   38   39 1
  74   38   70 1
  75   38   71 1
  76   39   40 1
  77   40   41 1
  78   40   72 1
  79   40   73 1
  80   41   74 1
  81   41   75 1

#	End of record

