#	Name: ASD02560548
#	Creating user name:	WinNT
#	Creation time:	15. 06. 2019 20:25

#	Modifying user name:	WinNT
#	Modification time:	15. 06. 2019 20:25

#	Program:	/corina/corina34_cracker 3.40 0067  02.08.2006

@<TRIPOS>MOLECULE
ASD02560548
  55   58    0    0    0
SMALL
NO_CHARGES


@<TRIPOS>ATOM
   1 N1            -0.0192     1.2805     0.0821 N.2     
   2 N2            -0.0011    -0.0042     0.0571 N.2     
   3 C3             1.1978     1.7477     0.0501 C.2     
   4 N4             2.0452     0.6721     0.0012 N.pl3   
   5 C5             1.2382    -0.4337     0.0073 C.2     
   6 S6             1.7635    -2.1148    -0.0418 S.3     
   7 C7             0.1568    -2.9474    -0.0040 C.3     
   8 C8             0.3634    -4.4398    -0.0389 C.2     
   9 O9             1.4864    -4.8956    -0.0849 O.2     
  10 N10           -0.6997    -5.2679    -0.0191 N.am    
  11 C11            3.4444     0.6984    -0.0453 C.ar    
  12 Br12           1.6998     3.5707     0.0674 Br      
  13 C13            4.1785     0.6884     1.1199 C.ar    
  14 C14            5.5698     0.7139     1.0850 C.ar    
  15 C15            6.2426     0.7493    -0.0981 C.ar    
  16 C16            5.5310     0.7607    -1.3097 C.ar    
  17 C17            4.1146     0.7296    -1.2863 C.ar    
  18 C18            6.2003     0.7971    -2.5458 C.ar    
  19 C19            5.4831     0.8072    -3.7013 C.ar    
  20 C20            4.0853     0.7820    -3.6796 C.ar    
  21 C21            3.4039     0.7406    -2.4963 C.ar    
  22 C22           -0.5129    -6.6451    -0.1332 C.ar    
  23 C23           -1.5315    -7.4441    -0.6461 C.ar    
  24 C24           -1.3499    -8.8043    -0.7604 C.ar    
  25 C25           -0.1411    -9.3824    -0.3607 C.ar    
  26 C26            0.8788    -8.5768     0.1537 C.ar    
  27 C27            0.6925    -7.2168     0.2603 C.ar    
  28 C28            0.0570   -10.8387    -0.4811 C.2     
  29 O29           -0.8306   -11.5377    -0.9280 O.2     
  30 Br30          -3.1658    -6.6606    -1.1856 Br      
  31 O31            1.2225   -11.3942    -0.0954 O.3     
  32 C32            7.7494     0.7769    -0.1082 C.3     
  33 O33            3.3959     0.7930    -4.8508 O.3     
  34 C34            4.1639     0.8306    -6.0553 C.3     
  35 C35            8.2323     2.2252    -0.2091 C.3     
  36 H36           -0.3721    -2.6751     0.9094 H       
  37 H37           -0.4313    -2.6417    -0.8693 H       
  38 H38           -1.5947    -4.9060     0.0746 H       
  39 H39            3.6687     0.6608     2.0717 H       
  40 H40            6.1247     0.7058     2.0116 H       
  41 H41            7.2796     0.8172    -2.5775 H       
  42 H42            6.0005     0.8356    -4.6488 H       
  43 H43            2.3241     0.7210    -2.4920 H       
  44 H44           -2.1403    -9.4238    -1.1580 H       
  45 H45            1.8135    -9.0203     0.4636 H       
  46 H46            1.4804    -6.5941     0.6577 H       
  47 H47            1.3057   -12.3526    -0.1933 H       
  48 H48            8.1271     0.3313     0.8120 H       
  49 H49            8.1174     0.2108    -0.9639 H       
  50 H50            3.4927     0.8357    -6.9141 H       
  51 H51            4.7766     1.7320    -6.0676 H       
  52 H52            4.8082    -0.0473    -6.1030 H       
  53 H53            7.8545     2.6709    -1.1294 H       
  54 H54            7.8643     2.7914     0.6465 H       
  55 H55            9.3221     2.2451    -0.2165 H       
@<TRIPOS>BOND
   1    1    2 1
   2    1    3 2
   3    2    5 2
   4    3    4 1
   5    3   12 1
   6    4    5 1
   7    4   11 1
   8    5    6 1
   9    6    7 1
  10    7    8 1
  11    7   36 1
  12    7   37 1
  13    8    9 2
  14    8   10 am
  15   10   22 1
  16   10   38 1
  17   11   13 ar
  18   11   17 ar
  19   13   14 ar
  20   13   39 1
  21   14   15 ar
  22   14   40 1
  23   15   16 ar
  24   15   32 1
  25   16   17 ar
  26   16   18 ar
  27   17   21 ar
  28   18   19 ar
  29   18   41 1
  30   19   20 ar
  31   19   42 1
  32   20   21 ar
  33   20   33 1
  34   21   43 1
  35   22   23 ar
  36   22   27 ar
  37   23   24 ar
  38   23   30 1
  39   24   25 ar
  40   24   44 1
  41   25   26 ar
  42   25   28 1
  43   26   27 ar
  44   26   45 1
  45   27   46 1
  46   28   29 2
  47   28   31 1
  48   31   47 1
  49   32   35 1
  50   32   48 1
  51   32   49 1
  52   33   34 1
  53   34   50 1
  54   34   51 1
  55   34   52 1
  56   35   53 1
  57   35   54 1
  58   35   55 1

#	End of record

