#	Name: ASD01000020
#	Creating user name:	WinNT
#	Creation time:	15. 06. 2019 18:54

#	Modifying user name:	WinNT
#	Modification time:	15. 06. 2019 18:54

#	Program:	/corina/corina34_cracker 3.40 0067  02.08.2006

@<TRIPOS>MOLECULE
ASD01000020
  42   43    0    0    0
SMALL
NO_CHARGES


@<TRIPOS>ATOM
   1 C1             0.2959     1.1944     0.1776 C.ar    
   2 C2             0.2188    -0.1902     0.2084 C.ar    
   3 C3            -0.9798    -0.8206    -0.0650 C.ar    
   4 C4            -2.1023    -0.0720    -0.3698 C.ar    
   5 C5            -2.0274     1.3092    -0.4015 C.ar    
   6 C6            -0.8326     1.9436    -0.1227 C.ar    
   7 C7            -1.0642    -2.3249    -0.0317 C.3     
   8 N8             0.2228    -2.8624    -0.5045 N.am    
   9 C9            -1.5117    -2.7371     1.3561 C.2     
  10 C10           -0.7047    -3.5629     2.0575 C.2     
  11 N11            0.4731    -4.0098     1.5328 N.am    
  12 C12            0.9167    -3.6779     0.3139 C.2     
  13 C13           -2.7323    -2.2728     1.8987 C.2     
  14 O14           -3.8291    -3.0582     1.8619 O.3     
  15 S15            2.4142    -4.3106    -0.2229 S.2     
  16 O16           -2.7936    -1.1652     2.3988 O.2     
  17 O17            1.4740     1.8165     0.4468 O.3     
  18 Br18          -3.7414    -0.9376    -0.7443 Br      
  19 C19           -5.0441    -2.4998     2.3661 C.3     
  20 C20           -6.1923    -3.4841     2.1348 C.3     
  21 C21           -1.1115    -3.9971     3.4420 C.3     
  22 C22            0.9280    -6.3567     2.0489 C.3     
  23 C23            1.2987    -4.9030     2.3493 C.3     
  24 H24            1.0952    -0.7751     0.4457 H       
  25 H25           -2.9048     1.8919    -0.6404 H       
  26 H26           -0.7746     3.0218    -0.1472 H       
  27 H27           -1.8360    -2.6309    -0.7379 H       
  28 H28            0.5627    -2.6352    -1.3841 H       
  29 H29            2.0270     1.9656    -0.3323 H       
  30 H30           -4.9399    -2.3075     3.4340 H       
  31 H31           -5.2569    -1.5649     1.8477 H       
  32 H32           -6.2410    -3.7435     1.0772 H       
  33 H33           -6.0217    -4.3861     2.7226 H       
  34 H34           -7.1322    -3.0241     2.4398 H       
  35 H35           -2.0518    -3.5165     3.7119 H       
  36 H36           -1.2383    -5.0796     3.4607 H       
  37 H37           -0.3387    -3.7095     4.1548 H       
  38 H38            1.1017    -6.5652     0.9932 H       
  39 H39            1.5423    -7.0213     2.6564 H       
  40 H40           -0.1241    -6.5192     2.2830 H       
  41 H41            2.3508    -4.7405     2.1152 H       
  42 H42            1.1250    -4.6945     3.4050 H       
@<TRIPOS>BOND
   1    1    2 ar
   2    1   17 1
   3    1    6 ar
   4    2    3 ar
   5    2   24 1
   6    3    4 ar
   7    3    7 1
   8    4    5 ar
   9    4   18 1
  10    5    6 ar
  11    5   25 1
  12    6   26 1
  13    7    8 1
  14    7    9 1
  15    7   27 1
  16    8   12 am
  17    8   28 1
  18    9   10 2
  19    9   13 1
  20   10   21 1
  21   10   11 1
  22   11   23 1
  23   11   12 am
  24   12   15 2
  25   13   14 1
  26   13   16 2
  27   14   19 1
  28   17   29 1
  29   19   20 1
  30   19   30 1
  31   19   31 1
  32   20   32 1
  33   20   33 1
  34   20   34 1
  35   21   35 1
  36   21   36 1
  37   21   37 1
  38   22   23 1
  39   22   38 1
  40   22   39 1
  41   22   40 1
  42   23   41 1
  43   23   42 1

#	End of record

