#	Name: ASD03730190
#	Creating user name:	WinNT
#	Creation time:	15. 06. 2019 20:44

#	Modifying user name:	WinNT
#	Modification time:	15. 06. 2019 20:44

#	Program:	/corina/corina34_cracker 3.40 0067  02.08.2006

@<TRIPOS>MOLECULE
ASD03730190
  55   59    0    0    0
SMALL
NO_CHARGES


@<TRIPOS>ATOM
   1 O1             0.1605     1.7120    -1.8815 O.3     
   2 C2            -0.0303     0.3383    -1.4933 C.3     
   3 C3             1.4075    -0.1968    -1.4425 C.3     
   4 C4             2.2286     1.0430    -1.2103 C.ar    
   5 C5             1.3985     2.1259    -1.4873 C.ar    
   6 C6             1.9003     3.4155    -1.3393 C.ar    
   7 C7             3.2033     3.6157    -0.9339 C.ar    
   8 C8             4.0265     2.5313    -0.6691 C.ar    
   9 C9             3.5314     1.2424    -0.8100 C.ar    
  10 N10            2.0136    -2.3437    -0.9443 N.am    
  11 C11            1.5868    -1.2115    -0.3501 C.2     
  12 C12            1.7870    -0.9047    -2.7091 C.ar    
  13 C13            1.8356    -0.5269    -4.0324 C.ar    
  14 C14            2.2385    -1.4327    -4.9974 C.ar    
  15 C15            2.5922    -2.7183    -4.6299 C.ar    
  16 C16            2.5454    -3.1016    -3.3058 C.ar    
  17 C17            2.1412    -2.1963    -2.3275 C.ar    
  18 O18            1.3874    -1.0449     0.8346 O.2     
  19 O19            5.3123     2.7299    -0.2742 O.3     
  20 C20            5.7199     4.0060    -0.0467 C.ar    
  21 C21            5.5681     4.5703     1.2118 C.ar    
  22 C22            5.9832     5.8678     1.4403 C.ar    
  23 C23            6.5496     6.6043     0.4163 C.ar    
  24 C24            6.7020     6.0444    -0.8388 C.ar    
  25 C25            6.2938     4.7454    -1.0712 C.ar    
  26 C26            2.3097    -3.5841    -0.2233 C.3     
  27 C27            1.0453    -4.4420    -0.1438 C.3     
  28 C28            1.3545    -5.7375     0.6092 C.3     
  29 C29            0.0901    -6.5954     0.6886 C.3     
  30 C30            0.3993    -7.8909     1.4416 C.3     
  31 H31           -0.5015     0.2753    -0.5124 H       
  32 H32           -0.6162    -0.1972    -2.2403 H       
  33 H33            1.2654     4.2649    -1.5436 H       
  34 H34            3.5840     4.6202    -0.8226 H       
  35 H35            4.1683     0.3946    -0.6050 H       
  36 H36            1.5586     0.4773    -4.3173 H       
  37 H37            2.2763    -1.1368    -6.0353 H       
  38 H38            2.9063    -3.4254    -5.3833 H       
  39 H39            2.8231    -4.1072    -3.0265 H       
  40 H40            5.1254     3.9956     2.0120 H       
  41 H41            5.8650     6.3076     2.4196 H       
  42 H42            6.8732     7.6187     0.5969 H       
  43 H43            7.1447     6.6218    -1.6370 H       
  44 H44            6.4174     4.3069    -2.0504 H       
  45 H45            3.0892    -4.1338    -0.7508 H       
  46 H46            2.6512    -3.3462     0.7841 H       
  47 H47            0.2658    -3.8923     0.3837 H       
  48 H48            0.7038    -4.6800    -1.1512 H       
  49 H49            2.1340    -6.2872     0.0816 H       
  50 H50            1.6960    -5.4996     1.6166 H       
  51 H51           -0.6893    -6.0457     1.2162 H       
  52 H52           -0.2514    -6.8334    -0.3188 H       
  53 H53            1.1788    -8.4406     0.9140 H       
  54 H54            0.7409    -7.6530     2.4490 H       
  55 H55           -0.5014    -8.5021     1.4982 H       
@<TRIPOS>BOND
   1    1    2 1
   2    1    5 1
   3    2    3 1
   4    2   31 1
   5    2   32 1
   6    3    4 1
   7    3   11 1
   8    3   12 1
   9    4    5 ar
  10    4    9 ar
  11    5    6 ar
  12    6    7 ar
  13    6   33 1
  14    7    8 ar
  15    7   34 1
  16    8    9 ar
  17    8   19 1
  18    9   35 1
  19   10   11 am
  20   10   17 1
  21   10   26 1
  22   11   18 2
  23   12   13 ar
  24   12   17 ar
  25   13   14 ar
  26   13   36 1
  27   14   15 ar
  28   14   37 1
  29   15   16 ar
  30   15   38 1
  31   16   17 ar
  32   16   39 1
  33   19   20 1
  34   20   21 ar
  35   20   25 ar
  36   21   22 ar
  37   21   40 1
  38   22   23 ar
  39   22   41 1
  40   23   24 ar
  41   23   42 1
  42   24   25 ar
  43   24   43 1
  44   25   44 1
  45   26   27 1
  46   26   45 1
  47   26   46 1
  48   27   28 1
  49   27   47 1
  50   27   48 1
  51   28   29 1
  52   28   49 1
  53   28   50 1
  54   29   30 1
  55   29   51 1
  56   29   52 1
  57   30   53 1
  58   30   54 1
  59   30   55 1

#	End of record

