#	Name: ASD01940010
#	Creating user name:	WinNT
#	Creation time:	15. 06. 2019 20:11

#	Modifying user name:	WinNT
#	Modification time:	15. 06. 2019 20:11

#	Program:	/corina/corina34_cracker 3.40 0067  02.08.2006

@<TRIPOS>MOLECULE
ASD01940010
  48   50    0    0    0
SMALL
NO_CHARGES


@<TRIPOS>ATOM
   1 C1             0.0161     1.1991     0.3248 C.ar    
   2 C2            -0.9749     1.7032     1.1637 C.ar    
   3 C3            -2.2425     1.1972     1.1070 C.ar    
   4 C4            -2.5449     0.1715     0.2045 C.ar    
   5 C5            -1.5470    -0.3322    -0.6371 C.ar    
   6 C6            -0.2827     0.1818    -0.5785 C.ar    
   7 N7             1.3054     1.7166     0.3852 N.pl3   
   8 C8             1.4995     3.0622     0.6441 C.2     
   9 C9             2.7069     3.7124     0.8539 C.2     
  10 C10            2.5709     5.0809     1.0919 C.2     
  11 N11            1.3640     5.5599     1.0869 N.2     
  12 S12            0.2955     4.2844     0.7665 S.3     
  13 O13            3.6501     5.8742     1.3184 O.3     
  14 C14            4.0080     3.0241     0.8286 C.2     
  15 N15            4.5281     2.4895     1.9887 N.pl3   
  16 N16            4.6702     2.9198    -0.2932 N.2     
  17 C17            5.8229     1.8045     1.9635 C.3     
  18 C18            6.9467     2.8328     2.1073 C.3     
  19 C19            5.8943     0.8059     3.1204 C.3     
  20 O20            5.8645     1.5125     4.3621 O.3     
  21 C21           -3.9114    -0.3774     0.1409 C.2     
  22 C22           -4.7917    -0.3074     1.3259 C.ar    
  23 C23           -6.1743    -0.4425     1.1816 C.ar    
  24 C24           -6.9900    -0.3762     2.2918 C.ar    
  25 C25           -6.4415    -0.1763     3.5464 C.ar    
  26 C26           -5.0725    -0.0411     3.6966 C.ar    
  27 C27           -4.2445    -0.1116     2.5957 C.ar    
  28 O28           -4.3143    -0.8877    -0.8867 O.2     
  29 H29           -0.7408     2.4949     1.8600 H       
  30 H30           -3.0103     1.5880     1.7583 H       
  31 H31           -1.7768    -1.1241    -1.3345 H       
  32 H32            0.4881    -0.2065    -1.2278 H       
  33 H33            2.0687     1.1345     0.2458 H       
  34 H34            4.0288     6.2611     0.5172 H       
  35 H35            4.0366     2.5669     2.8214 H       
  36 H36            5.5275     2.4663    -0.3099 H       
  37 H37            5.9348     1.2738     1.0180 H       
  38 H38            6.8348     3.3635     3.0528 H       
  39 H39            7.9101     2.3232     2.0885 H       
  40 H40            6.8959     3.5443     1.2831 H       
  41 H41            5.0427     0.1276     3.0679 H       
  42 H42            6.8194     0.2338     3.0500 H       
  43 H43            5.9065     0.9410     5.1410 H       
  44 H44           -6.6037    -0.5982     0.2029 H       
  45 H45           -8.0593    -0.4801     2.1816 H       
  46 H46           -7.0849    -0.1251     4.4124 H       
  47 H47           -4.6510     0.1150     4.6786 H       
  48 H48           -3.1762    -0.0064     2.7143 H       
@<TRIPOS>BOND
   1    1    2 ar
   2    1    7 1
   3    1    6 ar
   4    2    3 ar
   5    2   29 1
   6    3    4 ar
   7    3   30 1
   8    4    5 ar
   9    4   21 1
  10    5    6 ar
  11    5   31 1
  12    6   32 1
  13    7    8 1
  14    7   33 1
  15    8    9 2
  16    8   12 1
  17    9   10 1
  18    9   14 1
  19   10   11 2
  20   10   13 1
  21   11   12 1
  22   13   34 1
  23   14   15 1
  24   14   16 2
  25   15   17 1
  26   15   35 1
  27   16   36 1
  28   17   18 1
  29   17   19 1
  30   17   37 1
  31   18   38 1
  32   18   39 1
  33   18   40 1
  34   19   20 1
  35   19   41 1
  36   19   42 1
  37   20   43 1
  38   21   22 1
  39   21   28 2
  40   22   23 ar
  41   22   27 ar
  42   23   24 ar
  43   23   44 1
  44   24   25 ar
  45   24   45 1
  46   25   26 ar
  47   25   46 1
  48   26   27 ar
  49   26   47 1
  50   27   48 1

#	End of record

