#	Name: ASD01180283
#	Creating user name:	WinNT
#	Creation time:	15. 06. 2019 19:07

#	Modifying user name:	WinNT
#	Modification time:	15. 06. 2019 19:07

#	Program:	/corina/corina34_cracker 3.40 0067  02.08.2006

@<TRIPOS>MOLECULE
ASD01180283
  63   66    0    0    0
SMALL
NO_CHARGES


@<TRIPOS>ATOM
   1 C1            -0.0184     1.5028     0.0103 C.2     
   2 C2             0.0021    -0.0041     0.0020 C.3     
   3 C3             1.4513    -0.4944    -0.0145 C.3     
   4 O4             1.0197     2.1211     0.0037 O.2     
   5 O5            -1.1898     2.1580     0.0194 O.3     
   6 C6             2.6473    -2.6171    -0.0373 C.2     
   7 C7             2.6673    -4.0924    -0.0454 C.ar    
   8 C8             3.8864    -4.7877    -0.0608 C.ar    
   9 C9             3.8577    -6.1559    -0.0679 C.ar    
  10 C10            2.6289    -6.8141    -0.0597 C.ar    
  11 N11            1.4912    -6.1331    -0.0456 N.ar    
  12 C12            1.4744    -4.8165    -0.0321 C.ar    
  13 O13            3.6920    -1.9949    -0.0439 O.2     
  14 N14            1.4712    -1.9592    -0.0225 N.am    
  15 N15            2.5959    -8.1983    -0.0669 N.pl3   
  16 C16            3.8430    -8.9612     0.0277 C.3     
  17 C17            4.7247    -9.7010     4.0504 C.ar    
  18 N18            3.9875   -10.5744     3.3781 N.ar    
  19 C19            3.6907   -10.3706     2.1062 C.ar    
  20 C20            4.1603    -9.2275     1.4766 C.ar    
  21 C21            4.9286    -8.3350     2.2092 C.ar    
  22 N22            5.1890    -8.5987     3.4781 N.ar    
  23 C23            5.0322    -9.9603     5.4780 C.ar    
  24 C24            5.8054    -9.0549     6.2026 C.ar    
  25 C25            6.0885    -9.3013     7.5306 C.ar    
  26 C26            5.6068   -10.4445     8.1426 C.ar    
  27 C27            4.8393   -11.3468     7.4282 C.ar    
  28 C28            4.5444   -11.1074     6.1015 C.ar    
  29 C29            5.9197   -10.7083     9.5930 C.3     
  30 F30            4.9244   -10.1403    10.3955 F       
  31 F31            5.9676   -12.0885     9.8162 F       
  32 F32            7.1576   -10.1408     9.9136 F       
  33 C33            1.3139    -8.8999    -0.1691 C.3     
  34 C34            0.4102    -8.5220     1.0176 C.3     
  35 C35           -0.8508    -7.8647     0.4194 C.3     
  36 C36           -0.9192    -8.4193    -1.0252 C.3     
  37 C37            0.5706    -8.4591    -1.4470 C.3     
  38 H38           -0.4983    -0.3791     0.8948 H       
  39 H39           -0.5153    -0.3696    -0.8850 H       
  40 H40            1.9516    -0.1193    -0.9073 H       
  41 H41            1.9686    -0.1289     0.8726 H       
  42 H42           -1.1523     3.1243     0.0245 H       
  43 H43            4.8259    -4.2550    -0.0672 H       
  44 H44            4.7783    -6.7204    -0.0801 H       
  45 H45            0.5300    -4.2929    -0.0154 H       
  46 H46            0.6378    -2.4556    -0.0172 H       
  47 H47            3.7303    -9.9085    -0.4996 H       
  48 H48            4.6540    -8.3889    -0.4226 H       
  49 H49            3.0901   -11.0857     1.5638 H       
  50 H50            5.3093    -7.4354     1.7487 H       
  51 H51            6.1826    -8.1624     5.7256 H       
  52 H52            6.6875    -8.6005     8.0931 H       
  53 H53            4.4664   -12.2381     7.9109 H       
  54 H54            3.9408   -11.8099     5.5460 H       
  55 H55            1.4785    -9.9773    -0.1848 H       
  56 H56            0.1354    -9.4160     1.5773 H       
  57 H57            0.9254    -7.8165     1.6695 H       
  58 H58           -1.7371    -8.1570     0.9826 H       
  59 H59           -0.7461    -6.7798     0.4070 H       
  60 H60           -1.3503    -9.4204    -1.0347 H       
  61 H61           -1.4855    -7.7476    -1.6704 H       
  62 H62            0.9048    -7.4702    -1.7608 H       
  63 H63            0.7217    -9.1852    -2.2458 H       
@<TRIPOS>BOND
   1    1    2 1
   2    1    4 2
   3    1    5 1
   4    2    3 1
   5    2   38 1
   6    2   39 1
   7    3   14 1
   8    3   40 1
   9    3   41 1
  10    5   42 1
  11    6    7 1
  12    6   13 2
  13    6   14 am
  14    7    8 ar
  15    7   12 ar
  16    8    9 ar
  17    8   43 1
  18    9   10 ar
  19    9   44 1
  20   10   11 ar
  21   10   15 1
  22   11   12 ar
  23   12   45 1
  24   14   46 1
  25   15   16 1
  26   15   33 1
  27   16   20 1
  28   16   47 1
  29   16   48 1
  30   17   18 ar
  31   17   22 ar
  32   17   23 1
  33   18   19 ar
  34   19   20 ar
  35   19   49 1
  36   20   21 ar
  37   21   22 ar
  38   21   50 1
  39   23   24 ar
  40   23   28 ar
  41   24   25 ar
  42   24   51 1
  43   25   26 ar
  44   25   52 1
  45   26   27 ar
  46   26   29 1
  47   27   28 ar
  48   27   53 1
  49   28   54 1
  50   29   30 1
  51   29   31 1
  52   29   32 1
  53   33   34 1
  54   33   37 1
  55   33   55 1
  56   34   35 1
  57   34   56 1
  58   34   57 1
  59   35   36 1
  60   35   58 1
  61   35   59 1
  62   36   37 1
  63   36   60 1
  64   36   61 1
  65   37   62 1
  66   37   63 1

#	End of record

