#	Name: ASD01812171
#	Creating user name:	WinNT
#	Creation time:	15. 06. 2019 19:28

#	Modifying user name:	WinNT
#	Modification time:	15. 06. 2019 19:28

#	Program:	/corina/corina34_cracker 3.40 0067  02.08.2006

@<TRIPOS>MOLECULE
ASD01812171
  68   73    0    0    0
SMALL
NO_CHARGES


@<TRIPOS>ATOM
   1 C1             0.1660     1.1584     1.3555 C.ar    
   2 C2             0.1623    -0.2029     1.0587 C.ar    
   3 C3             1.2513    -0.8024     0.5025 C.ar    
   4 C4             2.3974    -0.0418     0.2215 C.ar    
   5 C5             2.4017     1.3451     0.5231 C.ar    
   6 C6             1.2583     1.9283     1.0976 C.ar    
   7 C7             3.5391    -0.6297    -0.3532 C.ar    
   8 C8             4.6359     0.1239    -0.6171 C.ar    
   9 C9             4.6558     1.5015    -0.3231 C.ar    
  10 C10            3.5433     2.1039     0.2429 C.ar    
  11 C11            3.5438    -2.1016    -0.6764 C.3     
  12 C12            5.6982     2.5308    -0.5049 C.2     
  13 N13            5.2569     3.7239    -0.0712 N.am    
  14 C14            3.8867     3.5605     0.4279 C.3     
  15 O15            6.7991     2.3280    -0.9789 O.2     
  16 C16            6.0160     4.9768    -0.0933 C.3     
  17 C17            5.0564     6.1509    -0.2970 C.3     
  18 C18            4.0447     6.1878     0.8502 C.3     
  19 C19            4.7854     6.3588     2.1780 C.3     
  20 C20            5.7449     5.1847     2.3817 C.3     
  21 C21            6.7566     5.1479     1.2345 C.3     
  22 O22            4.3647     5.9911    -1.5372 O.3     
  23 N23            3.7487    -2.8731     0.5568 N.3     
  24 C24            3.3818    -4.2818     0.3635 C.3     
  25 C25            3.4686    -5.0210     1.7006 C.3     
  26 C26            4.8960    -4.9160     2.2447 C.3     
  27 C27            5.2706    -3.4386     2.3911 C.3     
  28 C28            5.1316    -2.7452     1.0339 C.3     
  29 C29            4.9735    -5.5922     3.5892 C.ar    
  30 N30            3.8626    -5.8853     4.2363 N.ar    
  31 C31            3.8820    -6.4767     5.4149 C.ar    
  32 C32            5.0792    -6.8121     6.0178 C.ar    
  33 C33            6.2686    -6.5197     5.3675 C.ar    
  34 C34            6.2082    -5.9031     4.1274 C.ar    
  35 C35            5.8276    -5.5695     1.3110 C.1     
  36 N36            6.5466    -6.0738     0.5904 N.1     
  37 H37           -0.7123     1.6101     1.7925 H       
  38 H38           -0.7173    -0.7916     1.2733 H       
  39 H39            1.2334    -1.8589     0.2788 H       
  40 H40            1.2467     2.9825     1.3323 H       
  41 H41            5.5062    -0.3389    -1.0584 H       
  42 H42            2.5892    -2.3785    -1.1238 H       
  43 H43            4.3499    -2.3170    -1.3778 H       
  44 H44            3.2015     4.1832    -0.1472 H       
  45 H45            3.8383     3.8258     1.4841 H       
  46 H46            6.7367     4.9505    -0.9106 H       
  47 H47            5.6212     7.0830    -0.3135 H       
  48 H48            3.3611     7.0242     0.7050 H       
  49 H49            3.4800     5.2556     0.8666 H       
  50 H50            5.3501     7.2910     2.1615 H       
  51 H51            4.0646     6.3851     2.9953 H       
  52 H52            6.2726     5.3066     3.3277 H       
  53 H53            5.1802     4.2526     2.3982 H       
  54 H54            7.4402     4.3114     1.3797 H       
  55 H55            7.3214     6.0800     1.2181 H       
  56 H56            3.7378     6.7011    -1.7322 H       
  57 H57            2.3632    -4.3425    -0.0197 H       
  58 H58            4.0661    -4.7406    -0.3502 H       
  59 H59            2.7745    -4.5714     2.4107 H       
  60 H60            3.2113    -6.0700     1.5538 H       
  61 H61            4.6049    -2.9641     3.1121 H       
  62 H62            6.3008    -3.3570     2.7377 H       
  63 H63            5.8077    -3.2112     0.3171 H       
  64 H64            5.3839    -1.6899     1.1378 H       
  65 H65            2.9513    -6.7011     5.9148 H       
  66 H66            5.0886    -7.2957     6.9835 H       
  67 H67            7.2192    -6.7699     5.8148 H       
  68 H68            7.1145    -5.6610     3.5923 H       
@<TRIPOS>BOND
   1    1    2 ar
   2    1    6 ar
   3    1   37 1
   4    2    3 ar
   5    2   38 1
   6    3    4 ar
   7    3   39 1
   8    4    5 ar
   9    4    7 ar
  10    5    6 ar
  11    5   10 ar
  12    6   40 1
  13    7    8 ar
  14    7   11 1
  15    8    9 ar
  16    8   41 1
  17    9   10 ar
  18    9   12 1
  19   10   14 1
  20   11   23 1
  21   11   42 1
  22   11   43 1
  23   12   13 am
  24   12   15 2
  25   13   14 1
  26   13   16 1
  27   14   44 1
  28   14   45 1
  29   16   17 1
  30   16   21 1
  31   16   46 1
  32   17   18 1
  33   17   22 1
  34   17   47 1
  35   18   19 1
  36   18   48 1
  37   18   49 1
  38   19   20 1
  39   19   50 1
  40   19   51 1
  41   20   21 1
  42   20   52 1
  43   20   53 1
  44   21   54 1
  45   21   55 1
  46   22   56 1
  47   23   24 1
  48   23   28 1
  49   24   25 1
  50   24   57 1
  51   24   58 1
  52   25   26 1
  53   25   59 1
  54   25   60 1
  55   26   35 1
  56   26   27 1
  57   26   29 1
  58   27   28 1
  59   27   61 1
  60   27   62 1
  61   28   63 1
  62   28   64 1
  63   29   30 ar
  64   29   34 ar
  65   30   31 ar
  66   31   32 ar
  67   31   65 1
  68   32   33 ar
  69   32   66 1
  70   33   34 ar
  71   33   67 1
  72   34   68 1
  73   35   36 3

#	End of record

