#	Name: ASD00844012
#	Creating user name:	WinNT
#	Creation time:	15. 06. 2019 18:48

#	Modifying user name:	WinNT
#	Modification time:	15. 06. 2019 18:48

#	Program:	/corina/corina34_cracker 3.40 0067  02.08.2006

@<TRIPOS>MOLECULE
ASD00844012
 100  105    0    0    0
SMALL
NO_CHARGES


@<TRIPOS>ATOM
   1 F1            -0.0973    -3.1246     4.7250 F       
   2 N2            -0.0159     1.3183     0.0093 N.ar    
   3 C3             0.0021    -0.0041     0.0020 C.ar    
   4 C4             1.2069    -0.6955    -0.0132 C.ar    
   5 C5             2.3925     0.0180    -0.0207 C.ar    
   6 C6             2.3308     1.4049    -0.0127 C.ar    
   7 C7             1.0980     2.0259     0.0025 C.ar    
   8 C8             1.2224    -2.2024    -0.0209 C.3     
   9 C9             0.4764    -2.7341    -1.2259 C.2     
  10 O10            2.5880    -2.6957    -0.0100 O.3     
  11 C11            3.3812    -2.3219    -1.0317 C.2     
  12 N12            4.6598    -2.7450    -1.0818 N.am    
  13 O13            2.9442    -1.6031    -1.9086 O.2     
  14 C14            5.5375    -2.3455    -2.1904 C.3     
  15 C15            6.1419    -3.6050    -2.8192 C.3     
  16 C16            6.8366    -4.4295    -1.7331 C.3     
  17 C17            5.8108    -4.8591    -0.6818 C.3     
  18 C18            5.2043    -3.6094    -0.0259 C.3     
  19 C19            7.4712    -5.6709    -2.3633 C.3     
  20 C20            8.4991    -5.2427    -3.4142 C.3     
  21 C21            9.1737    -6.4864    -3.9973 C.3     
  22 N22            9.8316    -7.2381    -2.9210 N.3     
  23 C23            8.8575    -7.7005    -1.9241 C.3     
  24 C24            8.1735    -6.4930    -1.2791 C.3     
  25 C25           10.6059    -8.3633    -3.4618 C.3     
  26 O26            0.7566    -2.5392    -2.3898 O.2     
  27 N27           -0.5539    -3.4627    -0.7649 N.am    
  28 C28            0.4505    -2.7460     1.1600 C.ar    
  29 C29           -0.5988    -3.4907     0.6311 C.ar    
  30 C30            0.6193    -2.6223     2.5215 C.ar    
  31 C31           -0.2615    -3.2439     3.3894 C.ar    
  32 C32           -1.3224    -3.9967     2.8756 C.ar    
  33 C33           -1.4874    -4.1183     1.4962 C.ar    
  34 C34           -1.0160    -5.8566    -2.0415 C.ar    
  35 C35            0.1627    -6.0201    -2.7551 C.ar    
  36 C36           -1.6940    -6.9615    -1.5626 C.ar    
  37 C37           -1.2001    -8.2311    -1.7925 C.ar    
  38 C38           -0.0215    -8.3999    -2.5058 C.ar    
  39 C39            0.6602    -7.2933    -2.9876 C.ar    
  40 O40            0.4636    -9.6490    -2.7321 O.3     
  41 O41            0.8288    -4.9332    -3.2262 O.3     
  42 C42           -0.2910   -10.7430    -2.2068 C.3     
  43 C43            2.0353    -5.1761    -3.9523 C.3     
  44 C44            2.6388    -3.8431    -4.3992 C.3     
  45 C45           11.4702    -8.9672    -2.3531 C.3     
  46 C46           12.2766   -10.1391    -2.9163 C.3     
  47 S47           -1.6450    -4.2387    -1.7395 S.o2    
  48 O48           -2.8259    -4.4051    -0.9668 O.2     
  49 O49           -1.6221    -3.5598    -2.9876 O.2     
  50 O50           -1.1673    -0.6919     0.0099 O.3     
  51 C51           -2.3720     0.0766     0.0260 C.3     
  52 C52           -3.5777    -0.8652     0.0330 C.3     
  53 F53           -3.5507    -1.6659    -1.1140 F       
  54 F54           -3.5280    -1.6782     1.1704 F       
  55 C55           -2.2386    -4.6434     3.7661 C.1     
  56 N56           -2.9655    -5.1564     4.4724 N.1     
  57 H57            3.3442    -0.4925    -0.0322 H       
  58 H58            3.2375     1.9916    -0.0178 H       
  59 H59            1.0444     3.1046     0.0084 H       
  60 H60            4.9579    -1.8054    -2.9390 H       
  61 H61            6.3358    -1.7067    -1.8124 H       
  62 H62            5.3505    -4.1989    -3.2765 H       
  63 H63            6.8686    -3.3191    -3.5797 H       
  64 H64            7.6114    -3.8267    -1.2594 H       
  65 H65            5.0225    -5.4412    -1.1593 H       
  66 H66            6.3018    -5.4659     0.0789 H       
  67 H67            5.9769    -3.0761     0.5281 H       
  68 H68            4.4035    -3.9046     0.6521 H       
  69 H69            6.6972    -6.2755    -2.8360 H       
  70 H70            7.9977    -4.6933    -4.2110 H       
  71 H71            9.2510    -4.6051    -2.9492 H       
  72 H72            8.4232    -7.1168    -4.4743 H       
  73 H73            9.9164    -6.1843    -4.7357 H       
  74 H74            8.1085    -8.3251    -2.4107 H       
  75 H75            9.3706    -8.2801    -1.1566 H       
  76 H76            8.9203    -5.8751    -0.7804 H       
  77 H77            7.4394    -6.8368    -0.5504 H       
  78 H78            9.9242    -9.1224    -3.8453 H       
  79 H79           11.2464    -8.0087    -4.2693 H       
  80 H80            1.4404    -2.0397     2.9122 H       
  81 H81           -2.3067    -4.6997     1.0998 H       
  82 H82           -2.6113    -6.8323    -1.0074 H       
  83 H83           -1.7314    -9.0930    -1.4166 H       
  84 H84            1.5773    -7.4225    -3.5432 H       
  85 H85            0.2054   -11.6804    -2.4577 H       
  86 H86           -0.3621   -10.6482    -1.1233 H       
  87 H87           -1.2917   -10.7347    -2.6388 H       
  88 H88            2.7453    -5.7001    -3.3124 H       
  89 H89            1.8157    -5.7872    -4.8278 H       
  90 H90            3.5591    -4.0284    -4.9531 H       
  91 H91            1.9289    -3.3192    -5.0391 H       
  92 H92            2.8584    -3.2320    -3.5237 H       
  93 H93           12.1519    -8.2081    -1.9696 H       
  94 H94           10.8297    -9.3217    -1.5455 H       
  95 H95           12.8924   -10.5693    -2.1265 H       
  96 H96           11.5949   -10.8982    -3.2998 H       
  97 H97           12.9171    -9.7846    -3.7239 H       
  98 H98           -2.3931     0.7004     0.9196 H       
  99 H99           -2.4108     0.7099    -0.8602 H       
 100 H100          -4.4966    -0.2790     0.0452 H       
@<TRIPOS>BOND
   1    1   31 1
   2    2    3 ar
   3    2    7 ar
   4    3    4 ar
   5    3   50 1
   6    4    5 ar
   7    4    8 1
   8    5    6 ar
   9    5   57 1
  10    6    7 ar
  11    6   58 1
  12    7   59 1
  13    8    9 1
  14    8   10 1
  15    8   28 1
  16    9   26 2
  17    9   27 am
  18   10   11 1
  19   11   12 am
  20   11   13 2
  21   12   14 1
  22   12   18 1
  23   14   15 1
  24   14   60 1
  25   14   61 1
  26   15   16 1
  27   15   62 1
  28   15   63 1
  29   16   17 1
  30   16   19 1
  31   16   64 1
  32   17   18 1
  33   17   65 1
  34   17   66 1
  35   18   67 1
  36   18   68 1
  37   19   20 1
  38   19   24 1
  39   19   69 1
  40   20   21 1
  41   20   70 1
  42   20   71 1
  43   21   22 1
  44   21   72 1
  45   21   73 1
  46   22   23 1
  47   22   25 1
  48   23   24 1
  49   23   74 1
  50   23   75 1
  51   24   76 1
  52   24   77 1
  53   25   45 1
  54   25   78 1
  55   25   79 1
  56   27   47 am
  57   27   29 1
  58   28   29 ar
  59   28   30 ar
  60   29   33 ar
  61   30   31 ar
  62   30   80 1
  63   31   32 ar
  64   32   33 ar
  65   32   55 1
  66   33   81 1
  67   34   35 ar
  68   34   36 ar
  69   34   47 1
  70   35   41 1
  71   35   39 ar
  72   36   37 ar
  73   36   82 1
  74   37   38 ar
  75   37   83 1
  76   38   39 ar
  77   38   40 1
  78   39   84 1
  79   40   42 1
  80   41   43 1
  81   42   85 1
  82   42   86 1
  83   42   87 1
  84   43   44 1
  85   43   88 1
  86   43   89 1
  87   44   90 1
  88   44   91 1
  89   44   92 1
  90   45   46 1
  91   45   93 1
  92   45   94 1
  93   46   95 1
  94   46   96 1
  95   46   97 1
  96   47   48 2
  97   47   49 2
  98   50   51 1
  99   51   52 1
 100   51   98 1
 101   51   99 1
 102   52   53 1
 103   52   54 1
 104   52  100 1
 105   55   56 3

#	End of record

