#	Name: ASD03092845
#	Creating user name:	WinNT
#	Creation time:	15. 06. 2019 20:33

#	Modifying user name:	WinNT
#	Modification time:	15. 06. 2019 20:33

#	Program:	/corina/corina34_cracker 3.40 0067  02.08.2006

@<TRIPOS>MOLECULE
ASD03092845
  47   50    0    0    0
SMALL
NO_CHARGES


@<TRIPOS>ATOM
   1 N1             0.0497     1.5621     1.2088 N.am    
   2 S2             0.1063     0.3141     0.1218 S.o2    
   3 O3            -0.6665    -0.7396     0.6801 O.2     
   4 O4            -0.1589     0.8808    -1.1540 O.2     
   5 C5             1.7711    -0.2612     0.0744 C.ar    
   6 C6             2.0698    -1.5415     0.5042 C.ar    
   7 C7             3.3709    -1.9988     0.4700 C.ar    
   8 C8             4.3891    -1.1664    -0.0000 C.ar    
   9 C9             4.0827     0.1256    -0.4330 C.ar    
  10 C10            2.7750     0.5694    -0.3989 C.ar    
  11 F11            2.4747     1.8166    -0.8226 F       
  12 C12            5.7833    -1.6499    -0.0386 C.2     
  13 S13            6.6402    -2.4517     1.2764 S.3     
  14 C14            8.0749    -2.5827     0.2643 C.2     
  15 N15            7.8393    -2.0581    -0.9040 N.2     
  16 C16            6.6455    -1.5596    -1.1131 C.2     
  17 C17            6.2530    -0.9419    -2.4019 C.ar    
  18 C18            5.0015    -1.2115    -2.9544 C.ar    
  19 C19            4.6411    -0.6338    -4.1545 C.ar    
  20 C20            5.5197     0.2118    -4.8101 C.ar    
  21 Cl21           5.0602     0.9349    -6.3199 Cl      
  22 C22            6.7634     0.4832    -4.2655 C.ar    
  23 C23            7.1316    -0.0846    -3.0632 C.ar    
  24 C24            9.3494    -3.1927     0.6771 C.2     
  25 O25            9.4679    -3.6559     1.7955 O.2     
  26 N26           10.3850    -3.2380    -0.1842 N.am    
  27 C27           10.3811    -2.7112    -1.5611 C.3     
  28 C28           11.8705    -2.4335    -1.8838 C.3     
  29 C29           12.5705    -3.6192    -1.1686 C.3     
  30 C30           11.7078    -3.8154     0.0958 C.3     
  31 H31            0.8552     1.8367     1.6743 H       
  32 H32           -0.7881     2.0212     1.3769 H       
  33 H33            1.2822    -2.1848     0.8679 H       
  34 H34            3.6018    -2.9987     0.8064 H       
  35 H35            4.8654     0.7744    -0.7975 H       
  36 H36            4.3157    -1.8715    -2.4442 H       
  37 H37            3.6720    -0.8419    -4.5834 H       
  38 H38            7.4451     1.1436    -4.7810 H       
  39 H39            8.1002     0.1313    -2.6370 H       
  40 H40            9.9756    -3.4524    -2.2498 H       
  41 H41            9.8033    -1.7883    -1.6125 H       
  42 H42           12.0499    -2.4646    -2.9584 H       
  43 H43           12.1902    -1.4800    -1.4633 H       
  44 H44           12.5528    -4.5116    -1.7942 H       
  45 H45           13.5932    -3.3569    -0.8980 H       
  46 H46           12.1648    -3.3021     0.9419 H       
  47 H47           11.6096    -4.8788     0.3138 H       
@<TRIPOS>BOND
   1    1    2 am
   2    1   31 1
   3    1   32 1
   4    2    3 2
   5    2    4 2
   6    2    5 1
   7    5   10 ar
   8    5    6 ar
   9    6    7 ar
  10    6   33 1
  11    7    8 ar
  12    7   34 1
  13    8    9 ar
  14    8   12 1
  15    9   10 ar
  16    9   35 1
  17   10   11 1
  18   12   16 2
  19   12   13 1
  20   13   14 1
  21   14   15 2
  22   14   24 1
  23   15   16 1
  24   16   17 1
  25   17   23 ar
  26   17   18 ar
  27   18   19 ar
  28   18   36 1
  29   19   20 ar
  30   19   37 1
  31   20   21 1
  32   20   22 ar
  33   22   23 ar
  34   22   38 1
  35   23   39 1
  36   24   25 2
  37   24   26 am
  38   26   30 1
  39   26   27 1
  40   27   28 1
  41   27   40 1
  42   27   41 1
  43   28   29 1
  44   28   42 1
  45   28   43 1
  46   29   30 1
  47   29   44 1
  48   29   45 1
  49   30   46 1
  50   30   47 1

#	End of record

