#	Name: ASD01912712
#	Creating user name:	WinNT
#	Creation time:	15. 06. 2019 20:00

#	Modifying user name:	WinNT
#	Modification time:	15. 06. 2019 20:00

#	Program:	/corina/corina34_cracker 3.40 0067  02.08.2006

@<TRIPOS>MOLECULE
ASD01912712
  41   44    0    0    0
SMALL
NO_CHARGES


@<TRIPOS>ATOM
   1 C1            -0.0165     1.3669     0.0096 C.2     
   2 N2             0.0021    -0.0041     0.0020 N.pl3   
   3 C3            -1.2022    -0.6920     0.0098 C.2     
   4 C4            -2.3629    -0.0497     0.0243 C.2     
   5 N5            -2.4358     1.3308     0.0325 N.am    
   6 C6            -1.3019     2.0668     0.0309 C.2     
   7 C7             1.3015     1.7836    -0.0008 C.2     
   8 C8             2.0550     0.6110    -0.0143 C.2     
   9 N9             1.2243    -0.4045    -0.0118 N.2     
  10 O10           -1.3489     3.2837     0.0380 O.2     
  11 C11           -3.6803     1.9647     0.0478 C.ar    
  12 C12            3.5595     0.5249    -0.0295 C.3     
  13 O13            4.1120     1.8428    -0.0282 O.3     
  14 C14            5.4673     1.9436    -0.0410 C.ar    
  15 C15            6.0711     3.1925    -0.0405 C.ar    
  16 C16            7.4489     3.2923    -0.0536 C.ar    
  17 C17            8.2259     2.1487    -0.0672 C.ar    
  18 C18            7.6265     0.9028    -0.0682 C.ar    
  19 C19            6.2492     0.7976    -0.0489 C.ar    
  20 C20           -4.8478     1.2103     0.1601 C.ar    
  21 C21           -6.0577     1.8840     0.1713 C.ar    
  22 N22           -4.8762     3.9065    -0.0280 N.ar    
  23 N23           -3.7543     3.2830    -0.0387 N.ar    
  24 C24           -6.0332     3.2734     0.0697 C.ar    
  25 O25           -7.1946     3.9762     0.0760 O.3     
  26 C26           -7.0933     5.3976    -0.0317 C.3     
  27 H27           -1.1950    -1.7720     0.0036 H       
  28 H28           -3.2785    -0.6226     0.0296 H       
  29 H29            1.6685     2.7994     0.0006 H       
  30 H30            3.9016    -0.0134     0.8543 H       
  31 H31            3.8840    -0.0042    -0.9255 H       
  32 H32            5.4646     4.0861    -0.0302 H       
  33 H33            7.9195     4.2644    -0.0536 H       
  34 H34            9.3029     2.2288    -0.0775 H       
  35 H35            8.2356     0.0110    -0.0796 H       
  36 H36            5.7814    -0.1758    -0.0497 H       
  37 H37           -4.8096     0.1336     0.2356 H       
  38 H38           -6.9918     1.3486     0.2558 H       
  39 H39           -8.0914     5.8353    -0.0143 H       
  40 H40           -6.5121     5.7848     0.8052 H       
  41 H41           -6.5992     5.6567    -0.9681 H       
@<TRIPOS>BOND
   1    1    2 1
   2    1    7 2
   3    1    6 1
   4    2    3 1
   5    2    9 1
   6    3    4 2
   7    3   27 1
   8    4    5 1
   9    4   28 1
  10    5    6 am
  11    5   11 1
  12    6   10 2
  13    7    8 1
  14    7   29 1
  15    8    9 2
  16    8   12 1
  17   11   20 ar
  18   11   23 ar
  19   12   13 1
  20   12   30 1
  21   12   31 1
  22   13   14 1
  23   14   15 ar
  24   14   19 ar
  25   15   16 ar
  26   15   32 1
  27   16   17 ar
  28   16   33 1
  29   17   18 ar
  30   17   34 1
  31   18   19 ar
  32   18   35 1
  33   19   36 1
  34   20   21 ar
  35   20   37 1
  36   21   24 ar
  37   21   38 1
  38   22   23 ar
  39   22   24 ar
  40   24   25 1
  41   25   26 1
  42   26   39 1
  43   26   40 1
  44   26   41 1

#	End of record

