#	Name: ASD03092058
#	Creating user name:	WinNT
#	Creation time:	15. 06. 2019 20:31

#	Modifying user name:	WinNT
#	Modification time:	15. 06. 2019 20:31

#	Program:	/corina/corina34_cracker 3.40 0067  02.08.2006

@<TRIPOS>MOLECULE
ASD03092058
  51   54    0    0    0
SMALL
NO_CHARGES


@<TRIPOS>ATOM
   1 N1             0.1290     1.3375     0.0446 N.am    
   2 C2            -0.0100    -0.0251    -0.0087 C.2     
   3 C3            -1.3453    -0.2965    -0.0523 C.2     
   4 C4            -2.0336     0.9270    -0.0250 C.2     
   5 N5            -1.1543     1.8988     0.0384 N.2     
   6 N6            -3.4220     1.0833    -0.0550 N.pl3   
   7 C7            -3.9856     2.3526     0.0961 C.ar    
   8 C8            -5.2407     2.6240    -0.4340 C.ar    
   9 C9            -5.7979     3.8806    -0.2846 C.ar    
  10 C10           -5.1075     4.8694     0.3923 C.ar    
  11 C11           -3.2943     3.3430     0.7813 C.ar    
  12 C12            1.0863    -1.0176    -0.0178 C.ar    
  13 C13            1.2923     2.0158     0.0992 C.2     
  14 C14            0.9629    -2.2318     0.6673 C.ar    
  15 C15            2.0101    -3.1290     0.6317 C.ar    
  16 N16            3.1150    -2.8546    -0.0350 N.ar    
  17 C17            3.2724    -1.7223    -0.6940 C.ar    
  18 C18            2.2740    -0.7713    -0.7166 C.ar    
  19 C19            4.5588    -1.4671    -1.4365 C.3     
  20 N20            1.2913     3.3620     0.0334 N.am    
  21 O21            2.3422     1.4136     0.2078 O.2     
  22 C22            2.5558     4.0992     0.0927 C.3     
  23 C23            2.2759     5.6004    -0.0018 C.3     
  24 C24           -3.8532     4.6031     0.9236 C.ar    
  25 Cl25          -7.3662     4.2177    -0.9482 Cl      
  26 C26            3.4630     6.5520     0.1600 C.3     
  27 C27            2.8289     6.3471    -1.2173 C.3     
  28 O28           -3.1759     5.5760     1.5881 O.3     
  29 C29           -3.8148     6.8491     1.7021 C.3     
  30 H30           -1.7938    -1.2778    -0.0999 H       
  31 H31           -3.9945     0.3103    -0.1808 H       
  32 H32           -5.7813     1.8532    -0.9632 H       
  33 H33           -5.5447     5.8503     0.5073 H       
  34 H34           -2.3203     3.1332     1.1981 H       
  35 H35            0.0616    -2.4626     1.2157 H       
  36 H36            1.9245    -4.0686     1.1572 H       
  37 H37            2.4097     0.1533    -1.2581 H       
  38 H38            4.4693    -1.8397    -2.4569 H       
  39 H39            4.7601    -0.3961    -1.4572 H       
  40 H40            5.3773    -1.9810    -0.9325 H       
  41 H41            0.4532     3.8426    -0.0533 H       
  42 H42            3.0592     3.8821     1.0348 H       
  43 H43            3.1928     3.7955    -0.7380 H       
  44 H44            1.3133     5.9249     0.3935 H       
  45 H45            3.2813     7.5027     0.6613 H       
  46 H46            4.4434     6.1086     0.3337 H       
  47 H47            3.3923     5.7689    -1.9497 H       
  48 H48            2.2301     7.1630    -1.6221 H       
  49 H49           -4.0036     7.2513     0.7067 H       
  50 H50           -4.7599     6.7352     2.2331 H       
  51 H51           -3.1684     7.5320     2.2532 H       
@<TRIPOS>BOND
   1    1    2 1
   2    1   13 am
   3    1    5 1
   4    2    3 2
   5    2   12 1
   6    3    4 1
   7    3   30 1
   8    4    5 2
   9    4    6 1
  10    6    7 1
  11    6   31 1
  12    7    8 ar
  13    7   11 ar
  14    8    9 ar
  15    8   32 1
  16    9   10 ar
  17    9   25 1
  18   10   24 ar
  19   10   33 1
  20   11   24 ar
  21   11   34 1
  22   12   14 ar
  23   12   18 ar
  24   13   20 am
  25   13   21 2
  26   14   15 ar
  27   14   35 1
  28   15   16 ar
  29   15   36 1
  30   16   17 ar
  31   17   18 ar
  32   17   19 1
  33   18   37 1
  34   19   38 1
  35   19   39 1
  36   19   40 1
  37   20   22 1
  38   20   41 1
  39   22   23 1
  40   22   42 1
  41   22   43 1
  42   23   26 1
  43   23   27 1
  44   23   44 1
  45   24   28 1
  46   26   27 1
  47   26   45 1
  48   26   46 1
  49   27   47 1
  50   27   48 1
  51   28   29 1
  52   29   49 1
  53   29   50 1
  54   29   51 1

#	End of record

