#	Name: ASD03430194
#	Creating user name:	WinNT
#	Creation time:	15. 06. 2019 20:40

#	Modifying user name:	WinNT
#	Modification time:	15. 06. 2019 20:40

#	Program:	/corina/corina34_cracker 3.40 0067  02.08.2006

@<TRIPOS>MOLECULE
ASD03430194
  51   56    0    0    0
SMALL
NO_CHARGES


@<TRIPOS>ATOM
   1 C1            -0.0168     1.3851     0.0097 C.ar    
   2 C2            -1.2118     2.0709     0.0298 C.ar    
   3 C3            -2.4048     1.3805     0.0486 C.ar    
   4 C4            -2.4124    -0.0125     0.0580 C.ar    
   5 C5            -1.2033    -0.6962     0.0295 C.ar    
   6 C6             0.0021    -0.0041     0.0020 C.ar    
   7 O7            -3.6859    -0.4970     0.1086 O.3     
   8 C8            -3.8442     1.8185     0.0491 C.3     
   9 C9            -4.6034     0.5327    -0.3071 C.3     
  10 C10           -4.7311     3.6627     1.1138 C.ar    
  11 C11           -4.2743     2.3729     1.3747 C.ar    
  12 C12           -4.1066     2.9138    -0.9444 C.2     
  13 N13           -4.6202     3.9479    -0.2491 N.am    
  14 O14           -3.8973     2.8753    -2.1384 O.2     
  15 C15           -4.2888     1.8707     2.6564 C.ar    
  16 C16           -4.7595     2.6479     3.7002 C.ar    
  17 C17           -5.2151     3.9297     3.4529 C.ar    
  18 C18           -5.2028     4.4375     2.1701 C.ar    
  19 C19           -5.0170     5.2225    -0.8527 C.3     
  20 C20            1.4261     1.8506    -0.0016 C.3     
  21 C21            2.1822     0.5568     0.3829 C.3     
  22 O22            1.2785    -0.4778    -0.0408 O.3     
  23 C23           -3.8435     6.1680    -0.8467 C.ar    
  24 C24           -2.9738     6.1932    -1.9224 C.ar    
  25 C25           -1.8976     7.0564    -1.9232 C.ar    
  26 C26           -1.6875     7.9059    -0.8358 C.ar    
  27 C27           -2.5690     7.8757     0.2460 C.ar    
  28 C28           -3.6440     7.0112     0.2320 C.ar    
  29 C29           -0.5361     8.8332    -0.8297 C.2     
  30 N30           -0.3359     9.6521     0.2218 N.am    
  31 O31            0.2302     8.8569    -1.7731 O.2     
  32 H32           -1.2138     3.1509     0.0312 H       
  33 H33           -1.1998    -1.7762     0.0291 H       
  34 H34           -4.7878     0.4767    -1.3799 H       
  35 H35           -5.5373     0.4673     0.2512 H       
  36 H36           -3.9328     0.8691     2.8474 H       
  37 H37           -4.7714     2.2539     4.7058 H       
  38 H38           -5.5825     4.5361     4.2676 H       
  39 H39           -5.5601     5.4397     1.9846 H       
  40 H40           -5.3416     5.0528    -1.8793 H       
  41 H41           -5.8362     5.6565    -0.2796 H       
  42 H42            1.7177     2.1916    -0.9950 H       
  43 H43            1.5891     2.6322     0.7404 H       
  44 H44            3.1277     0.4878    -0.1550 H       
  45 H45            2.3450     0.5102     1.4597 H       
  46 H46           -3.1375     5.5354    -2.7632 H       
  47 H47           -1.2191     7.0746    -2.7632 H       
  48 H48           -2.4120     8.5305     1.0904 H       
  49 H49           -4.3267     6.9868     1.0684 H       
  50 H50           -0.9474     9.6332     0.9746 H       
  51 H51            0.4195    10.2605     0.2258 H       
@<TRIPOS>BOND
   1    1    6 ar
   2    1   20 1
   3    1    2 ar
   4    2    3 ar
   5    2   32 1
   6    3    4 ar
   7    3    8 1
   8    4    5 ar
   9    4    7 1
  10    5    6 ar
  11    5   33 1
  12    6   22 1
  13    7    9 1
  14    8    9 1
  15    8   11 1
  16    8   12 1
  17    9   34 1
  18    9   35 1
  19   10   11 ar
  20   10   13 1
  21   10   18 ar
  22   11   15 ar
  23   12   13 am
  24   12   14 2
  25   13   19 1
  26   15   16 ar
  27   15   36 1
  28   16   17 ar
  29   16   37 1
  30   17   18 ar
  31   17   38 1
  32   18   39 1
  33   19   23 1
  34   19   40 1
  35   19   41 1
  36   20   21 1
  37   20   42 1
  38   20   43 1
  39   21   22 1
  40   21   44 1
  41   21   45 1
  42   23   24 ar
  43   23   28 ar
  44   24   25 ar
  45   24   46 1
  46   25   26 ar
  47   25   47 1
  48   26   27 ar
  49   26   29 1
  50   27   28 ar
  51   27   48 1
  52   28   49 1
  53   29   30 am
  54   29   31 2
  55   30   50 1
  56   30   51 1

#	End of record

