#	Name: ASD00431045
#	Creating user name:	WinNT
#	Creation time:	15. 06. 2019 18:35

#	Modifying user name:	WinNT
#	Modification time:	15. 06. 2019 18:35

#	Program:	/corina/corina34_cracker 3.40 0067  02.08.2006

@<TRIPOS>MOLECULE
ASD00431045
  85   89    0    0    0
SMALL
NO_CHARGES


@<TRIPOS>ATOM
   1 C1             1.0451     0.0323     0.8680 C.2     
   2 C2             0.7193    -1.4489     0.7252 C.3     
   3 C3            -0.6723    -1.5238     1.3862 C.3     
   4 C4            -1.1701    -0.0931     1.3031 C.2     
   5 N5            -0.1724     0.6989     0.8648 N.am    
   6 C6            -1.5927    -2.4627     0.6037 C.3     
   7 O7            -2.2893     0.2788     1.5864 O.2     
   8 C8            -2.8983    -2.6157     1.3406 C.2     
   9 N9            -3.8693    -3.4019     0.8352 N.am    
  10 O10           -3.0752    -2.0313     2.3885 O.2     
  11 C11           -0.3500     2.0892     0.4387 C.3     
  12 C12           -0.1746     3.0040     1.6233 C.ar    
  13 C13            1.0777     3.5013     1.9326 C.ar    
  14 C14           -1.2671     3.3498     2.3967 C.ar    
  15 C15           -1.1076     4.1893     3.4828 C.ar    
  16 C16            0.1470     4.6838     3.7966 C.ar    
  17 C17            1.2397     4.3406     3.0184 C.ar    
  18 C18            2.2508     0.5203     1.0294 C.2     
  19 C19            3.4548    -0.3722     1.1401 C.3     
  20 N20            3.0828    -1.7845     1.1164 N.am    
  21 C21            1.7590    -2.2201     1.5453 C.3     
  22 C22            3.9726    -2.7001     0.6847 C.2     
  23 O23            3.6709    -3.8769     0.6619 O.2     
  24 O24            5.1959    -2.3107     0.2787 O.3     
  25 C25            6.1024    -3.3510    -0.1734 C.3     
  26 C26           -5.1475    -3.5605     1.5429 C.3     
  27 C27           -3.6712    -4.1111    -0.4367 C.3     
  28 C28           -4.8137    -3.7376    -1.3892 C.3     
  29 N29           -6.0898    -3.9007    -0.6787 N.am    
  30 C30           -6.2869    -3.1881     0.5862 C.3     
  31 C31           -7.0611    -4.6861    -1.1846 C.2     
  32 O32           -8.0630    -4.9118    -0.5316 O.2     
  33 C33           -6.9108    -5.2689    -2.5220 C.2     
  34 C34           -7.7408    -6.1900    -3.0938 C.2     
  35 C35           -7.2226    -6.4634    -4.3693 C.2     
  36 C36           -6.1129    -5.7069    -4.5182 C.2     
  37 O37           -5.9313    -4.9845    -3.4051 O.3     
  38 F38            0.3041     5.5046     4.8581 F       
  39 C39            5.4857    -4.0811    -1.3682 C.3     
  40 C40            7.4328    -2.7217    -0.5916 C.3     
  41 C41            0.6909    -1.8930    -0.7147 C.2     
  42 O42            0.7411    -1.0731    -1.6008 O.2     
  43 O43            0.6100    -3.1992    -1.0126 O.3     
  44 C44            0.4932    -5.0746    -2.5617 C.3     
  45 C45            0.5872    -3.5541    -2.4204 C.3     
  46 C46            6.3440    -4.3463     0.9632 C.3     
  47 H47           -0.5885    -1.8426     2.4251 H       
  48 H48           -1.7807    -2.0458    -0.3858 H       
  49 H49           -1.1161    -3.4377     0.5026 H       
  50 H50            0.3915     2.3336    -0.3220 H       
  51 H51           -1.3504     2.2176     0.0254 H       
  52 H52            1.9298     3.2335     1.3255 H       
  53 H53           -2.2456     2.9639     2.1517 H       
  54 H54           -1.9614     4.4599     4.0864 H       
  55 H55            2.2188     4.7255     3.2624 H       
  56 H56            2.3825     1.5909     1.0839 H       
  57 H57            4.1271    -0.1674     0.3070 H       
  58 H58            3.9727    -0.1564     2.0746 H       
  59 H59            1.6181    -1.9925     2.6019 H       
  60 H60            1.6491    -3.2916     1.3782 H       
  61 H61           -5.2623    -4.5960     1.8631 H       
  62 H62           -5.1690    -2.9020     2.4112 H       
  63 H63           -2.7179    -3.8162    -0.8754 H       
  64 H64           -3.6785    -5.1868    -0.2607 H       
  65 H65           -4.7014    -2.7009    -1.7064 H       
  66 H66           -4.7933    -4.3933    -2.2597 H       
  67 H67           -7.2394    -3.4822     1.0271 H       
  68 H68           -6.2810    -2.1133     0.4053 H       
  69 H69           -8.6247    -6.6243    -2.6505 H       
  70 H70           -7.6334    -7.1495    -5.0951 H       
  71 H71           -5.4789    -5.6855    -5.3923 H       
  72 H72            5.3137    -3.3720    -2.1779 H       
  73 H73            6.1663    -4.8620    -1.7076 H       
  74 H74            4.5379    -4.5294    -1.0703 H       
  75 H75            7.8722    -2.2015     0.2596 H       
  76 H76            8.1134    -3.5025    -0.9309 H       
  77 H77            7.2608    -2.0126    -1.4013 H       
  78 H78           -0.4201    -5.4282    -2.0831 H       
  79 H79            0.4761    -5.3410    -3.6185 H       
  80 H80            1.3565    -5.5380    -2.0842 H       
  81 H81           -0.2761    -3.0907    -2.8980 H       
  82 H82            1.5005    -3.2005    -2.8991 H       
  83 H83            5.3962    -4.7946     1.2611 H       
  84 H84            7.0245    -5.1272     0.6239 H       
  85 H85            6.7833    -3.8262     1.8144 H       
@<TRIPOS>BOND
   1    1    2 1
   2    1   18 2
   3    1    5 1
   4    2   41 1
   5    2    3 1
   6    2   21 1
   7    3    4 1
   8    3    6 1
   9    3   47 1
  10    4    5 am
  11    4    7 2
  12    5   11 1
  13    6    8 1
  14    6   48 1
  15    6   49 1
  16    8    9 am
  17    8   10 2
  18    9   26 1
  19    9   27 1
  20   11   12 1
  21   11   50 1
  22   11   51 1
  23   12   13 ar
  24   12   14 ar
  25   13   17 ar
  26   13   52 1
  27   14   15 ar
  28   14   53 1
  29   15   16 ar
  30   15   54 1
  31   16   17 ar
  32   16   38 1
  33   17   55 1
  34   18   19 1
  35   18   56 1
  36   19   20 1
  37   19   57 1
  38   19   58 1
  39   20   21 1
  40   20   22 am
  41   21   59 1
  42   21   60 1
  43   22   23 2
  44   22   24 1
  45   24   25 1
  46   25   39 1
  47   25   40 1
  48   25   46 1
  49   26   30 1
  50   26   61 1
  51   26   62 1
  52   27   28 1
  53   27   63 1
  54   27   64 1
  55   28   29 1
  56   28   65 1
  57   28   66 1
  58   29   30 1
  59   29   31 am
  60   30   67 1
  61   30   68 1
  62   31   32 2
  63   31   33 1
  64   33   34 2
  65   33   37 1
  66   34   35 1
  67   34   69 1
  68   35   36 2
  69   35   70 1
  70   36   37 1
  71   36   71 1
  72   39   72 1
  73   39   73 1
  74   39   74 1
  75   40   75 1
  76   40   76 1
  77   40   77 1
  78   41   42 2
  79   41   43 1
  80   43   45 1
  81   44   45 1
  82   44   78 1
  83   44   79 1
  84   44   80 1
  85   45   81 1
  86   45   82 1
  87   46   83 1
  88   46   84 1
  89   46   85 1

#	End of record

