#	Name: ASD08151011
#	Creating user name:	WinNT
#	Creation time:	15. 06. 2019 21:16

#	Modifying user name:	WinNT
#	Modification time:	15. 06. 2019 21:16

#	Program:	/corina/corina34_cracker 3.40 0067  02.08.2006

@<TRIPOS>MOLECULE
ASD08151011
  35   37    0    0    0
SMALL
NO_CHARGES


@<TRIPOS>ATOM
   1 N1            -0.5956     1.7992    -0.8517 N.ar    
   2 C2            -0.7655     0.5190    -1.0803 C.ar    
   3 C3             0.2832    -0.3906    -0.9661 C.ar    
   4 C4             1.5270     0.0453    -0.6075 C.ar    
   5 C5             1.7043     1.4207    -0.3631 C.ar    
   6 C6             2.9548     1.9396     0.0093 C.ar    
   7 C7             3.0974     3.2750     0.2401 C.ar    
   8 C8             2.0191     4.1432     0.1130 C.ar    
   9 C9             0.7705     3.6722    -0.2518 C.ar    
  10 C10            0.5942     2.2893    -0.4980 C.ar    
  11 C11           -0.3717     4.6066    -0.3832 C.ar    
  12 C12           -0.3927     5.5450    -1.4143 C.ar    
  13 C13           -1.4609     6.4142    -1.5330 C.ar    
  14 C14           -2.5092     6.3543    -0.6294 C.ar    
  15 C15           -2.4928     5.4241     0.3969 C.ar    
  16 C16           -1.4320     4.5465     0.5203 C.ar    
  17 F17           -3.5176     5.3712     1.2755 F       
  18 F18           -1.4824     7.3239    -2.5316 F       
  19 C19            2.2125     5.6143     0.3763 C.3     
  20 C20            1.8570     5.9230     1.8320 C.3     
  21 N21            3.6105     5.9753     0.1280 N.2     
  22 N22            3.9328     7.0503     0.1895 N.1     
  23 N23            4.2552     8.1253     0.2510 N.pl3   
  24 H24           -1.7440     0.1607    -1.3642 H       
  25 H25            0.1129    -1.4392    -1.1604 H       
  26 H26            2.3516    -0.6458    -0.5138 H       
  27 H27            3.8037     1.2802     0.1133 H       
  28 H28            4.0630     3.6649     0.5264 H       
  29 H29            0.4244     5.5929    -2.1188 H       
  30 H30           -3.3419     7.0354    -0.7253 H       
  31 H31           -1.4224     3.8184     1.3179 H       
  32 H32            1.5656     6.1900    -0.2856 H       
  33 H33            2.5611     5.4176     2.4930 H       
  34 H34            1.9102     6.9989     1.9988 H       
  35 H35            0.8463     5.5724     2.0414 H       
@<TRIPOS>BOND
   1    1    2 ar
   2    1   10 ar
   3    2    3 ar
   4    2   24 1
   5    3    4 ar
   6    3   25 1
   7    4    5 ar
   8    4   26 1
   9    5    6 ar
  10    5   10 ar
  11    6    7 ar
  12    6   27 1
  13    7    8 ar
  14    7   28 1
  15    8    9 ar
  16    8   19 1
  17    9   10 ar
  18    9   11 1
  19   11   12 ar
  20   11   16 ar
  21   12   13 ar
  22   12   29 1
  23   13   14 ar
  24   13   18 1
  25   14   15 ar
  26   14   30 1
  27   15   16 ar
  28   15   17 1
  29   16   31 1
  30   19   20 1
  31   19   21 1
  32   19   32 1
  33   20   33 1
  34   20   34 1
  35   20   35 1
  36   21   22 2
  37   22   23 2

#	End of record

