#	Name: ASD07300988
#	Creating user name:	WinNT
#	Creation time:	15. 06. 2019 21:10

#	Modifying user name:	WinNT
#	Modification time:	15. 06. 2019 21:10

#	Program:	/corina/corina34_cracker 3.40 0067  02.08.2006

@<TRIPOS>MOLECULE
ASD07300988
  28   29    0    0    0
SMALL
NO_CHARGES


@<TRIPOS>ATOM
   1 C1            -0.0163     1.4132     0.0539 C.2     
   2 C2             0.0021    -0.0041     0.0028 C.2     
   3 C3             1.2634    -0.6449    -0.0579 C.2     
   4 C4             2.3712     0.1384    -0.0632 C.2     
   5 N5             2.2478     1.4863    -0.0110 N.pl3   
   6 N6             1.1084     2.0726     0.0437 N.2     
   7 O7            -1.0357    -0.6505     0.0112 O.2     
   8 C8             3.4077     2.2688    -0.0174 C.ar    
   9 C9             3.3140     3.6516    -0.1134 C.ar    
  10 C10            4.4605     4.4210    -0.1195 C.ar    
  11 C11            5.7014     3.8164    -0.0306 C.ar    
  12 C12            5.7982     2.4404     0.0646 C.ar    
  13 C13            4.6550     1.6654     0.0779 C.ar    
  14 C14            4.3599     5.9210    -0.2236 C.3     
  15 F15            4.2768     6.4730     1.0592 F       
  16 F16            5.4935     6.4205    -0.8737 F       
  17 F17            3.2158     6.2621    -0.9530 F       
  18 C18           -1.3281     2.1527     0.1134 C.3     
  19 O19           -1.0803     3.5594     0.1574 O.3     
  20 H20            1.3409    -1.7214    -0.0983 H       
  21 H21            3.3513    -0.3128    -0.1087 H       
  22 H22            2.3454     4.1243    -0.1835 H       
  23 H23            6.5966     4.4205    -0.0360 H       
  24 H24            6.7686     1.9714     0.1335 H       
  25 H25            4.7311     0.5910     0.1576 H       
  26 H26           -1.9193     1.9154    -0.7711 H       
  27 H27           -1.8745     1.8518     1.0072 H       
  28 H28           -1.8819     4.0988     0.1969 H       
@<TRIPOS>BOND
   1    1    2 1
   2    1    6 2
   3    1   18 1
   4    2    3 1
   5    2    7 2
   6    3    4 2
   7    3   20 1
   8    4    5 1
   9    4   21 1
  10    5    6 1
  11    5    8 1
  12    8    9 ar
  13    8   13 ar
  14    9   10 ar
  15    9   22 1
  16   10   11 ar
  17   10   14 1
  18   11   12 ar
  19   11   23 1
  20   12   13 ar
  21   12   24 1
  22   13   25 1
  23   14   15 1
  24   14   16 1
  25   14   17 1
  26   18   19 1
  27   18   26 1
  28   18   27 1
  29   19   28 1

#	End of record

