#	Name: ASD05380032
#	Creating user name:	WinNT
#	Creation time:	15. 06. 2019 20:59

#	Modifying user name:	WinNT
#	Modification time:	15. 06. 2019 20:59

#	Program:	/corina/corina34_cracker 3.40 0067  02.08.2006

@<TRIPOS>MOLECULE
ASD05380032
  50   54    0    0    0
SMALL
NO_CHARGES


@<TRIPOS>ATOM
   1 C1            -0.3764     1.9598    -0.4519 C.ar    
   2 C2            -0.0069     0.6964     0.0617 C.ar    
   3 C3             0.6011     2.8378    -0.9151 C.ar    
   4 C4             1.9267     2.4643    -0.8679 C.ar    
   5 C5             2.2932     1.2234    -0.3642 C.ar    
   6 C6             1.3427     0.3414     0.0995 C.ar    
   7 C7             0.2116     4.1860    -1.4642 C.3     
   8 N8            -0.9758    -0.1418     0.5075 N.2     
   9 C9            -2.2309     0.1890     0.4732 C.2     
  10 N10           -2.6767     1.3827    -0.0039 N.am    
  11 C11           -1.8050     2.3061    -0.4719 C.2     
  12 C12           -4.0495     1.6604    -0.0057 C.ar    
  13 C13           -4.8255     1.3259    -1.1076 C.ar    
  14 C14           -4.6384     2.2655     1.0967 C.ar    
  15 C15           -5.9924     2.5376     1.0921 C.ar    
  16 C16           -6.7617     2.2077    -0.0087 C.ar    
  17 C17           -6.1791     1.6006    -1.1061 C.ar    
  18 C18           -3.2454    -0.7997     0.9873 C.3     
  19 N19           -2.8329    -2.1572     0.6223 N.pl3   
  20 C20           -3.7795    -3.1598     0.5043 C.ar    
  21 N21           -5.0669    -2.9083     0.7186 N.ar    
  22 O22           -2.1896     3.3782    -0.9015 O.2     
  23 C23           -3.4026    -4.4661     0.1495 C.ar    
  24 C24           -4.4087    -5.4417     0.0453 C.ar    
  25 N25           -5.6697    -5.0970     0.2840 N.ar    
  26 C26           -5.9769    -3.8587     0.6083 C.ar    
  27 N27           -2.2266    -5.0728    -0.1408 N.2     
  28 C28           -2.4415    -6.3278    -0.4099 C.2     
  29 N29           -3.7725    -6.6046    -0.3086 N.pl3   
  30 C30           -3.3404    -0.6876     2.5102 C.3     
  31 O31           -2.0445    -0.8726     3.0832 O.3     
  32 H32            2.6871     3.1425    -1.2261 H       
  33 H33            3.3367     0.9466    -0.3353 H       
  34 H34            1.6399    -0.6208     0.4897 H       
  35 H35            0.1153     4.8981    -0.6446 H       
  36 H36            0.9786     4.5315    -2.1574 H       
  37 H37           -0.7409     4.1037    -1.9878 H       
  38 H38           -4.3711     0.8518    -1.9649 H       
  39 H39           -4.0383     2.5228     1.9570 H       
  40 H40           -6.4510     3.0083     1.9492 H       
  41 H41           -7.8204     2.4209    -0.0096 H       
  42 H42           -6.7824     1.3445    -1.9644 H       
  43 H43           -4.2185    -0.5845     0.5458 H       
  44 H44           -1.8963    -2.3532     0.4634 H       
  45 H45           -7.0120    -3.6109     0.7915 H       
  46 H46           -1.6780    -7.0443    -0.6744 H       
  47 H47           -4.1926    -7.4659    -0.4585 H       
  48 H48           -3.7191     0.2985     2.7791 H       
  49 H49           -4.0179    -1.4527     2.8893 H       
  50 H50           -2.0292    -0.8145     4.0483 H       
@<TRIPOS>BOND
   1    1    2 ar
   2    1    3 ar
   3    1   11 1
   4    2    8 1
   5    2    6 ar
   6    3    4 ar
   7    3    7 1
   8    4    5 ar
   9    4   32 1
  10    5    6 ar
  11    5   33 1
  12    6   34 1
  13    7   35 1
  14    7   36 1
  15    7   37 1
  16    8    9 2
  17    9   10 1
  18    9   18 1
  19   10   11 am
  20   10   12 1
  21   11   22 2
  22   12   13 ar
  23   12   14 ar
  24   13   17 ar
  25   13   38 1
  26   14   15 ar
  27   14   39 1
  28   15   16 ar
  29   15   40 1
  30   16   17 ar
  31   16   41 1
  32   17   42 1
  33   18   19 1
  34   18   30 1
  35   18   43 1
  36   19   20 1
  37   19   44 1
  38   20   21 ar
  39   20   23 ar
  40   21   26 ar
  41   23   24 ar
  42   23   27 1
  43   24   25 ar
  44   24   29 1
  45   25   26 ar
  46   26   45 1
  47   27   28 2
  48   28   29 1
  49   28   46 1
  50   29   47 1
  51   30   31 1
  52   30   48 1
  53   30   49 1
  54   31   50 1

#	End of record

