#	Name: ASD05730085
#	Creating user name:	WinNT
#	Creation time:	15. 06. 2019 21:02

#	Modifying user name:	WinNT
#	Modification time:	15. 06. 2019 21:02

#	Program:	/corina/corina34_cracker 3.40 0067  02.08.2006

@<TRIPOS>MOLECULE
ASD05730085
  80   85    0    0    0
SMALL
NO_CHARGES


@<TRIPOS>ATOM
   1 N1            -0.0133     1.3923     0.0856 N.3     
   2 C2             0.0047    -0.0067     0.0610 C.ar    
   3 C3            -1.0303    -0.7039    -0.5486 C.ar    
   4 C4            -1.0125    -2.0842    -0.5727 C.ar    
   5 C5             0.0403    -2.7754     0.0125 C.ar    
   6 C6             1.0750    -2.0783     0.6224 C.ar    
   7 C7             1.0604    -0.6979     0.6412 C.ar    
   8 N8             0.0583    -4.1757    -0.0121 N.pl3   
   9 C9             1.2572    -4.8483    -0.1306 C.ar    
  10 N10            1.2579    -6.1702    -0.0458 N.ar    
  11 C11            2.3915    -6.8534    -0.1553 C.ar    
  12 C12            3.5942    -6.1414    -0.3638 C.ar    
  13 C13            3.5398    -4.7402    -0.4464 C.ar    
  14 N14            2.3678    -4.1461    -0.3311 N.ar    
  15 N15            2.3980    -8.2221    -0.0678 N.am    
  16 C16            3.5466    -8.9163    -0.1778 C.2     
  17 C17            4.8164    -8.2153    -0.3946 C.2     
  18 C18            4.8178    -6.8324    -0.4846 C.2     
  19 C19            1.1385    -8.9384     0.1487 C.3     
  20 C20            0.5073    -9.2799    -1.2026 C.3     
  21 O21            3.5310   -10.1312    -0.0964 O.2     
  22 C22            6.0723    -8.9703    -0.5152 C.2     
  23 N23            7.2986    -8.3970    -0.8247 N.3     
  24 C24            1.1707     1.9222     0.7762 C.3     
  25 C25           -1.5061   -10.1346    -2.2409 C.3     
  26 N26           -0.7556    -9.9981    -0.9855 N.3     
  27 C27            1.1537     3.4513     0.7121 C.3     
  28 N28           -0.0815     3.9513     1.3315 N.3     
  29 C29           -1.2655     3.4214     0.6409 C.3     
  30 C30           -1.2485     1.8923     0.7051 C.3     
  31 C31           -0.5159   -11.3103    -0.3701 C.3     
  32 N32            6.1700   -10.2507    -0.3400 N.2     
  33 C33            7.5916   -10.5739    -0.5567 C.3     
  34 C34            8.2169    -9.2306    -0.8716 C.2     
  35 C35            7.1953    -7.7306    -2.1298 C.3     
  36 S36            8.3231   -11.2766     0.9472 S.o     
  37 C37            7.3771   -12.7414     1.2009 C.ar    
  38 O38            9.6190   -11.7800     0.6530 O.2     
  39 C39            7.7843   -13.9341     0.6331 C.ar    
  40 C40            6.2309   -12.6989     1.9725 C.ar    
  41 C41            5.4888   -13.8481     2.1716 C.ar    
  42 C42            5.8926   -15.0396     1.5987 C.ar    
  43 C43            7.0422   -15.0833     0.8322 C.ar    
  44 H44           -1.8492    -0.1663    -1.0034 H       
  45 H45           -1.8175    -2.6264    -1.0464 H       
  46 H46            1.8933    -2.6160     1.0781 H       
  47 H47            1.8652    -0.1557     1.1152 H       
  48 H48           -0.7721    -4.6727     0.0543 H       
  49 H49            4.4381    -4.1619    -0.6048 H       
  50 H50            5.7398    -6.2932    -0.6443 H       
  51 H51            1.3336    -9.8575     0.7012 H       
  52 H52            0.4561    -8.3089     0.7198 H       
  53 H53            0.3122    -8.3608    -1.7551 H       
  54 H54            1.1897    -9.9093    -1.7737 H       
  55 H55            7.5225    -7.7074    -0.1231 H       
  56 H56            1.1578     1.6018     1.8180 H       
  57 H57            2.0724     1.5479     0.2915 H       
  58 H58           -0.9079   -10.6899    -2.9633 H       
  59 H59           -2.4366   -10.6699    -2.0516 H       
  60 H60           -1.7308    -9.1452    -2.6393 H       
  61 H61            2.0158     3.8474     1.2487 H       
  62 H62            1.1941     3.7720    -0.3289 H       
  63 H63           -0.1078     3.7300     2.3156 H       
  64 H64           -2.1672     3.7957     1.1256 H       
  65 H65           -1.2526     3.7418    -0.4009 H       
  66 H66           -2.1106     1.4962     0.1684 H       
  67 H67           -1.2890     1.5716     1.7460 H       
  68 H68            0.0592   -11.9332    -1.0552 H       
  69 H69            0.0414   -11.1802     0.5576 H       
  70 H70           -1.4705   -11.7911    -0.1562 H       
  71 H71            7.7055   -11.2595    -1.3964 H       
  72 H72            9.2559    -9.0367    -1.0934 H       
  73 H73            6.4928    -6.9001    -2.0590 H       
  74 H74            8.1749    -7.3539    -2.4239 H       
  75 H75            6.8414    -8.4434    -2.8747 H       
  76 H76            8.6820   -13.9682     0.0337 H       
  77 H77            5.9154   -11.7680     2.4200 H       
  78 H78            4.5937   -13.8150     2.7750 H       
  79 H79            5.3130   -15.9374     1.7546 H       
  80 H80            7.3577   -16.0142     0.3846 H       
@<TRIPOS>BOND
   1    1    2 1
   2    1   24 1
   3    1   30 1
   4    2    3 ar
   5    2    7 ar
   6    3    4 ar
   7    3   44 1
   8    4    5 ar
   9    4   45 1
  10    5    6 ar
  11    5    8 1
  12    6    7 ar
  13    6   46 1
  14    7   47 1
  15    8    9 1
  16    8   48 1
  17    9   10 ar
  18    9   14 ar
  19   10   11 ar
  20   11   12 ar
  21   11   15 1
  22   12   13 ar
  23   12   18 1
  24   13   14 ar
  25   13   49 1
  26   15   16 am
  27   15   19 1
  28   16   17 1
  29   16   21 2
  30   17   18 2
  31   17   22 1
  32   18   50 1
  33   19   20 1
  34   19   51 1
  35   19   52 1
  36   20   26 1
  37   20   53 1
  38   20   54 1
  39   22   32 2
  40   22   23 1
  41   23   35 1
  42   23   34 2
  43   23   55 1
  44   24   27 1
  45   24   56 1
  46   24   57 1
  47   25   26 1
  48   25   58 1
  49   25   59 1
  50   25   60 1
  51   26   31 1
  52   27   28 1
  53   27   61 1
  54   27   62 1
  55   28   29 1
  56   28   63 1
  57   29   30 1
  58   29   64 1
  59   29   65 1
  60   30   66 1
  61   30   67 1
  62   31   68 1
  63   31   69 1
  64   31   70 1
  65   32   33 1
  66   33   34 1
  67   33   36 1
  68   33   71 1
  69   34   72 1
  70   35   73 1
  71   35   74 1
  72   35   75 1
  73   36   37 1
  74   36   38 2
  75   37   39 ar
  76   37   40 ar
  77   39   43 ar
  78   39   76 1
  79   40   41 ar
  80   40   77 1
  81   41   42 ar
  82   41   78 1
  83   42   43 ar
  84   42   79 1
  85   43   80 1

#	End of record

