#	Name: ASD01120219
#	Creating user name:	WinNT
#	Creation time:	15. 06. 2019 18:59

#	Modifying user name:	WinNT
#	Modification time:	15. 06. 2019 18:59

#	Program:	/corina/corina34_cracker 3.40 0067  02.08.2006

@<TRIPOS>MOLECULE
ASD01120219
  48   51    0    0    0
SMALL
NO_CHARGES


@<TRIPOS>ATOM
   1 C1            -0.1512     0.6863     0.7999 C.ar    
   2 C2            -0.2732    -0.6951     0.7413 C.ar    
   3 C3            -1.5240    -1.2824     0.5750 C.ar    
   4 C4            -2.6581    -0.4762     0.4675 C.ar    
   5 C5            -2.5307     0.9181     0.5277 C.ar    
   6 C6            -1.2706     1.4931     0.7000 C.ar    
   7 O7            -3.9763    -0.7336     0.3047 O.3     
   8 C8            -4.6313     0.4399     0.2660 C.2     
   9 N9            -3.7859     1.4301     0.3972 N.2     
  10 N10           -5.9920     0.5794     0.1107 N.am    
  11 S11           -6.6865     2.0799     0.2036 S.o2    
  12 O12           -5.9271     2.9269    -0.6480 O.2     
  13 O13           -8.0863     1.8839     0.0572 O.2     
  14 C14           -6.4356     2.6701     1.8447 C.ar    
  15 C15           -7.0137     2.0089     2.9135 C.ar    
  16 C16           -6.8162     2.4721     4.2024 C.ar    
  17 C17           -6.0413     3.5948     4.4219 C.ar    
  18 C18           -5.4626     4.2560     3.3528 C.ar    
  19 C19           -5.6565     3.7904     2.0647 C.ar    
  20 Cl20          -7.9873     0.5983     2.6377 Cl      
  21 Cl21          -4.4890     5.6665     3.6286 Cl      
  22 O22            1.0755     1.2500     0.9622 O.3     
  23 C23            1.1320     2.6769     1.0146 C.3     
  24 C24           -2.5856    -3.4152     1.3101 C.ar    
  25 C25           -2.6998    -4.7893     1.2468 C.ar    
  26 C26           -1.8885    -5.5146     0.3932 C.ar    
  27 C27           -0.9589    -4.8682    -0.4018 C.ar    
  28 C28           -0.8363    -3.4949    -0.3471 C.ar    
  29 C29           -1.6510    -2.7588     0.5117 C.ar    
  30 C30           -0.0781    -5.6655    -1.3290 C.3     
  31 N31           -0.7373    -5.8007    -2.6348 N.3     
  32 H32            0.6061    -1.3167     0.8247 H       
  33 H33           -1.1686     2.5672     0.7472 H       
  34 H34           -6.5440    -0.2012    -0.0532 H       
  35 H35           -7.2681     1.9563     5.0367 H       
  36 H36           -5.8875     3.9566     5.4278 H       
  37 H37           -5.2046     4.3062     1.2303 H       
  38 H38            0.7403     3.0904     0.0853 H       
  39 H39            0.5326     3.0337     1.8522 H       
  40 H40            2.1662     2.9950     1.1464 H       
  41 H41           -3.2224    -2.8494     1.9740 H       
  42 H42           -3.4238    -5.2991     1.8651 H       
  43 H43           -1.9807    -6.5897     0.3474 H       
  44 H44           -0.1101    -2.9913    -0.9679 H       
  45 H45            0.8754    -5.1527    -1.4547 H       
  46 H46            0.0944    -6.6548    -0.9050 H       
  47 H47           -0.9663    -4.8964    -3.0196 H       
  48 H48           -0.1662    -6.3319    -3.2749 H       
@<TRIPOS>BOND
   1    1    2 ar
   2    1   22 1
   3    1    6 ar
   4    2    3 ar
   5    2   32 1
   6    3    4 ar
   7    3   29 1
   8    4    5 ar
   9    4    7 1
  10    5    6 ar
  11    5    9 1
  12    6   33 1
  13    7    8 1
  14    8    9 2
  15    8   10 1
  16   10   11 am
  17   10   34 1
  18   11   12 2
  19   11   13 2
  20   11   14 1
  21   14   15 ar
  22   14   19 ar
  23   15   16 ar
  24   15   20 1
  25   16   17 ar
  26   16   35 1
  27   17   18 ar
  28   17   36 1
  29   18   19 ar
  30   18   21 1
  31   19   37 1
  32   22   23 1
  33   23   38 1
  34   23   39 1
  35   23   40 1
  36   24   25 ar
  37   24   29 ar
  38   24   41 1
  39   25   26 ar
  40   25   42 1
  41   26   27 ar
  42   26   43 1
  43   27   28 ar
  44   27   30 1
  45   28   29 ar
  46   28   44 1
  47   30   31 1
  48   30   45 1
  49   30   46 1
  50   31   47 1
  51   31   48 1

#	End of record

