#	Name: ASD02398055
#	Creating user name:	WinNT
#	Creation time:	15. 06. 2019 20:20

#	Modifying user name:	WinNT
#	Modification time:	15. 06. 2019 20:20

#	Program:	/corina/corina34_cracker 3.40 0067  02.08.2006

@<TRIPOS>MOLECULE
ASD02398055
  54   58    0    0    0
SMALL
NO_CHARGES


@<TRIPOS>ATOM
   1 C1            -0.0517     1.3152    -0.1350 C.ar    
   2 C2             0.0265    -0.0742    -0.0281 C.ar    
   3 C3            -1.1412    -0.8252     0.0846 C.ar    
   4 C4            -2.3683    -0.1929     0.0899 C.ar    
   5 C5            -2.4412     1.1842    -0.0168 C.ar    
   6 C6            -1.2862     1.9373    -0.1232 C.ar    
   7 C7            -3.6317    -1.0052     0.2117 C.3     
   8 C8            -3.9252    -1.2624     1.6674 C.2     
   9 O9            -3.1844    -0.8303     2.5185 O.2     
  10 O10           -5.0096    -1.9713     2.0183 O.3     
  11 C11            1.3481    -0.7485    -0.0348 C.ar    
  12 C12            2.2338    -0.5621     1.0249 C.ar    
  13 C13            1.7059    -1.5750    -1.0979 C.ar    
  14 C14            2.9365    -2.2003    -1.0987 C.ar    
  15 C15            3.8135    -2.0079    -0.0467 C.ar    
  16 C16            3.4615    -1.1922     1.0137 C.ar    
  17 C17            1.8517     0.3262     2.1808 C.3     
  18 N18            2.8797     0.2429     3.2213 N.am    
  19 C19            4.0098     1.1672     3.3856 C.3     
  20 F20            1.0763     2.0507    -0.2442 F       
  21 C21            2.9430    -0.6885     4.1884 C.2     
  22 O22            4.0984    -0.6441     4.8736 O.3     
  23 C23            4.6472     0.7069     4.7262 C.3     
  24 O24            2.0529    -1.4830     4.4184 O.2     
  25 C25            3.9477     1.6195     5.7555 C.3     
  26 C26            3.4908     2.8368     4.9836 C.ar    
  27 C27            3.5181     2.5727     3.6309 C.ar    
  28 C28            3.0793     4.0802     5.4362 C.ar    
  29 C29            2.6942     5.0554     4.5378 C.ar    
  30 C30            2.7192     4.7904     3.1811 C.ar    
  31 C31            3.1269     3.5539     2.7327 C.ar    
  32 C32            5.1552    -2.6941    -0.0529 C.3     
  33 F33            5.2805    -3.4629    -1.2149 F       
  34 F34            6.1708    -1.7325    -0.0182 F       
  35 F35            5.2599    -3.5236     1.0688 F       
  36 H36           -1.0866    -1.9007     0.1673 H       
  37 H37           -3.4039     1.6736    -0.0125 H       
  38 H38           -1.3491     3.0123    -0.2059 H       
  39 H39           -4.4610    -0.4564    -0.2347 H       
  40 H40           -3.5041    -1.9556    -0.3066 H       
  41 H41           -5.1561    -2.1102     2.9640 H       
  42 H42            1.0215    -1.7265    -1.9195 H       
  43 H43            3.2149    -2.8412    -1.9222 H       
  44 H44            4.1503    -1.0451     1.8324 H       
  45 H45            1.7675     1.3564     1.8349 H       
  46 H46            0.8948     0.0005     2.5885 H       
  47 H47            4.7025     1.1187     2.5455 H       
  48 H48            5.7363     0.7480     4.7435 H       
  49 H49            3.0902     1.1068     6.1912 H       
  50 H50            4.6491     1.9114     6.5372 H       
  51 H51            3.0595     4.2873     6.4960 H       
  52 H52            2.3743     6.0234     4.8942 H       
  53 H53            2.4164     5.5507     2.4763 H       
  54 H54            3.1469     3.3462     1.6730 H       
@<TRIPOS>BOND
   1    1    2 ar
   2    1   20 1
   3    1    6 ar
   4    2    3 ar
   5    2   11 1
   6    3    4 ar
   7    3   36 1
   8    4    5 ar
   9    4    7 1
  10    5    6 ar
  11    5   37 1
  12    6   38 1
  13    7    8 1
  14    7   39 1
  15    7   40 1
  16    8    9 2
  17    8   10 1
  18   10   41 1
  19   11   12 ar
  20   11   13 ar
  21   12   17 1
  22   12   16 ar
  23   13   14 ar
  24   13   42 1
  25   14   15 ar
  26   14   43 1
  27   15   16 ar
  28   15   32 1
  29   16   44 1
  30   17   18 1
  31   17   45 1
  32   17   46 1
  33   18   21 am
  34   18   19 1
  35   19   27 1
  36   19   23 1
  37   19   47 1
  38   21   22 1
  39   21   24 2
  40   22   23 1
  41   23   25 1
  42   23   48 1
  43   25   26 1
  44   25   49 1
  45   25   50 1
  46   26   27 ar
  47   26   28 ar
  48   27   31 ar
  49   28   29 ar
  50   28   51 1
  51   29   30 ar
  52   29   52 1
  53   30   31 ar
  54   30   53 1
  55   31   54 1
  56   32   33 1
  57   32   34 1
  58   32   35 1

#	End of record

