#	Name: ASD02508157
#	Creating user name:	WinNT
#	Creation time:	15. 06. 2019 20:23

#	Modifying user name:	WinNT
#	Modification time:	15. 06. 2019 20:23

#	Program:	/corina/corina34_cracker 3.40 0067  02.08.2006

@<TRIPOS>MOLECULE
ASD02508157
  33   35    0    0    0
SMALL
NO_CHARGES


@<TRIPOS>ATOM
   1 C1             0.4446     1.9426     0.0172 C.ar    
   2 C2             0.2595     0.5730     0.1235 C.ar    
   3 C3             1.7339     2.4585    -0.1110 C.ar    
   4 C4             2.8248     1.6037    -0.1318 C.ar    
   5 C5             2.6317     0.2402    -0.0253 C.ar    
   6 C6             1.3518    -0.2738     0.1021 C.ar    
   7 O7            -0.4126     2.9926     0.0023 O.3     
   8 C8             0.2868     4.1314    -0.1225 C.2     
   9 N9             1.6018     3.8448    -0.1956 N.am    
  10 S10            4.0171    -0.8482    -0.0515 S.o2    
  11 N11            4.1096    -1.5599     1.4409 N.am    
  12 C12            4.3496    -0.7782     2.5741 C.ar    
  13 O13           -0.1920     5.2482    -0.1678 O.2     
  14 O14            3.6967    -1.8835    -0.9706 O.2     
  15 O15            5.1701    -0.0271    -0.1767 O.2     
  16 C16            3.5794    -0.9541     3.7165 C.ar    
  17 C17            5.3623     0.1723     2.5620 C.ar    
  18 C18            5.5972     0.9435     3.6834 C.ar    
  19 C19            4.8246     0.7700     4.8183 C.ar    
  20 C20            3.8187    -0.1801     4.8350 C.ar    
  21 Cl21           1.1184    -1.9889     0.2348 Cl      
  22 Cl22           5.1226     1.7411     6.2260 Cl      
  23 C23            2.6929     4.8123    -0.3357 C.3     
  24 H24           -0.7367     0.1681     0.2233 H       
  25 H25            3.8234     2.0029    -0.2314 H       
  26 H26            3.9973    -2.5194     1.5284 H       
  27 H27            2.7940    -1.6953     3.7300 H       
  28 H28            5.9658     0.3079     1.6767 H       
  29 H29            6.3848     1.6824     3.6747 H       
  30 H30            3.2172    -0.3135     5.7221 H       
  31 H31            2.2816     5.8209    -0.3739 H       
  32 H32            3.3663     4.7265     0.5172 H       
  33 H33            3.2429     4.6091    -1.2546 H       
@<TRIPOS>BOND
   1    1    2 ar
   2    1    3 ar
   3    1    7 1
   4    2    6 ar
   5    2   24 1
   6    3    4 ar
   7    3    9 1
   8    4    5 ar
   9    4   25 1
  10    5    6 ar
  11    5   10 1
  12    6   21 1
  13    7    8 1
  14    8    9 am
  15    8   13 2
  16    9   23 1
  17   10   11 am
  18   10   14 2
  19   10   15 2
  20   11   12 1
  21   11   26 1
  22   12   16 ar
  23   12   17 ar
  24   16   20 ar
  25   16   27 1
  26   17   18 ar
  27   17   28 1
  28   18   19 ar
  29   18   29 1
  30   19   20 ar
  31   19   22 1
  32   20   30 1
  33   23   31 1
  34   23   32 1
  35   23   33 1

#	End of record

