#	Name: ASD01883832
#	Creating user name:	WinNT
#	Creation time:	15. 06. 2019 19:47

#	Modifying user name:	WinNT
#	Modification time:	15. 06. 2019 19:47

#	Program:	/corina/corina34_cracker 3.40 0067  02.08.2006

@<TRIPOS>MOLECULE
ASD01883832
  56   58    0    0    0
SMALL
NO_CHARGES


@<TRIPOS>ATOM
   1 N1             0.0770     1.4095     0.6689 N.ar    
   2 C2             0.0565     0.0920     0.5979 C.ar    
   3 C3             1.2253    -0.6279     0.4620 C.ar    
   4 C4             2.4414     0.0587     0.3998 C.ar    
   5 C5             2.4168     1.4537     0.4789 C.ar    
   6 C6             1.2026     2.0952     0.6142 C.ar    
   7 C7             3.7235    -0.6738     0.2544 C.2     
   8 C8             3.8649    -2.0616     0.0668 C.2     
   9 C9             5.1937    -2.3355    -0.0202 C.2     
  10 N10            5.8669    -1.1616     0.1079 N.pl3   
  11 N11            4.9255    -0.1377     0.2727 N.2     
  12 C12            1.1619     3.5992     0.7005 C.3     
  13 C13            7.3221    -0.9958     0.0745 C.3     
  14 C14            7.7881    -0.8723    -1.3775 C.3     
  15 O15            7.2579     0.3260    -1.9476 O.3     
  16 N16            5.7629    -3.5927    -0.2067 N.pl3   
  17 C17            6.1895    -4.3369     0.8960 C.ar    
  18 C18            6.1401    -3.7839     2.1697 C.ar    
  19 C19            6.5615    -4.5203     3.2600 C.ar    
  20 C20            7.0331    -5.8076     3.0872 C.ar    
  21 C21            7.0852    -6.3652     1.8170 C.ar    
  22 C22            6.6581    -5.6323     0.7213 C.ar    
  23 C23            7.4918    -6.6072     4.2794 C.3     
  24 F24            7.3457    -5.8397     5.4399 F       
  25 F25            6.7187    -7.7681     4.3877 F       
  26 F26            8.8369    -6.9560     4.1173 F       
  27 C27            9.3167    -0.8244    -1.4202 C.3     
  28 C28            7.0271     0.2471    -3.3557 C.3     
  29 O29            7.5496    -7.6313     1.6489 O.3     
  30 C30            5.9143    -4.1350    -1.5592 C.3     
  31 C31            7.5752    -8.1410     0.3142 C.3     
  32 H32           -0.8878    -0.4296     0.6472 H       
  33 H33            1.2012    -1.7061     0.4048 H       
  34 H34            3.3345     2.0214     0.4350 H       
  35 H35            3.0614    -2.7805     0.0037 H       
  36 H36            1.2363     3.9053     1.7440 H       
  37 H37            1.9967     4.0181     0.1386 H       
  38 H38            0.2234     3.9619     0.2815 H       
  39 H39            7.5978    -0.0948     0.6225 H       
  40 H40            7.7971    -1.8615     0.5362 H       
  41 H41            7.4355    -1.7324    -1.9467 H       
  42 H42            5.7723    -2.7779     2.3075 H       
  43 H43            6.5228    -4.0887     4.2493 H       
  44 H44            6.6977    -6.0646    -0.2675 H       
  45 H45            9.6487    -0.7364    -2.4547 H       
  46 H46            9.6693     0.0357    -0.8511 H       
  47 H47            9.7212    -1.7384    -0.9854 H       
  48 H48            7.9665     0.0362    -3.8666 H       
  49 H49            6.3138    -0.5506    -3.5628 H       
  50 H50            6.6249     1.1956    -3.7116 H       
  51 H51            6.9175    -3.9194    -1.9269 H       
  52 H52            5.7592    -5.2137    -1.5377 H       
  53 H53            5.1787    -3.6753    -2.2194 H       
  54 H54            6.5642    -8.1434    -0.0933 H       
  55 H55            8.2144    -7.5101    -0.3035 H       
  56 H56            7.9665    -9.1583     0.3212 H       
@<TRIPOS>BOND
   1    1    2 ar
   2    1    6 ar
   3    2    3 ar
   4    2   32 1
   5    3    4 ar
   6    3   33 1
   7    4    5 ar
   8    4    7 1
   9    5    6 ar
  10    5   34 1
  11    6   12 1
  12    7    8 1
  13    7   11 2
  14    8    9 2
  15    8   35 1
  16    9   10 1
  17    9   16 1
  18   10   11 1
  19   10   13 1
  20   12   36 1
  21   12   37 1
  22   12   38 1
  23   13   14 1
  24   13   39 1
  25   13   40 1
  26   14   15 1
  27   14   27 1
  28   14   41 1
  29   15   28 1
  30   16   17 1
  31   16   30 1
  32   17   18 ar
  33   17   22 ar
  34   18   19 ar
  35   18   42 1
  36   19   20 ar
  37   19   43 1
  38   20   21 ar
  39   20   23 1
  40   21   22 ar
  41   21   29 1
  42   22   44 1
  43   23   24 1
  44   23   25 1
  45   23   26 1
  46   27   45 1
  47   27   46 1
  48   27   47 1
  49   28   48 1
  50   28   49 1
  51   28   50 1
  52   29   31 1
  53   30   51 1
  54   30   52 1
  55   30   53 1
  56   31   54 1
  57   31   55 1
  58   31   56 1

#	End of record

