#	Name: ASD02038750
#	Creating user name:	WinNT
#	Creation time:	15. 06. 2019 20:17

#	Modifying user name:	WinNT
#	Modification time:	15. 06. 2019 20:17

#	Program:	/corina/corina34_cracker 3.40 0067  02.08.2006

@<TRIPOS>MOLECULE
ASD02038750
  50   52    0    0    0
SMALL
NO_CHARGES


@<TRIPOS>ATOM
   1 C1            -1.2779    -0.8467     0.4666 C.2     
   2 C2            -0.0604    -0.0337     0.3013 C.2     
   3 N3             1.1365    -0.6353     0.1530 N.am    
   4 C4             1.2408    -2.0932     0.2514 C.3     
   5 C5             1.2117    -2.6934    -1.1306 C.ar    
   6 C6             2.3333     0.1689    -0.1066 C.3     
   7 O7            -0.1355     1.1802     0.2986 O.2     
   8 N8            -1.3392    -2.2025     0.4994 N.2     
   9 C9            -2.5795    -2.5640     0.6592 C.2     
  10 N10           -3.3578    -1.4532     0.7346 N.pl3   
  11 C11           -2.5483    -0.3741     0.6207 C.2     
  12 C12            2.3943    -3.0167    -1.7678 C.ar    
  13 C13            0.0016    -2.9251    -1.7575 C.ar    
  14 C14           -0.0285    -3.4757    -3.0257 C.ar    
  15 C15            1.1511    -3.7955    -3.6692 C.ar    
  16 C16            2.3668    -3.5691    -3.0399 C.ar    
  17 O17            3.5288    -3.8824    -3.6711 O.3     
  18 C18            2.1203     1.0123    -1.3674 C.3     
  19 C19            3.3434     1.9066    -1.5863 C.3     
  20 O20            3.5452     2.7261    -0.4331 O.3     
  21 C21            3.7963     1.9925     0.7672 C.3     
  22 C22            2.5914     1.1016     1.0807 C.3     
  23 C23            3.4246    -4.4419    -4.9819 C.3     
  24 F24            2.7712    -3.5365    -5.8248 F       
  25 F25            4.7053    -4.7027    -5.4808 F       
  26 F26            2.6952    -5.6343    -4.9233 F       
  27 C27           -3.0724    -3.9855     0.7459 C.3     
  28 C28           -4.8116    -1.4275     0.9136 C.3     
  29 H29            2.1770    -2.3581     0.7429 H       
  30 H30            0.4034    -2.4790     0.8328 H       
  31 H31            3.1908    -0.4888    -0.2485 H       
  32 H32           -2.8512     0.6624     0.6405 H       
  33 H33            3.3393    -2.8392    -1.2760 H       
  34 H34           -0.9218    -2.6761    -1.2559 H       
  35 H35           -0.9752    -3.6562    -3.5133 H       
  36 H36            1.1270    -4.2255    -4.6596 H       
  37 H37            1.9908     0.3554    -2.2275 H       
  38 H38            1.2326     1.6328    -1.2449 H       
  39 H39            4.2238     1.2849    -1.7490 H       
  40 H40            3.1793     2.5400    -2.4581 H       
  41 H41            4.6826     1.3719     0.6353 H       
  42 H42            3.9584     2.6877     1.5910 H       
  43 H43            1.7132     1.7239     1.2527 H       
  44 H44            2.7988     0.5086     1.9714 H       
  45 H45           -3.0657    -4.3095     1.7866 H       
  46 H46           -4.0880    -4.0424     0.3542 H       
  47 H47           -2.4200    -4.6327     0.1597 H       
  48 H48           -5.0463    -1.4022     1.9777 H       
  49 H49           -5.2216    -0.5409     0.4299 H       
  50 H50           -5.2486    -2.3203     0.4663 H       
@<TRIPOS>BOND
   1    1    2 1
   2    1    8 1
   3    1   11 2
   4    2    3 am
   5    2    7 2
   6    3    4 1
   7    3    6 1
   8    4    5 1
   9    4   29 1
  10    4   30 1
  11    5   12 ar
  12    5   13 ar
  13    6   18 1
  14    6   22 1
  15    6   31 1
  16    8    9 2
  17    9   10 1
  18    9   27 1
  19   10   11 1
  20   10   28 1
  21   11   32 1
  22   12   16 ar
  23   12   33 1
  24   13   14 ar
  25   13   34 1
  26   14   15 ar
  27   14   35 1
  28   15   16 ar
  29   15   36 1
  30   16   17 1
  31   17   23 1
  32   18   19 1
  33   18   37 1
  34   18   38 1
  35   19   20 1
  36   19   39 1
  37   19   40 1
  38   20   21 1
  39   21   22 1
  40   21   41 1
  41   21   42 1
  42   22   43 1
  43   22   44 1
  44   23   24 1
  45   23   25 1
  46   23   26 1
  47   27   45 1
  48   27   46 1
  49   27   47 1
  50   28   48 1
  51   28   49 1
  52   28   50 1

#	End of record

