#	Name: ASD04590674
#	Creating user name:	WinNT
#	Creation time:	15. 06. 2019 20:51

#	Modifying user name:	WinNT
#	Modification time:	15. 06. 2019 20:51

#	Program:	/corina/corina34_cracker 3.40 0067  02.08.2006

@<TRIPOS>MOLECULE
ASD04590674
  65   70    0    0    0
SMALL
NO_CHARGES


@<TRIPOS>ATOM
   1 N1            -0.0171     1.3233    -0.0119 N.ar    
   2 C2             0.0017    -0.0035    -0.0051 C.ar    
   3 N3             1.1298    -0.6949    -0.0122 N.ar    
   4 C4             2.3050    -0.0727    -0.0266 C.ar    
   5 C5             2.3189     1.3367    -0.0341 C.ar    
   6 C6             1.1071     2.0203    -0.0262 C.ar    
   7 N7             3.6029    -0.5190    -0.0371 N.pl3   
   8 C8             4.4820     0.5513    -0.0513 C.ar    
   9 C9             3.7311     1.7389    -0.0501 C.ar    
  10 N10           -1.2019    -0.6888     0.0103 N.pl3   
  11 C11           -2.4019     0.0120     0.1313 C.ar    
  12 C12            4.0021    -1.9285    -0.0329 C.3     
  13 C13            3.4623    -2.6255     1.2283 C.3     
  14 N14           -2.3783     1.3199     0.3319 N.ar    
  15 C15           -3.4881     2.0231     0.4522 C.ar    
  16 C16           -4.7291     1.4086     0.3721 C.ar    
  17 C17           -4.7935     0.0324     0.1615 C.ar    
  18 C18           -3.6090    -0.6707     0.0341 C.ar    
  19 N19           -5.9023     2.1614     0.5017 N.3     
  20 C20           -5.5954     3.5813     0.7167 C.3     
  21 C21           -6.8900     4.3473     0.9983 C.3     
  22 C22           -7.8417     4.1859    -0.1903 C.3     
  23 C23           -8.1067     2.6959    -0.4232 C.3     
  24 C24           -6.7769     1.9777    -0.6635 C.3     
  25 C25            5.8704     0.6444    -0.0658 C.ar    
  26 N26            6.4628     1.8230    -0.0777 N.ar    
  27 C27            5.7838     2.9573    -0.0769 C.ar    
  28 C28            4.4059     2.9602    -0.0630 C.ar    
  29 F29            6.6175    -0.4811    -0.0673 F       
  30 C30            2.5294    -3.7542     0.7430 C.3     
  31 C31            3.0211    -4.0622    -0.6932 C.3     
  32 C32            3.3784    -2.6580    -1.2406 C.3     
  33 C33           -9.1614     4.8990     0.1108 C.3     
  34 C34          -10.0504     4.8449    -1.1049 C.2     
  35 N35          -11.2723     5.4126    -1.0719 N.am    
  36 O36           -9.6662     4.2906    -2.1129 O.2     
  37 H37            1.0847     3.1001    -0.0319 H       
  38 H38           -1.2104    -1.6559    -0.0630 H       
  39 H39            5.0886    -2.0087    -0.0677 H       
  40 H40            4.2868    -3.0447     1.8051 H       
  41 H41            2.9033    -1.9150     1.8373 H       
  42 H42           -3.4296     3.0891     0.6153 H       
  43 H43           -5.7459    -0.4726     0.0953 H       
  44 H44           -3.6218    -1.7380    -0.1303 H       
  45 H45           -4.9213     3.6824     1.5673 H       
  46 H46           -5.1188     3.9889    -0.1747 H       
  47 H47           -7.3601     3.9493     1.8976 H       
  48 H48           -6.6637     5.4038     1.1424 H       
  49 H49           -7.3878     4.6188    -1.0818 H       
  50 H50           -8.5960     2.2719     0.4537 H       
  51 H51           -8.7496     2.5725    -1.2946 H       
  52 H52           -6.2947     2.3928    -1.5485 H       
  53 H53           -6.9608     0.9141    -0.8155 H       
  54 H54            6.3173     3.8962    -0.0870 H       
  55 H55            3.8581     3.8909    -0.0625 H       
  56 H56            2.6324    -4.6339     1.3783 H       
  57 H57            1.4943    -3.4131     0.7269 H       
  58 H58            3.9020    -4.7036    -0.6706 H       
  59 H59            2.2261    -4.5165    -1.2845 H       
  60 H60            2.4803    -2.1399    -1.5771 H       
  61 H61            4.1008    -2.7377    -2.0529 H       
  62 H62           -9.6583     4.4062     0.9465 H       
  63 H63           -8.9618     5.9390     0.3690 H       
  64 H64          -11.5796     5.8559    -0.2657 H       
  65 H65          -11.8445     5.3778    -1.8544 H       
@<TRIPOS>BOND
   1    1    2 ar
   2    1    6 ar
   3    2    3 ar
   4    2   10 1
   5    3    4 ar
   6    4    5 ar
   7    4    7 1
   8    5    6 ar
   9    5    9 1
  10    6   37 1
  11    7    8 1
  12    7   12 1
  13    8    9 ar
  14    8   25 ar
  15    9   28 ar
  16   10   11 1
  17   10   38 1
  18   11   14 ar
  19   11   18 ar
  20   12   13 1
  21   12   32 1
  22   12   39 1
  23   13   30 1
  24   13   40 1
  25   13   41 1
  26   14   15 ar
  27   15   16 ar
  28   15   42 1
  29   16   17 ar
  30   16   19 1
  31   17   18 ar
  32   17   43 1
  33   18   44 1
  34   19   20 1
  35   19   24 1
  36   20   21 1
  37   20   45 1
  38   20   46 1
  39   21   22 1
  40   21   47 1
  41   21   48 1
  42   22   23 1
  43   22   33 1
  44   22   49 1
  45   23   24 1
  46   23   50 1
  47   23   51 1
  48   24   52 1
  49   24   53 1
  50   25   26 ar
  51   25   29 1
  52   26   27 ar
  53   27   28 ar
  54   27   54 1
  55   28   55 1
  56   30   31 1
  57   30   56 1
  58   30   57 1
  59   31   32 1
  60   31   58 1
  61   31   59 1
  62   32   60 1
  63   32   61 1
  64   33   34 1
  65   33   62 1
  66   33   63 1
  67   34   35 am
  68   34   36 2
  69   35   64 1
  70   35   65 1

#	End of record

