#	Name: ASD00070084
#	Creating user name:	WinNT
#	Creation time:	15. 06. 2019 18:30

#	Modifying user name:	WinNT
#	Modification time:	15. 06. 2019 18:30

#	Program:	/corina/corina34_cracker 3.40 0067  02.08.2006

@<TRIPOS>MOLECULE
ASD00070084
  59   62    0    0    0
SMALL
NO_CHARGES


@<TRIPOS>ATOM
   1 C1            -0.0184     1.5028     0.0103 C.2     
   2 C2             0.0021    -0.0041     0.0020 C.3     
   3 O3             1.0236     2.1234     0.0037 O.2     
   4 N4            -1.1946     2.1607     0.0195 N.am    
   5 C5            -1.2145     3.6256     0.0275 C.3     
   6 C6            -2.5315     4.1210    -0.5732 C.3     
   7 C7            -2.5522     5.6509    -0.5648 C.3     
   8 C8            -2.4266     6.1547     0.8744 C.3     
   9 C9            -1.1096     5.6592     1.4751 C.3     
  10 C10           -1.0888     4.1294     1.4667 C.3     
  11 C11           -2.4474     7.6846     0.8828 C.3     
  12 C12           -2.4475     8.1867     2.3281 C.3     
  13 N13           -2.4674     9.6555     2.3362 N.3     
  14 C14           -2.7062    10.1711     3.6902 C.3     
  15 C15           -2.8652    11.6923     3.6376 C.3     
  16 C16           -1.5944    12.3135     3.0515 C.3     
  17 C17           -1.3419    11.7238     1.6611 C.3     
  18 C18           -1.2270    10.2018     1.7711 C.3     
  19 O19           -0.1054    16.6260     4.2752 O.3     
  20 C20            0.6654    15.6912     4.8578 C.2     
  21 C21            0.2455    14.4663     4.5130 C.2     
  22 C22           -0.9057    14.6633     3.6239 C.ar    
  23 C23           -1.0665    16.0548     3.5213 C.ar    
  24 C24           -1.7681    13.8064     2.9414 C.ar    
  25 C25           -2.7719    14.3255     2.1713 C.ar    
  26 C26           -2.9376    15.6985     2.0649 C.ar    
  27 C27           -2.0940    16.5633     2.7336 C.ar    
  28 F28           -2.2652    17.8987     2.6220 F       
  29 H29            0.0168    -0.3729     1.0276 H       
  30 H30           -0.8878    -0.3767    -0.5053 H       
  31 H31            0.8920    -0.3525    -0.5222 H       
  32 H32           -2.0280     1.6644     0.0207 H       
  33 H33           -0.3805     4.0035    -0.5638 H       
  34 H34           -2.6210     3.7621    -1.5985 H       
  35 H35           -3.3655     3.7431     0.0182 H       
  36 H36           -1.7182     6.0288    -1.1561 H       
  37 H37           -3.4905     6.0039    -0.9927 H       
  38 H38           -3.2606     5.7768     1.4658 H       
  39 H39           -0.2756     6.0372     0.8838 H       
  40 H40           -1.0201     6.0182     2.5004 H       
  41 H41           -1.9228     3.7515     2.0581 H       
  42 H42           -0.1506     3.7764     1.8947 H       
  43 H43           -1.5649     8.0627     0.3669 H       
  44 H44           -3.3446     8.0386     0.3752 H       
  45 H45           -3.3300     7.8085     2.8441 H       
  46 H46           -1.5502     7.8327     2.8358 H       
  47 H47           -3.6149     9.7247     4.0939 H       
  48 H48           -1.8614     9.9163     4.3301 H       
  49 H49           -3.7183    11.9474     3.0089 H       
  50 H50           -3.0269    12.0764     4.6448 H       
  51 H51           -0.7475    12.0913     3.7007 H       
  52 H52           -2.1710    11.9795     1.0013 H       
  53 H53           -0.4152    12.1304     1.2562 H       
  54 H54           -0.3891     9.9467     2.4199 H       
  55 H55           -1.0614     9.7776     0.7807 H       
  56 H56            1.5019    15.8976     5.5090 H       
  57 H57            0.6692    13.5235     4.8261 H       
  58 H58           -3.4399    13.6620     1.6421 H       
  59 H59           -3.7345    16.0951     1.4533 H       
@<TRIPOS>BOND
   1    1    2 1
   2    1    3 2
   3    1    4 am
   4    2   29 1
   5    2   30 1
   6    2   31 1
   7    4    5 1
   8    4   32 1
   9    5    6 1
  10    5   10 1
  11    5   33 1
  12    6    7 1
  13    6   34 1
  14    6   35 1
  15    7    8 1
  16    7   36 1
  17    7   37 1
  18    8    9 1
  19    8   11 1
  20    8   38 1
  21    9   10 1
  22    9   39 1
  23    9   40 1
  24   10   41 1
  25   10   42 1
  26   11   12 1
  27   11   43 1
  28   11   44 1
  29   12   13 1
  30   12   45 1
  31   12   46 1
  32   13   14 1
  33   13   18 1
  34   14   15 1
  35   14   47 1
  36   14   48 1
  37   15   16 1
  38   15   49 1
  39   15   50 1
  40   16   17 1
  41   16   24 1
  42   16   51 1
  43   17   18 1
  44   17   52 1
  45   17   53 1
  46   18   54 1
  47   18   55 1
  48   19   20 1
  49   19   23 1
  50   20   21 2
  51   20   56 1
  52   21   22 1
  53   21   57 1
  54   22   23 ar
  55   22   24 ar
  56   23   27 ar
  57   24   25 ar
  58   25   26 ar
  59   25   58 1
  60   26   27 ar
  61   26   59 1
  62   27   28 1

#	End of record

