#	Name: ASD02500144
#	Creating user name:	WinNT
#	Creation time:	15. 06. 2019 20:22

#	Modifying user name:	WinNT
#	Modification time:	15. 06. 2019 20:22

#	Program:	/corina/corina34_cracker 3.40 0067  02.08.2006

@<TRIPOS>MOLECULE
ASD02500144
  59   63    0    0    0
SMALL
NO_CHARGES


@<TRIPOS>ATOM
   1 N1            -3.5645     5.0823    -0.6564 N.ar    
   2 C2            -4.3495     5.1511     0.3911 C.ar    
   3 C3            -4.0507     4.4823     1.5764 C.ar    
   4 C4            -2.9142     3.7303     1.6669 C.ar    
   5 C5            -2.0738     3.6584     0.5398 C.ar    
   6 C6            -0.8889     2.9058     0.5581 C.ar    
   7 C7            -0.1025     2.8617    -0.5527 C.ar    
   8 C8            -0.4578     3.5544    -1.7081 C.ar    
   9 C9            -1.5994     4.2937    -1.7606 C.ar    
  10 C10           -2.4373     4.3639    -0.6343 C.ar    
  11 S11           -2.0247     5.1605    -3.2345 S.o2    
  12 O12           -2.2318     6.5150    -2.8579 O.2     
  13 O13           -1.0810     4.7634    -4.2200 O.2     
  14 N14           -3.4942     4.5844    -3.7353 N.am    
  15 C15           -3.6704     3.2220    -3.9500 C.ar    
  16 C16           -4.9506     2.6754    -3.9295 C.ar    
  17 C17           -5.1283     1.3274    -4.1416 C.ar    
  18 C18           -4.0215     0.5066    -4.3778 C.ar    
  19 C19           -2.7373     1.0585    -4.3977 C.ar    
  20 C20           -2.5667     2.4082    -4.1905 C.ar    
  21 C21           -4.2084    -0.9389    -4.6050 C.2     
  22 O22           -3.5803    -1.5030    -5.4802 O.2     
  23 N23           -5.0752    -1.6344    -3.8426 N.am    
  24 C24           -5.1949    -3.0921    -3.9862 C.3     
  25 C25           -4.9656    -3.7401    -2.6152 C.3     
  26 N26           -5.8077    -3.0545    -1.6249 N.am    
  27 C27           -5.6880    -1.5968    -1.4813 C.3     
  28 C28           -5.9133    -0.9495    -2.8484 C.3     
  29 C29           -6.6745    -3.7500    -0.8625 C.2     
  30 O30           -7.2615    -3.1978     0.0493 O.2     
  31 S31           -5.6771    -6.3834    -1.4748 S.3     
  32 C32           -6.8844    -7.5848    -1.6223 C.2     
  33 N33           -8.0566    -7.0726    -1.4255 N.2     
  34 C34           -8.1172    -5.7916    -1.1614 C.2     
  35 C35           -6.9104    -5.1724    -1.1318 C.2     
  36 C36           -6.6210    -9.0347    -1.9375 C.3     
  37 H37           -5.2516     5.7421     0.3341 H       
  38 H38           -4.7170     4.5589     2.4229 H       
  39 H39           -2.6670     3.2056     2.5780 H       
  40 H40           -0.6025     2.3651     1.4481 H       
  41 H41            0.8089     2.2825    -0.5378 H       
  42 H42            0.1830     3.5043    -2.5759 H       
  43 H43           -4.2321     5.1974    -3.8789 H       
  44 H44           -5.8052     3.3099    -3.7467 H       
  45 H45           -6.1216     0.9039    -4.1253 H       
  46 H46           -1.8802     0.4270    -4.5795 H       
  47 H47           -1.5752     2.8360    -4.2105 H       
  48 H48           -6.1922    -3.3435    -4.3474 H       
  49 H49           -4.4461    -3.4530    -4.6912 H       
  50 H50           -5.2374    -4.7948    -2.6590 H       
  51 H51           -3.9169    -3.6414    -2.3347 H       
  52 H52           -6.4369    -1.2359    -0.7763 H       
  53 H53           -4.6908    -1.3454    -1.1201 H       
  54 H54           -5.6387     0.1044    -2.8022 H       
  55 H55           -6.9628    -1.0447    -3.1268 H       
  56 H56           -9.0473    -5.2727    -0.9825 H       
  57 H57           -6.4774    -9.5880    -1.0095 H       
  58 H58           -7.4711    -9.4489    -2.4796 H       
  59 H59           -5.7241    -9.1159    -2.5515 H       
@<TRIPOS>BOND
   1    1    2 ar
   2    1   10 ar
   3    2    3 ar
   4    2   37 1
   5    3    4 ar
   6    3   38 1
   7    4    5 ar
   8    4   39 1
   9    5    6 ar
  10    5   10 ar
  11    6    7 ar
  12    6   40 1
  13    7    8 ar
  14    7   41 1
  15    8    9 ar
  16    8   42 1
  17    9   10 ar
  18    9   11 1
  19   11   12 2
  20   11   13 2
  21   11   14 am
  22   14   15 1
  23   14   43 1
  24   15   16 ar
  25   15   20 ar
  26   16   17 ar
  27   16   44 1
  28   17   18 ar
  29   17   45 1
  30   18   19 ar
  31   18   21 1
  32   19   20 ar
  33   19   46 1
  34   20   47 1
  35   21   22 2
  36   21   23 am
  37   23   24 1
  38   23   28 1
  39   24   25 1
  40   24   48 1
  41   24   49 1
  42   25   26 1
  43   25   50 1
  44   25   51 1
  45   26   27 1
  46   26   29 am
  47   27   28 1
  48   27   52 1
  49   27   53 1
  50   28   54 1
  51   28   55 1
  52   29   30 2
  53   29   35 1
  54   31   32 1
  55   31   35 1
  56   32   33 2
  57   32   36 1
  58   33   34 1
  59   34   35 2
  60   34   56 1
  61   36   57 1
  62   36   58 1
  63   36   59 1

#	End of record

