#	Name: ASD01882481
#	Creating user name:	WinNT
#	Creation time:	15. 06. 2019 19:44

#	Modifying user name:	WinNT
#	Modification time:	15. 06. 2019 19:44

#	Program:	/corina/corina34_cracker 3.40 0067  02.08.2006

@<TRIPOS>MOLECULE
ASD01882481
  49   54    0    0    0
SMALL
NO_CHARGES


@<TRIPOS>ATOM
   1 C1            -0.0183     1.5015     0.0103 C.3     
   2 C2             0.0021    -0.0041     0.0020 C.2     
   3 C3             1.0846    -0.7411    -0.3237 C.2     
   4 C4             2.4035    -0.1202    -0.7232 C.3     
   5 C5             2.1492     1.3512    -1.0745 C.3     
   6 N6             1.3721     1.9869    -0.0004 N.3     
   7 O7             0.7931    -2.0504    -0.2340 O.3     
   8 C8            -1.0541    -0.9442     0.3156 C.ar    
   9 C9            -0.4776    -2.2283     0.1433 C.ar    
  10 C10           -2.3840    -0.7902     0.7109 C.ar    
  11 C11           -3.1094    -1.9493     0.9251 C.ar    
  12 C12           -2.5475    -3.2031     0.7574 C.ar    
  13 C13           -1.2307    -3.3766     0.3650 C.ar    
  14 C14            1.4178     3.4508    -0.1131 C.3     
  15 C15            4.9747     4.5957    -0.6839 C.2     
  16 C16            3.6613     4.1476    -0.9285 C.2     
  17 C17            2.8270     3.9292     0.1246 C.2     
  18 C18            3.2848     4.1520     1.4346 C.2     
  19 C19            4.5454     4.5811     1.6531 C.2     
  20 N20            5.3925     4.8047     0.6074 N.pl3   
  21 N21            6.9989     5.2589    -0.7514 N.2     
  22 N22            5.9986     4.8859    -1.4699 N.2     
  23 C23            6.6829     5.2264     0.5176 C.2     
  24 C24            7.5842     5.5885     1.6698 C.3     
  25 C25            8.3414     4.3434     2.1358 C.3     
  26 C26            9.3994     4.5267     3.2258 C.3     
  27 C27            8.0713     3.8426     3.5561 C.3     
  28 Cl28           3.1136     3.8780    -2.5536 Cl      
  29 H29           -0.5403     1.8657    -0.8746 H       
  30 H30           -0.5232     1.8561     0.9089 H       
  31 H31            3.1072    -0.1844     0.1068 H       
  32 H32            2.8081    -0.6414    -1.5909 H       
  33 H33            3.1025     1.8676    -1.1870 H       
  34 H34            1.5924     1.4101    -2.0097 H       
  35 H35           -2.8255     0.1865     0.8436 H       
  36 H36           -4.1421    -1.8733     1.2319 H       
  37 H37           -3.1572    -4.0761     0.9378 H       
  38 H38           -0.8062    -4.3615     0.2376 H       
  39 H39            1.0966     3.7486    -1.1113 H       
  40 H40            0.7538     3.8933     0.6294 H       
  41 H41            2.6239     3.9790     2.2710 H       
  42 H42            4.8863     4.7493     2.6640 H       
  43 H43            8.2969     6.3482     1.3488 H       
  44 H44            6.9840     5.9778     2.4922 H       
  45 H45            8.5356     3.5959     1.3666 H       
  46 H46           10.2893     3.8995     3.1740 H       
  47 H47            9.5559     5.5343     3.6109 H       
  48 H48            7.3541     4.4002     4.1584 H       
  49 H49            8.0875     2.7653     3.7215 H       
@<TRIPOS>BOND
   1    1    2 1
   2    1    6 1
   3    1   29 1
   4    1   30 1
   5    2    3 2
   6    2    8 1
   7    3    4 1
   8    3    7 1
   9    4    5 1
  10    4   31 1
  11    4   32 1
  12    5    6 1
  13    5   33 1
  14    5   34 1
  15    6   14 1
  16    7    9 1
  17    8    9 ar
  18    8   10 ar
  19    9   13 ar
  20   10   11 ar
  21   10   35 1
  22   11   12 ar
  23   11   36 1
  24   12   13 ar
  25   12   37 1
  26   13   38 1
  27   14   17 1
  28   14   39 1
  29   14   40 1
  30   15   16 1
  31   15   20 1
  32   15   22 2
  33   16   17 2
  34   16   28 1
  35   17   18 1
  36   18   19 2
  37   18   41 1
  38   19   20 1
  39   19   42 1
  40   20   23 1
  41   21   22 1
  42   21   23 2
  43   23   24 1
  44   24   25 1
  45   24   43 1
  46   24   44 1
  47   25   26 1
  48   25   27 1
  49   25   45 1
  50   26   27 1
  51   26   46 1
  52   26   47 1
  53   27   48 1
  54   27   49 1

#	End of record

