#	Name: ASD01200510
#	Creating user name:	WinNT
#	Creation time:	15. 06. 2019 19:09

#	Modifying user name:	WinNT
#	Modification time:	15. 06. 2019 19:09

#	Program:	/corina/corina34_cracker 3.40 0067  02.08.2006

@<TRIPOS>MOLECULE
ASD01200510
  29   30    0    0    0
SMALL
NO_CHARGES


@<TRIPOS>ATOM
   1 N1            -0.5402     1.1312    -0.4099 N.ar    
   2 C2            -0.3451    -0.1610    -0.2398 C.ar    
   3 C3             0.8713    -0.7435    -0.5723 C.ar    
   4 C4             1.8853     0.0584    -1.0899 C.ar    
   5 C5             1.6360     1.4116    -1.2522 C.ar    
   6 C6             0.3995     1.9177    -0.8977 C.ar    
   7 N7             1.0749    -2.1154    -0.3894 N.am    
   8 C8             0.1518    -2.8531     0.2588 C.2     
   9 C9             2.2914    -2.7502    -0.9025 C.3     
  10 O10           -0.7977    -2.3088     0.7915 O.2     
  11 C11           -0.7629    -5.1657     0.5044 C.2     
  12 C12            0.2914    -4.3110     0.3223 C.2     
  13 C13            1.5578    -5.0001     0.1988 C.2     
  14 C14            1.4448    -6.3173     0.2863 C.2     
  15 S15           -0.2294    -6.7843     0.5260 S.3     
  16 O16           -2.0519    -4.7777     0.6527 O.3     
  17 C17           -3.0235    -5.8100     0.8332 C.3     
  18 F18           -3.0123    -6.6603    -0.2777 F       
  19 F19           -2.7166    -6.5430     1.9846 F       
  20 H20           -1.1387    -0.7731     0.1624 H       
  21 H21            2.8424    -0.3639    -1.3579 H       
  22 H22            2.3993     2.0636    -1.6506 H       
  23 H23            0.1999     2.9717    -1.0225 H       
  24 H24            3.0374    -2.8002    -0.1094 H       
  25 H25            2.0582    -3.7580    -1.2460 H       
  26 H26            2.6838    -2.1647    -1.7340 H       
  27 H27            2.4994    -4.4924     0.0500 H       
  28 H28            2.2710    -7.0096     0.2188 H       
  29 H29           -4.0123    -5.3638     0.9393 H       
@<TRIPOS>BOND
   1    1    2 ar
   2    1    6 ar
   3    2    3 ar
   4    2   20 1
   5    3    4 ar
   6    3    7 1
   7    4    5 ar
   8    4   21 1
   9    5    6 ar
  10    5   22 1
  11    6   23 1
  12    7    8 am
  13    7    9 1
  14    8   10 2
  15    8   12 1
  16    9   24 1
  17    9   25 1
  18    9   26 1
  19   11   12 2
  20   11   15 1
  21   11   16 1
  22   12   13 1
  23   13   14 2
  24   13   27 1
  25   14   15 1
  26   14   28 1
  27   16   17 1
  28   17   18 1
  29   17   19 1
  30   17   29 1

#	End of record

