#	Name: ASD03082097
#	Creating user name:	WinNT
#	Creation time:	15. 06. 2019 20:27

#	Modifying user name:	WinNT
#	Modification time:	15. 06. 2019 20:27

#	Program:	/corina/corina34_cracker 3.40 0067  02.08.2006

@<TRIPOS>MOLECULE
ASD03082097
  72   76    0    0    0
SMALL
NO_CHARGES


@<TRIPOS>ATOM
   1 C1             0.4568     1.4927    -0.0243 C.3     
   2 O2             0.3640     0.0669    -0.0054 O.3     
   3 C3            -0.9605    -0.4266     0.2049 C.3     
   4 C4            -0.9408    -1.9335     0.2064 C.2     
   5 C5             1.9118     1.9061    -0.2550 C.3     
   6 C6             2.3573     1.4530    -1.6481 C.3     
   7 C7             3.7937     1.9227    -1.8939 C.3     
   8 C8             3.8596     3.4447    -1.7477 C.3     
   9 N9             3.4246     3.8274    -0.3984 N.3     
  10 C10            2.0322     3.4285    -0.1563 C.3     
  11 C11            3.6058     5.2680    -0.1756 C.3     
  12 C12            2.6657     6.0487    -1.0963 C.3     
  13 C13            2.8544     7.5492    -0.8642 C.3     
  14 C14            1.9284     8.3181    -1.7710 C.ar    
  15 C15            0.6561     8.6467    -1.3418 C.ar    
  16 C16           -0.1933     9.3520    -2.1736 C.ar    
  17 C17            0.2297     9.7291    -3.4345 C.ar    
  18 C18            1.5023     9.4013    -3.8634 C.ar    
  19 C19            2.3532     8.6997    -3.0299 C.ar    
  20 N20           -1.9891    -2.7475     0.3737 N.2     
  21 N21           -1.5832    -3.9667     0.3136 N.2     
  22 N22           -0.3122    -4.0022     0.1139 N.pl3   
  23 C23            0.1401    -2.7294     0.0329 C.2     
  24 C24            0.5038    -5.2126    -0.0100 C.3     
  25 C25            0.3066    -6.0781     1.2078 C.ar    
  26 C26           -0.5302    -7.1739     1.1490 C.ar    
  27 C27           -0.7117    -7.9696     2.2660 C.ar    
  28 C28           -0.0568    -7.6718     3.4472 C.ar    
  29 C29            0.7822    -6.5779     3.5174 C.ar    
  30 C30            0.9735    -5.7768     2.3938 C.ar    
  31 C31            1.8745    -4.5998     2.4631 C.ar    
  32 C32            1.6509    -3.6028     3.4104 C.ar    
  33 C33            2.4921    -2.5102     3.4703 C.ar    
  34 C34            3.5556    -2.4040     2.5923 C.ar    
  35 C35            3.7820    -3.3906     1.6496 C.ar    
  36 C36            2.9507    -4.4905     1.5848 C.ar    
  37 H37           -0.1646     1.8866    -0.8285 H       
  38 H38            0.1125     1.8920     0.9297 H       
  39 H39           -1.3342    -0.0672     1.1637 H       
  40 H40           -1.6113    -0.0725    -0.5945 H       
  41 H41            2.5462     1.4406     0.4993 H       
  42 H42            2.3143     0.3655    -1.7085 H       
  43 H43            1.6984     1.8868    -2.4002 H       
  44 H44            4.4582     1.4581    -1.1655 H       
  45 H45            4.1018     1.6402    -2.9005 H       
  46 H46            4.8839     3.7810    -1.9081 H       
  47 H47            3.2054     3.9091    -2.4856 H       
  48 H48            1.3865     3.8930    -0.9016 H       
  49 H49            1.7293     3.7530     0.8392 H       
  50 H50            3.3778     5.5066     0.8633 H       
  51 H51            4.6380     5.5423    -0.3933 H       
  52 H52            2.8936     5.8102    -2.1351 H       
  53 H53            1.6334     5.7744    -0.8786 H       
  54 H54            2.6265     7.7877     0.1746 H       
  55 H55            3.8866     7.8235    -1.0819 H       
  56 H56            0.3257     8.3521    -0.3567 H       
  57 H57           -1.1875     9.6081    -1.8385 H       
  58 H58           -0.4342    10.2795    -4.0846 H       
  59 H59            1.8326     9.6956    -4.8486 H       
  60 H60            3.3475     8.4436    -3.3650 H       
  61 H61            1.1596    -2.4125    -0.1299 H       
  62 H62            0.2026    -5.7643    -0.9005 H       
  63 H63            1.5547    -4.9355    -0.0925 H       
  64 H64           -1.0445    -7.4105     0.2293 H       
  65 H65           -1.3675    -8.8262     2.2156 H       
  66 H66           -0.2024    -8.2961     4.3164 H       
  67 H67            1.2925    -6.3459     4.4405 H       
  68 H68            0.8206    -3.6846     4.0962 H       
  69 H69            2.3195    -1.7367     4.2040 H       
  70 H70            4.2114    -1.5474     2.6427 H       
  71 H71            4.6134    -3.3023     0.9659 H       
  72 H72            3.1284    -5.2603     0.8484 H       
@<TRIPOS>BOND
   1    1    2 1
   2    1    5 1
   3    1   37 1
   4    1   38 1
   5    2    3 1
   6    3    4 1
   7    3   39 1
   8    3   40 1
   9    4   20 1
  10    4   23 2
  11    5    6 1
  12    5   10 1
  13    5   41 1
  14    6    7 1
  15    6   42 1
  16    6   43 1
  17    7    8 1
  18    7   44 1
  19    7   45 1
  20    8    9 1
  21    8   46 1
  22    8   47 1
  23    9   10 1
  24    9   11 1
  25   10   48 1
  26   10   49 1
  27   11   12 1
  28   11   50 1
  29   11   51 1
  30   12   13 1
  31   12   52 1
  32   12   53 1
  33   13   14 1
  34   13   54 1
  35   13   55 1
  36   14   15 ar
  37   14   19 ar
  38   15   16 ar
  39   15   56 1
  40   16   17 ar
  41   16   57 1
  42   17   18 ar
  43   17   58 1
  44   18   19 ar
  45   18   59 1
  46   19   60 1
  47   20   21 2
  48   21   22 1
  49   22   23 1
  50   22   24 1
  51   23   61 1
  52   24   25 1
  53   24   62 1
  54   24   63 1
  55   25   26 ar
  56   25   30 ar
  57   26   27 ar
  58   26   64 1
  59   27   28 ar
  60   27   65 1
  61   28   29 ar
  62   28   66 1
  63   29   30 ar
  64   29   67 1
  65   30   31 1
  66   31   32 ar
  67   31   36 ar
  68   32   33 ar
  69   32   68 1
  70   33   34 ar
  71   33   69 1
  72   34   35 ar
  73   34   70 1
  74   35   36 ar
  75   35   71 1
  76   36   72 1

#	End of record

