#	Name: ASD00170626
#	Creating user name:	WinNT
#	Creation time:	15. 06. 2019 18:32

#	Modifying user name:	WinNT
#	Modification time:	15. 06. 2019 18:32

#	Program:	/corina/corina34_cracker 3.40 0067  02.08.2006

@<TRIPOS>MOLECULE
ASD00170626
  31   33    0    0    0
SMALL
NO_CHARGES


@<TRIPOS>ATOM
   1 C1            -0.0133     1.2154     0.0032 C.2     
   2 O2             0.5041     0.8905     1.0570 O.2     
   3 C3             1.9066     0.2826    -1.2792 C.ar    
   4 C4             0.6403     0.8753    -1.2757 C.ar    
   5 C5            -0.0058     1.1448    -2.4859 C.ar    
   6 C6             0.6035     0.8273    -3.6724 C.ar    
   7 C7             1.8651     0.2369    -3.6729 C.ar    
   8 C8             2.5112    -0.0327    -2.4687 C.ar    
   9 S9             2.6449    -0.1702    -5.1996 S.3     
  10 Br10           3.7518     1.6231    -5.6732 Br      
  11 C11           -3.5964     2.1410    -0.0847 C.2     
  12 C12           -2.5855     1.2789    -0.1103 C.2     
  13 C13           -1.2863     1.9379     0.0051 C.2     
  14 C14           -1.3800     3.2982     0.1150 C.2     
  15 S15           -3.0065     3.7944     0.0820 S.3     
  16 C16           -3.1106    -0.1469    -0.2542 C.3     
  17 C17           -4.5593     0.0129    -0.7571 C.3     
  18 C18           -4.9259     1.4069    -0.2139 C.3     
  19 N19           -0.3016     4.1518     0.2372 N.pl3   
  20 H20            2.4099     0.0773    -0.3460 H       
  21 H21           -0.9841     1.6023    -2.4862 H       
  22 H22            0.1047     1.0350    -4.6076 H       
  23 H23            3.4895    -0.4903    -2.4720 H       
  24 H24           -2.5154    -0.6985    -0.9818 H       
  25 H25           -3.0980    -0.6547     0.7103 H       
  26 H26           -4.5984    -0.0007    -1.8464 H       
  27 H27           -5.2064    -0.7560    -0.3350 H       
  28 H28           -5.4039     1.3138     0.7613 H       
  29 H29           -5.5816     1.9296    -0.9102 H       
  30 H30            0.5948     3.7914     0.3243 H       
  31 H31           -0.4403     5.1118     0.2359 H       
@<TRIPOS>BOND
   1    1    2 2
   2    1    4 1
   3    1   13 1
   4    3    4 ar
   5    3    8 ar
   6    3   20 1
   7    4    5 ar
   8    5    6 ar
   9    5   21 1
  10    6    7 ar
  11    6   22 1
  12    7    8 ar
  13    7    9 1
  14    8   23 1
  15    9   10 1
  16   11   12 2
  17   11   15 1
  18   11   18 1
  19   12   13 1
  20   12   16 1
  21   13   14 2
  22   14   15 1
  23   14   19 1
  24   16   17 1
  25   16   24 1
  26   16   25 1
  27   17   18 1
  28   17   26 1
  29   17   27 1
  30   18   28 1
  31   18   29 1
  32   19   30 1
  33   19   31 1

#	End of record

