#	Name: ASD03091792
#	Creating user name:	WinNT
#	Creation time:	15. 06. 2019 20:31

#	Modifying user name:	WinNT
#	Modification time:	15. 06. 2019 20:31

#	Program:	/corina/corina34_cracker 3.40 0067  02.08.2006

@<TRIPOS>MOLECULE
ASD03091792
  33   35    0    0    0
SMALL
NO_CHARGES


@<TRIPOS>ATOM
   1 C1            -0.0108     1.4643    -0.0359 C.3     
   2 C2             0.0642    -0.0623    -0.1085 C.3     
   3 N3             0.7618    -0.5764     1.0771 N.3     
   4 C4             0.0364    -0.2371     2.3079 C.3     
   5 C5            -0.0400     1.2841     2.4544 C.3     
   6 C6             1.3789     1.8580     2.5289 C.3     
   7 N7             2.0580     1.6055     1.2507 N.am    
   8 C8             1.4087     2.0401     0.0064 C.3     
   9 C9             3.2546     0.9861     1.2201 C.2     
  10 O10            3.7525     0.6768     0.1538 O.2     
  11 C11            3.9571     0.6847     2.4729 C.2     
  12 C12            5.0930    -0.0563     2.5871 C.2     
  13 C13           -0.7572     1.8751     1.2369 C.3     
  14 O14            3.5874     1.1009     3.7014 O.3     
  15 C15            4.4507     0.6459     4.6139 C.2     
  16 C16            5.4191    -0.0894     3.9658 C.2     
  17 C17            6.5348    -0.7561     4.5670 C.1     
  18 N18            7.4199    -1.2849     5.0438 N.1     
  19 H19           -0.5339     1.8463    -0.9125 H       
  20 H20           -0.9444    -0.4741    -0.1433 H       
  21 H21            0.6078    -0.3570    -1.0060 H       
  22 H22            0.9087    -1.5721     1.0067 H       
  23 H23           -0.9720    -0.6483     2.2602 H       
  24 H24            0.5599    -0.6586     3.1659 H       
  25 H25           -0.5844     1.5365     3.3644 H       
  26 H26            1.3299     2.9316     2.7109 H       
  27 H27            1.9275     1.3729     3.3363 H       
  28 H28            1.9769     1.6749    -0.8491 H       
  29 H29            1.3624     3.1287    -0.0208 H       
  30 H30            5.6393    -0.5276     1.7835 H       
  31 H31           -0.7722     2.9622     1.3154 H       
  32 H32           -1.7791     1.4979     1.1976 H       
  33 H33            4.3996     0.8257     5.6776 H       
@<TRIPOS>BOND
   1    1    2 1
   2    1    8 1
   3    1   13 1
   4    1   19 1
   5    2    3 1
   6    2   20 1
   7    2   21 1
   8    3    4 1
   9    3   22 1
  10    4    5 1
  11    4   23 1
  12    4   24 1
  13    5    6 1
  14    5   13 1
  15    5   25 1
  16    6    7 1
  17    6   26 1
  18    6   27 1
  19    7    8 1
  20    7    9 am
  21    8   28 1
  22    8   29 1
  23    9   10 2
  24    9   11 1
  25   11   12 2
  26   11   14 1
  27   12   16 1
  28   12   30 1
  29   13   31 1
  30   13   32 1
  31   14   15 1
  32   15   16 2
  33   15   33 1
  34   16   17 1
  35   17   18 3

#	End of record

