#	Name: ASD02198584
#	Creating user name:	WinNT
#	Creation time:	15. 06. 2019 20:19

#	Modifying user name:	WinNT
#	Modification time:	15. 06. 2019 20:19

#	Program:	/corina/corina34_cracker 3.40 0067  02.08.2006

@<TRIPOS>MOLECULE
ASD02198584
  59   63    0    0    0
SMALL
NO_CHARGES


@<TRIPOS>ATOM
   1 C1             0.0072     1.5097     0.1334 C.2     
   2 C2             0.0745     0.1697    -0.0948 C.2     
   3 N3            -1.0519    -0.5606    -0.2646 N.pl3   
   4 N4            -2.2299    -0.0572    -0.2238 N.2     
   5 C5            -2.4376     1.2257    -0.0109 C.2     
   6 C6            -1.2792     2.1066     0.1922 C.2     
   7 C7            -0.9243    -1.9341    -0.4967 C.ar    
   8 C8            -1.3837    -3.8648    -1.8488 C.ar    
   9 C9            -0.6711    -4.6546    -0.9563 C.ar    
  10 C10           -0.0904    -4.0821     0.1686 C.ar    
  11 C11           -0.2167    -2.7274     0.3979 C.ar    
  12 C12           -3.8108     1.7686     0.0285 C.2     
  13 N13           -4.3732     2.4812     1.0500 N.pl3   
  14 N14           -5.6848     2.7997     0.6765 N.2     
  15 C15           -5.9148     2.3070    -0.5144 C.2     
  16 C16           -4.7638     1.6569    -0.9600 C.2     
  17 C17           -3.7497     2.8300     2.2548 C.ar    
  18 C18           -2.9566     1.9051     2.9211 C.ar    
  19 O19           -1.4172     3.3046     0.3934 O.2     
  20 C20           -3.9188     4.1033     2.7826 C.ar    
  21 C21           -3.3027     4.4442     3.9707 C.ar    
  22 C22           -2.5178     3.5192     4.6345 C.ar    
  23 C23           -2.3432     2.2521     4.1089 C.ar    
  24 C24           -1.5108    -2.5076    -1.6210 C.ar    
  25 F25           -2.2042    -1.7385    -2.4886 F       
  26 O26            1.1344     2.2509     0.3051 O.3     
  27 C27            2.3828     1.5591     0.2346 C.3     
  28 N28           -0.5427    -6.0308    -1.1871 N.pl3   
  29 C29            0.5393    -6.7818    -0.8937 C.2     
  30 N30           -1.5168    -6.8588    -1.7552 N.2     
  31 C31           -1.0590    -8.0774    -1.8192 C.2     
  32 C32            0.2508    -8.0859    -1.2825 C.2     
  33 O33            1.6893    -6.3478    -0.3278 O.3     
  34 C34            1.1364    -9.2494    -1.1600 C.2     
  35 O35            0.7205   -10.4606    -1.5819 O.3     
  36 O36            2.2454    -9.1213    -0.6780 O.2     
  37 C37            1.6493   -11.5663    -1.4298 C.3     
  38 C38            1.0060   -12.8493    -1.9599 C.3     
  39 H39            1.0379    -0.3162    -0.1413 H       
  40 H40           -1.8346    -4.3103    -2.7232 H       
  41 H41            0.4636    -4.6974     0.8621 H       
  42 H42            0.2349    -2.2836     1.2728 H       
  43 H43           -6.8411     2.3931    -1.0629 H       
  44 H44           -4.6435     1.1515    -1.9068 H       
  45 H45           -2.8198     0.9154     2.5111 H       
  46 H46           -4.5311     4.8264     2.2643 H       
  47 H47           -3.4339     5.4343     4.3817 H       
  48 H48           -2.0368     3.7883     5.5633 H       
  49 H49           -1.7299     1.5318     4.6298 H       
  50 H50            3.1988     2.2653     0.3880 H       
  51 H51            2.4168     0.7912     1.0073 H       
  52 H52            2.4851     1.0931    -0.7455 H       
  53 H53           -1.5885    -8.9332    -2.2111 H       
  54 H54            1.6915    -6.3868     0.6384 H       
  55 H55            2.5590   -11.3567    -1.9923 H       
  56 H56            1.8949   -11.6920    -0.3753 H       
  57 H57            0.0962   -13.0589    -1.3974 H       
  58 H58            0.7603   -12.7236    -3.0144 H       
  59 H59            1.7031   -13.6793    -1.8457 H       
@<TRIPOS>BOND
   1    1    2 2
   2    1   26 1
   3    1    6 1
   4    2    3 1
   5    2   39 1
   6    3    4 1
   7    3    7 1
   8    4    5 2
   9    5    6 1
  10    5   12 1
  11    6   19 2
  12    7   24 ar
  13    7   11 ar
  14    8    9 ar
  15    8   24 ar
  16    8   40 1
  17    9   10 ar
  18    9   28 1
  19   10   11 ar
  20   10   41 1
  21   11   42 1
  22   12   13 1
  23   12   16 2
  24   13   14 1
  25   13   17 1
  26   14   15 2
  27   15   16 1
  28   15   43 1
  29   16   44 1
  30   17   20 ar
  31   17   18 ar
  32   18   23 ar
  33   18   45 1
  34   20   21 ar
  35   20   46 1
  36   21   22 ar
  37   21   47 1
  38   22   23 ar
  39   22   48 1
  40   23   49 1
  41   24   25 1
  42   26   27 1
  43   27   50 1
  44   27   51 1
  45   27   52 1
  46   28   29 1
  47   28   30 1
  48   29   33 1
  49   29   32 2
  50   30   31 2
  51   31   32 1
  52   31   53 1
  53   32   34 1
  54   33   54 1
  55   34   35 1
  56   34   36 2
  57   35   37 1
  58   37   38 1
  59   37   55 1
  60   37   56 1
  61   38   57 1
  62   38   58 1
  63   38   59 1

#	End of record

