#	Name: ASD03331502
#	Creating user name:	WinNT
#	Creation time:	15. 06. 2019 20:39

#	Modifying user name:	WinNT
#	Modification time:	15. 06. 2019 20:39

#	Program:	/corina/corina34_cracker 3.40 0067  02.08.2006

@<TRIPOS>MOLECULE
ASD03331502
  68   71    0    0    0
SMALL
NO_CHARGES


@<TRIPOS>ATOM
   1 C1             0.4195     1.6524    -1.2442 C.ar    
   2 C2             0.5531     0.3104    -1.5338 C.ar    
   3 C3             1.5942    -0.4195    -0.9849 C.ar    
   4 C4             2.5070     0.1919    -0.1427 C.ar    
   5 C5             2.3839     1.5347     0.1549 C.ar    
   6 C6             1.3360     2.2752    -0.3960 C.ar    
   7 C7             1.1984     3.7138    -0.0821 C.2     
   8 Cl8            3.5288     2.3002     1.2116 Cl      
   9 C9             2.1898     4.6386    -0.1489 C.2     
  10 N10            0.0430     4.3413     0.3210 N.pl3   
  11 C11            0.2981     5.6584     0.5158 C.2     
  12 C12           -1.1996     3.7188     0.5012 C.ar    
  13 C13           -1.3662     2.7771     1.5078 C.ar    
  14 C14           -2.5917     2.1650     1.6833 C.ar    
  15 C15           -3.6531     2.4892     0.8566 C.ar    
  16 C16           -3.4895     3.4271    -0.1477 C.ar    
  17 C17           -2.2677     4.0468    -0.3230 C.ar    
  18 C18            1.6281     5.8847     0.2330 C.2     
  19 C19            2.3322     7.1763     0.3090 C.2     
  20 N20            3.2209     7.5165    -0.6455 N.am    
  21 C21            4.0164     8.7457    -0.5238 C.3     
  22 C22            3.8350     9.5785    -1.7967 C.3     
  23 C23            4.1842     8.7220    -3.0159 C.3     
  24 C24            3.2383     7.5209    -3.0856 C.3     
  25 C25            3.4170     6.6620    -1.8245 C.3     
  26 C26            4.0396     9.5482    -4.2679 C.2     
  27 O27            2.1117     7.9357     1.2330 O.2     
  28 N28            4.2970     8.9988    -5.4714 N.am    
  29 O29            3.6916    10.7076    -4.1926 O.2     
  30 Cl30           1.7549    -2.1081    -1.3540 Cl      
  31 Cl31          -5.1921     1.7176     1.0794 Cl      
  32 C32           -0.7003     6.6961     0.9602 C.3     
  33 C33           -0.7041     6.7789     2.4880 C.3     
  34 C34           -1.7177     7.8324     2.9391 C.3     
  35 O35           -1.7212     7.9097     4.3660 O.3     
  36 C36            4.1565     9.8019    -6.6885 C.3     
  37 C37            4.5056     8.9459    -7.9076 C.3     
  38 O38            3.5504     7.8911    -8.0383 O.3     
  39 H39           -0.3904     2.2211    -1.6767 H       
  40 H40           -0.1560    -0.1723    -2.1899 H       
  41 H41            3.3166    -0.3825     0.2828 H       
  42 H42            3.2147     4.4595    -0.4384 H       
  43 H43           -0.5379     2.5232     2.1528 H       
  44 H44           -2.7217     1.4324     2.4662 H       
  45 H45           -4.3192     3.6782    -0.7918 H       
  46 H46           -2.1406     4.7790    -1.1066 H       
  47 H47            3.6751     9.3179     0.3389 H       
  48 H48            5.0687     8.4894    -0.4017 H       
  49 H49            2.7993     9.9103    -1.8698 H       
  50 H50            4.4938    10.4461    -1.7608 H       
  51 H51            5.2122     8.3701    -2.9300 H       
  52 H52            2.2082     7.8722    -3.1466 H       
  53 H53            3.4725     6.9241    -3.9671 H       
  54 H54            4.4205     6.2366    -1.8113 H       
  55 H55            2.6781     5.8606    -1.8205 H       
  56 H56            4.5754     8.0715    -5.5317 H       
  57 H57           -0.4261     7.6657     0.5445 H       
  58 H58           -1.6940     6.4181     0.6090 H       
  59 H59           -0.9783     5.8093     2.9037 H       
  60 H60            0.2896     7.0569     2.8392 H       
  61 H61           -1.4435     8.8019     2.5234 H       
  62 H62           -2.7114     7.5544     2.5879 H       
  63 H63           -2.3422     8.5592     4.7232 H       
  64 H64            3.1287    10.1546    -6.7744 H       
  65 H65            4.8310    10.6568    -6.6396 H       
  66 H66            4.4874     9.5657    -8.8040 H       
  67 H67            5.5011     8.5207    -7.7800 H       
  68 H68            3.7100     7.3071    -8.7923 H       
@<TRIPOS>BOND
   1    1    2 ar
   2    1    6 ar
   3    1   39 1
   4    2    3 ar
   5    2   40 1
   6    3    4 ar
   7    3   30 1
   8    4    5 ar
   9    4   41 1
  10    5    6 ar
  11    5    8 1
  12    6    7 1
  13    7   10 1
  14    7    9 2
  15    9   18 1
  16    9   42 1
  17   10   11 1
  18   10   12 1
  19   11   18 2
  20   11   32 1
  21   12   13 ar
  22   12   17 ar
  23   13   14 ar
  24   13   43 1
  25   14   15 ar
  26   14   44 1
  27   15   16 ar
  28   15   31 1
  29   16   17 ar
  30   16   45 1
  31   17   46 1
  32   18   19 1
  33   19   20 am
  34   19   27 2
  35   20   21 1
  36   20   25 1
  37   21   22 1
  38   21   47 1
  39   21   48 1
  40   22   23 1
  41   22   49 1
  42   22   50 1
  43   23   24 1
  44   23   26 1
  45   23   51 1
  46   24   25 1
  47   24   52 1
  48   24   53 1
  49   25   54 1
  50   25   55 1
  51   26   28 am
  52   26   29 2
  53   28   36 1
  54   28   56 1
  55   32   33 1
  56   32   57 1
  57   32   58 1
  58   33   34 1
  59   33   59 1
  60   33   60 1
  61   34   35 1
  62   34   61 1
  63   34   62 1
  64   35   63 1
  65   36   37 1
  66   36   64 1
  67   36   65 1
  68   37   38 1
  69   37   66 1
  70   37   67 1
  71   38   68 1

#	End of record

