#	Name: ASD01812748
#	Creating user name:	WinNT
#	Creation time:	15. 06. 2019 19:29

#	Modifying user name:	WinNT
#	Modification time:	15. 06. 2019 19:29

#	Program:	/corina/corina34_cracker 3.40 0067  02.08.2006

@<TRIPOS>MOLECULE
ASD01812748
  56   60    0    0    0
SMALL
NO_CHARGES


@<TRIPOS>ATOM
   1 C1             0.0576     1.4304    -0.6145 C.ar    
   2 C2             0.1013     0.0681    -0.8344 C.ar    
   3 C3             1.2833    -0.6330    -0.6482 C.ar    
   4 C4             2.4191     0.0258    -0.2438 C.ar    
   5 C5             2.3933     1.4052    -0.0169 C.ar    
   6 C6             1.1963     2.1093    -0.2060 C.ar    
   7 C7             3.8294    -0.4261     0.0428 C.3     
   8 N8             4.5723     0.7763     0.4377 N.am    
   9 C9             3.7391     1.8304     0.4016 C.2     
  10 C10            5.9884     0.8203     0.8103 C.3     
  11 C11            6.8241     1.0650    -0.4197 C.ar    
  12 C12            7.1224     2.3599    -0.8037 C.ar    
  13 C13            7.8874     2.5897    -1.9293 C.ar    
  14 C14            8.3592     1.5145    -2.6792 C.ar    
  15 C15            8.0557     0.2122    -2.2879 C.ar    
  16 C16            7.2947    -0.0063    -1.1574 C.ar    
  17 O17            1.1515     3.4479     0.0091 O.3     
  18 O18            4.0524     2.9728     0.6761 O.2     
  19 C19           -0.1276     4.0779    -0.0868 C.3     
  20 C20           -0.1314     5.3599     0.7516 C.3     
  21 C21           -1.4777     6.0684     0.5802 C.3     
  22 O22           -1.6961     6.3448    -0.8047 O.3     
  23 C23           -1.7496     5.1800    -1.6308 C.3     
  24 C24           -0.4142     4.4358    -1.5483 C.3     
  25 O25            0.0631     5.0306     2.1285 O.3     
  26 C26            9.1818     1.7555    -3.8909 C.2     
  27 N27            9.5413     2.9310    -4.3616 N.2     
  28 C28            9.7208     0.7666    -4.7367 C.2     
  29 C29           10.4030     1.3910    -5.7214 C.2     
  30 N30           10.3086     2.7221    -5.5146 N.pl3   
  31 C31           10.9079     3.7663    -6.3493 C.3     
  32 H32           -0.8654     1.9703    -0.7655 H       
  33 H33           -0.7890    -0.4540    -1.1523 H       
  34 H34            1.3109    -1.6987    -0.8212 H       
  35 H35            3.8323    -1.1522     0.8557 H       
  36 H36            4.2721    -0.8630    -0.8522 H       
  37 H37            6.1509     1.6261     1.5261 H       
  38 H38            6.2752    -0.1297     1.2613 H       
  39 H39            6.7559     3.1927    -0.2218 H       
  40 H40            8.1195     3.6012    -2.2284 H       
  41 H41            8.4186    -0.6248    -2.8659 H       
  42 H42            7.0625    -1.0154    -0.8507 H       
  43 H43           -0.8979     3.3998     0.2804 H       
  44 H44            0.6712     6.0168     0.4163 H       
  45 H45           -2.2761     5.4269     0.9532 H       
  46 H46           -1.4705     7.0032     1.1407 H       
  47 H47           -2.5515     4.5269    -1.2868 H       
  48 H48           -1.9382     5.4748    -2.6631 H       
  49 H49            0.3827     5.0740    -1.9300 H       
  50 H50           -0.4681     3.5238    -2.1428 H       
  51 H51            0.0716     5.7966     2.7186 H       
  52 H52            9.6088    -0.3010    -4.6187 H       
  53 H53           10.9327     0.9100    -6.5303 H       
  54 H54           11.9092     3.9937    -5.9836 H       
  55 H55           10.9681     3.4175    -7.3802 H       
  56 H56           10.2922     4.6647    -6.3051 H       
@<TRIPOS>BOND
   1    1    2 ar
   2    1    6 ar
   3    1   32 1
   4    2    3 ar
   5    2   33 1
   6    3    4 ar
   7    3   34 1
   8    4    7 1
   9    4    5 ar
  10    5    6 ar
  11    5    9 1
  12    6   17 1
  13    7    8 1
  14    7   35 1
  15    7   36 1
  16    8    9 am
  17    8   10 1
  18    9   18 2
  19   10   11 1
  20   10   37 1
  21   10   38 1
  22   11   12 ar
  23   11   16 ar
  24   12   13 ar
  25   12   39 1
  26   13   14 ar
  27   13   40 1
  28   14   15 ar
  29   14   26 1
  30   15   16 ar
  31   15   41 1
  32   16   42 1
  33   17   19 1
  34   19   20 1
  35   19   24 1
  36   19   43 1
  37   20   21 1
  38   20   25 1
  39   20   44 1
  40   21   22 1
  41   21   45 1
  42   21   46 1
  43   22   23 1
  44   23   24 1
  45   23   47 1
  46   23   48 1
  47   24   49 1
  48   24   50 1
  49   25   51 1
  50   26   28 1
  51   26   27 2
  52   27   30 1
  53   28   29 2
  54   28   52 1
  55   29   30 1
  56   29   53 1
  57   30   31 1
  58   31   54 1
  59   31   55 1
  60   31   56 1

#	End of record

