#	Name: ASD01520004
#	Creating user name:	WinNT
#	Creation time:	15. 06. 2019 19:21

#	Modifying user name:	WinNT
#	Modification time:	15. 06. 2019 19:21

#	Program:	/corina/corina34_cracker 3.40 0067  02.08.2006

@<TRIPOS>MOLECULE
ASD01520004
  53   52    0    0    0
SMALL
NO_CHARGES


@<TRIPOS>ATOM
   1 C1            -0.0184     1.5028     0.0103 C.2     
   2 C2             0.0021    -0.0041     0.0020 C.3     
   3 C3             1.4513    -0.4944    -0.0145 C.3     
   4 C4             1.4720    -2.0242    -0.0229 C.3     
   5 C5             2.9213    -2.5145    -0.0393 C.3     
   6 C6             2.9420    -4.0444    -0.0478 C.3     
   7 C7             4.3912    -4.5347    -0.0642 C.3     
   8 C8             4.4120    -6.0645    -0.0726 C.3     
   9 C9             5.8394    -6.5474    -0.0889 C.2     
  10 C10            6.2661    -7.3906     0.8452 C.2     
  11 C11            7.6596    -7.8621     0.8293 C.2     
  12 C12            8.0864    -8.7052     1.7634 C.2     
  13 C13            9.5138    -9.1881     1.7472 C.3     
  14 C14           10.2047    -8.7811     3.0502 C.3     
  15 C15           11.6853    -9.1608     2.9825 C.3     
  16 C16           12.3763    -8.7538     4.2855 C.3     
  17 C17           13.8568    -9.1335     4.2179 C.3     
  18 C18           14.5478    -8.7265     5.5209 C.3     
  19 O19            1.0197     2.1211     0.0037 O.2     
  20 O20           -1.1898     2.1580     0.0194 O.3     
  21 O21            9.5337   -10.6115     1.6219 O.3     
  22 H22           -0.4983    -0.3791     0.8948 H       
  23 H23           -0.5153    -0.3696    -0.8850 H       
  24 H24            1.9516    -0.1193    -0.9073 H       
  25 H25            1.9686    -0.1289     0.8726 H       
  26 H26            0.9717    -2.3993     0.8699 H       
  27 H27            0.9547    -2.3897    -0.9099 H       
  28 H28            3.4216    -2.1395    -0.9321 H       
  29 H29            3.4386    -2.1490     0.8477 H       
  30 H30            2.4417    -4.4194     0.8450 H       
  31 H31            2.4247    -4.4099    -0.9348 H       
  32 H32            4.8916    -4.1596    -0.9570 H       
  33 H33            4.9085    -4.1692     0.8228 H       
  34 H34            3.9116    -6.4396     0.8202 H       
  35 H35            3.8946    -6.4300    -0.9597 H       
  36 H36            6.5155    -6.2082    -0.8597 H       
  37 H37            5.5900    -7.7298     1.6160 H       
  38 H38            8.3357    -7.5228     0.0585 H       
  39 H39            7.4102    -9.0444     2.5342 H       
  40 H40           10.0388    -8.7417     0.9027 H       
  41 H41           10.1119    -7.7041     3.1896 H       
  42 H42            9.7350    -9.2977     3.8872 H       
  43 H43           11.7782   -10.2379     2.8431 H       
  44 H44           12.1550    -8.6443     2.1455 H       
  45 H45           12.2834    -7.6768     4.4250 H       
  46 H46           11.9066    -9.2704     5.1226 H       
  47 H47           13.9497   -10.2106     4.0784 H       
  48 H48           14.3265    -8.6170     3.3808 H       
  49 H49           14.4549    -7.6495     5.6604 H       
  50 H50           14.0781    -9.2431     6.3579 H       
  51 H51           15.6026    -8.9970     5.4727 H       
  52 H52           -1.1523     3.1243     0.0245 H       
  53 H53            9.0835   -11.0759     2.3407 H       
@<TRIPOS>BOND
   1    1    2 1
   2    1   19 2
   3    1   20 1
   4    2    3 1
   5    2   22 1
   6    2   23 1
   7    3    4 1
   8    3   24 1
   9    3   25 1
  10    4    5 1
  11    4   26 1
  12    4   27 1
  13    5    6 1
  14    5   28 1
  15    5   29 1
  16    6    7 1
  17    6   30 1
  18    6   31 1
  19    7    8 1
  20    7   32 1
  21    7   33 1
  22    8    9 1
  23    8   34 1
  24    8   35 1
  25    9   10 2
  26    9   36 1
  27   10   11 1
  28   10   37 1
  29   11   12 2
  30   11   38 1
  31   12   13 1
  32   12   39 1
  33   13   14 1
  34   13   21 1
  35   13   40 1
  36   14   15 1
  37   14   41 1
  38   14   42 1
  39   15   16 1
  40   15   43 1
  41   15   44 1
  42   16   17 1
  43   16   45 1
  44   16   46 1
  45   17   18 1
  46   17   47 1
  47   17   48 1
  48   18   49 1
  49   18   50 1
  50   18   51 1
  51   20   52 1
  52   21   53 1

#	End of record

