#	Name: ASD03430095
#	Creating user name:	WinNT
#	Creation time:	15. 06. 2019 20:40

#	Modifying user name:	WinNT
#	Modification time:	15. 06. 2019 20:40

#	Program:	/corina/corina34_cracker 3.40 0067  02.08.2006

@<TRIPOS>MOLECULE
ASD03430095
  49   54    0    0    0
SMALL
NO_CHARGES


@<TRIPOS>ATOM
   1 C1            -0.1043     1.4245     0.1429 C.ar    
   2 C2            -0.0776     0.0389     0.1047 C.ar    
   3 C3             1.1262    -0.6308     0.0429 C.ar    
   4 C4             2.3276     0.0713     0.0280 C.ar    
   5 C5             2.2969     1.4618     0.0620 C.ar    
   6 C6             1.0893     2.1366     0.1202 C.ar    
   7 O7             3.3952    -0.7768    -0.0067 O.3     
   8 C8             1.4818    -2.0914    -0.0314 C.3     
   9 C9             2.9572    -2.0739    -0.4544 C.3     
  10 C10            0.3962    -3.8339     1.0176 C.ar    
  11 C11            1.2824    -2.7948     1.2779 C.ar    
  12 C12            0.6283    -2.8365    -1.0171 C.2     
  13 N13            0.0325    -3.8327    -0.3319 N.am    
  14 O14            0.4997    -2.5899    -2.1977 O.2     
  15 C15            1.7818    -2.5980     2.5601 C.ar    
  16 C16            1.3905    -3.4508     3.5952 C.ar    
  17 C17            0.5113    -4.4819     3.3352 C.ar    
  18 C18            0.0163    -4.6762     2.0609 C.ar    
  19 C19            2.7242    -1.4904     2.8274 C.2     
  20 O20           -1.3020     2.0700     0.1965 O.3     
  21 C21           -1.2757     3.4428     0.6023 C.3     
  22 C22           -0.1474     4.1478    -0.1628 C.3     
  23 O23            1.0869     3.4978     0.1583 O.3     
  24 N24            3.9035    -1.7396     3.4304 N.am    
  25 O25            2.4353    -0.3550     2.5033 O.2     
  26 C26           -0.8880    -4.8017    -0.9318 C.3     
  27 C27            4.8372    -0.6422     3.6953 C.3     
  28 C28            5.8334    -0.8236     4.8422 C.3     
  29 C29            6.3170    -0.8850     3.3919 C.3     
  30 H30           -1.0028    -0.5179     0.1239 H       
  31 H31            3.2219     2.0189     0.0436 H       
  32 H32            3.0505    -2.1616    -1.5369 H       
  33 H33            3.5134    -2.8650     0.0484 H       
  34 H34            1.7746    -3.3039     4.5939 H       
  35 H35            0.2082    -5.1422     4.1343 H       
  36 H36           -0.6712    -5.4873     1.8713 H       
  37 H37           -2.2299     3.9142     0.3668 H       
  38 H38           -1.0885     3.5059     1.6742 H       
  39 H39           -0.3307     4.0780    -1.2349 H       
  40 H40           -0.0998     5.1952     0.1352 H       
  41 H41            4.1340    -2.6456     3.6890 H       
  42 H42           -1.9078    -4.4226    -0.8667 H       
  43 H43           -0.6233    -4.9547    -1.9781 H       
  44 H44           -0.8177    -5.7489    -0.3970 H       
  45 H45            4.4455     0.3603     3.5226 H       
  46 H46            6.0975     0.0597     5.4238 H       
  47 H47            5.7942    -1.7594     5.3997 H       
  48 H48            6.5959    -1.8612     2.9953 H       
  49 H49            6.8993    -0.0422     3.0194 H       
@<TRIPOS>BOND
   1    1    2 ar
   2    1    6 ar
   3    1   20 1
   4    2    3 ar
   5    2   30 1
   6    3    4 ar
   7    3    8 1
   8    4    5 ar
   9    4    7 1
  10    5    6 ar
  11    5   31 1
  12    6   23 1
  13    7    9 1
  14    8    9 1
  15    8   11 1
  16    8   12 1
  17    9   32 1
  18    9   33 1
  19   10   11 ar
  20   10   13 1
  21   10   18 ar
  22   11   15 ar
  23   12   13 am
  24   12   14 2
  25   13   26 1
  26   15   16 ar
  27   15   19 1
  28   16   17 ar
  29   16   34 1
  30   17   18 ar
  31   17   35 1
  32   18   36 1
  33   19   24 am
  34   19   25 2
  35   20   21 1
  36   21   22 1
  37   21   37 1
  38   21   38 1
  39   22   23 1
  40   22   39 1
  41   22   40 1
  42   24   27 1
  43   24   41 1
  44   26   42 1
  45   26   43 1
  46   26   44 1
  47   27   28 1
  48   27   29 1
  49   27   45 1
  50   28   29 1
  51   28   46 1
  52   28   47 1
  53   29   48 1
  54   29   49 1

#	End of record

