#	Name: ASD03330693
#	Creating user name:	WinNT
#	Creation time:	15. 06. 2019 20:37

#	Modifying user name:	WinNT
#	Modification time:	15. 06. 2019 20:37

#	Program:	/corina/corina34_cracker 3.40 0067  02.08.2006

@<TRIPOS>MOLECULE
ASD03330693
  65   68    0    0    0
SMALL
NO_CHARGES


@<TRIPOS>ATOM
   1 C1            -0.5226     1.8010    -0.6105 C.2     
   2 N2            -0.6471     0.4684    -0.8502 N.pl3   
   3 C3             0.8097     2.0701    -0.5277 C.2     
   4 N4             1.4775     0.9136    -0.7331 N.2     
   5 C5             0.6113    -0.0520    -0.9332 C.2     
   6 C6             0.9437    -1.4673    -1.2039 C.ar    
   7 C7             1.4149     3.3871    -0.2622 C.2     
   8 O8             0.7047     4.3599    -0.0933 O.2     
   9 C9             3.3573     4.8232     0.0576 C.3     
  10 N10            2.7556     3.5138    -0.2064 N.am    
  11 C11            3.4189     5.0610     1.5678 C.3     
  12 C12            4.2232     3.9395     2.2283 C.3     
  13 C13            4.0951     6.4051     1.8452 C.3     
  14 C14            4.7512     4.8599    -0.5140 C.2     
  15 N15            5.3513     6.0431    -0.7513 N.am    
  16 O16            5.3330     3.8247    -0.7604 O.2     
  17 C17           -1.9139    -0.2574    -0.9775 C.3     
  18 C18           -2.8460     0.5194    -1.9127 C.3     
  19 C19           -3.6440     1.5431    -1.1118 C.3     
  20 N20           -2.8537     2.0742     0.0005 N.3     
  21 C21           -1.6590     2.7822    -0.4830 C.3     
  22 C22            1.8967    -1.7913    -2.1737 C.ar    
  23 C23            0.3117    -2.4846    -0.4884 C.ar    
  24 C24            0.6256    -3.8031    -0.7451 C.ar    
  25 C25            1.5662    -4.1196    -1.7108 C.ar    
  26 C26            2.2021    -3.1160    -2.4213 C.ar    
  27 C27            6.6651     6.0814    -1.3982 C.3     
  28 C28            2.0000     5.0762     2.1399 C.3     
  29 C29           -3.6226     2.8935     0.8086 C.ar    
  30 N30           -3.0667     3.4629     1.8680 N.ar    
  31 N31           -4.8958     3.0942     0.5014 N.ar    
  32 C32           -5.6581     3.8717     1.2524 C.ar    
  33 C33           -5.1098     4.4790     2.3712 C.ar    
  34 C34           -3.7734     4.2517     2.6605 C.ar    
  35 F35            2.5170    -0.8120    -2.8675 F       
  36 Cl36           1.9553    -5.7817    -2.0265 Cl      
  37 H37            2.7529     5.6014    -0.4084 H       
  38 H38            3.3221     2.7380    -0.3411 H       
  39 H39            5.2340     3.9286     1.8206 H       
  40 H40            4.2671     4.1089     3.3041 H       
  41 H41            3.7414     2.9819     2.0306 H       
  42 H42            3.5063     7.2069     1.3997 H       
  43 H43            4.1656     6.5610     2.9217 H       
  44 H44            5.0953     6.4049     1.4119 H       
  45 H45            4.9132     6.8694    -0.4938 H       
  46 H46           -1.7260    -1.2483    -1.3910 H       
  47 H47           -2.3792    -0.3531     0.0035 H       
  48 H48           -2.2538     1.0333    -2.6698 H       
  49 H49           -3.5315    -0.1744    -2.3993 H       
  50 H50           -3.9340     2.3635    -1.7683 H       
  51 H51           -4.5420     1.0674    -0.7174 H       
  52 H52           -1.3872     3.5645     0.2256 H       
  53 H53           -1.8676     3.2267    -1.4561 H       
  54 H54           -0.4220    -2.2401     0.2655 H       
  55 H55            0.1367    -4.5907    -0.1910 H       
  56 H56            2.9349    -3.3690    -3.1733 H       
  57 H57            6.5992     5.6175    -2.3824 H       
  58 H58            6.9872     7.1172    -1.5056 H       
  59 H59            7.3866     5.5380    -0.7880 H       
  60 H60            1.5182     4.1186     1.9423 H       
  61 H61            2.0439     5.2456     3.2158 H       
  62 H62            1.4270     5.8752     1.6694 H       
  63 H63           -6.6951     4.0318     0.9967 H       
  64 H64           -5.7096     5.1188     3.0014 H       
  65 H65           -3.3157     4.7098     3.5248 H       
@<TRIPOS>BOND
   1    1    2 1
   2    1    3 2
   3    1   21 1
   4    2   17 1
   5    2    5 1
   6    3    4 1
   7    3    7 1
   8    4    5 2
   9    5    6 1
  10    6   22 ar
  11    6   23 ar
  12    7    8 2
  13    7   10 am
  14    9   10 1
  15    9   11 1
  16    9   14 1
  17    9   37 1
  18   10   38 1
  19   11   12 1
  20   11   13 1
  21   11   28 1
  22   12   39 1
  23   12   40 1
  24   12   41 1
  25   13   42 1
  26   13   43 1
  27   13   44 1
  28   14   15 am
  29   14   16 2
  30   15   27 1
  31   15   45 1
  32   17   18 1
  33   17   46 1
  34   17   47 1
  35   18   19 1
  36   18   48 1
  37   18   49 1
  38   19   20 1
  39   19   50 1
  40   19   51 1
  41   20   21 1
  42   20   29 1
  43   21   52 1
  44   21   53 1
  45   22   35 1
  46   22   26 ar
  47   23   24 ar
  48   23   54 1
  49   24   25 ar
  50   24   55 1
  51   25   26 ar
  52   25   36 1
  53   26   56 1
  54   27   57 1
  55   27   58 1
  56   27   59 1
  57   28   60 1
  58   28   61 1
  59   28   62 1
  60   29   30 ar
  61   29   31 ar
  62   30   34 ar
  63   31   32 ar
  64   32   33 ar
  65   32   63 1
  66   33   34 ar
  67   33   64 1
  68   34   65 1

#	End of record

