#	Name: ASD02508425
#	Creating user name:	WinNT
#	Creation time:	15. 06. 2019 20:24

#	Modifying user name:	WinNT
#	Modification time:	15. 06. 2019 20:24

#	Program:	/corina/corina34_cracker 3.40 0067  02.08.2006

@<TRIPOS>MOLECULE
ASD02508425
  36   38    0    0    0
SMALL
NO_CHARGES


@<TRIPOS>ATOM
   1 N1             0.5786     1.4600     0.6463 N.2     
   2 C2             0.4352     0.1262     0.6365 C.2     
   3 C3             1.5823    -0.4172     0.1883 C.2     
   4 N4             2.4368     0.6225    -0.0778 N.pl3   
   5 C5             1.7725     1.7700     0.2209 C.2     
   6 C6             3.7440     0.5208    -0.5639 C.ar    
   7 C7             4.4879     1.6735    -0.7839 C.ar    
   8 N8             4.2626    -0.6722    -0.8046 N.ar    
   9 C9             5.4914    -0.8131    -1.2630 C.ar    
  10 C10            6.2861     0.2894    -1.5090 C.ar    
  11 C11            5.7807     1.5589    -1.2648 C.ar    
  12 S12            1.9215    -2.1341    -0.0164 S.o2    
  13 O13            1.6425    -2.4389    -1.3760 O.2     
  14 O14            3.1856    -2.3683     0.5890 O.2     
  15 N15            0.8094    -2.9645     0.8868 N.am    
  16 C16            0.7653    -2.7914     2.2735 C.ar    
  17 C17           -0.4518    -2.5881     2.9107 C.ar    
  18 C18           -0.4929    -2.4179     4.2807 C.ar    
  19 C19            0.6781    -2.4497     5.0189 C.ar    
  20 C20            1.8927    -2.6522     4.3857 C.ar    
  21 C21            1.9381    -2.8282     3.0165 C.ar    
  22 F22            0.6356    -2.2825     6.3588 F       
  23 C23            7.6888     0.1157    -2.0317 C.3     
  24 F24            7.9624    -1.2472    -2.1891 F       
  25 F25            7.8094     0.7612    -3.2670 F       
  26 F26            8.5968     0.6719    -1.1243 F       
  27 H27           -0.4481    -0.4178     0.9370 H       
  28 H28            2.1668     2.7707     0.1226 H       
  29 H29            4.0630     2.6458    -0.5828 H       
  30 H30            5.8813    -1.8031    -1.4479 H       
  31 H31            6.3813     2.4373    -1.4491 H       
  32 H32            0.1884    -3.5710     0.4538 H       
  33 H33           -1.3654    -2.5629     2.3353 H       
  34 H34           -1.4392    -2.2594     4.7766 H       
  35 H35            2.8050    -2.6763     4.9634 H       
  36 H36            2.8857    -2.9862     2.5230 H       
@<TRIPOS>BOND
   1    1    2 1
   2    1    5 2
   3    2    3 2
   4    2   27 1
   5    3    4 1
   6    3   12 1
   7    4    5 1
   8    4    6 1
   9    5   28 1
  10    6    7 ar
  11    6    8 ar
  12    7   11 ar
  13    7   29 1
  14    8    9 ar
  15    9   10 ar
  16    9   30 1
  17   10   11 ar
  18   10   23 1
  19   11   31 1
  20   12   13 2
  21   12   14 2
  22   12   15 am
  23   15   16 1
  24   15   32 1
  25   16   17 ar
  26   16   21 ar
  27   17   18 ar
  28   17   33 1
  29   18   19 ar
  30   18   34 1
  31   19   20 ar
  32   19   22 1
  33   20   21 ar
  34   20   35 1
  35   21   36 1
  36   23   24 1
  37   23   25 1
  38   23   26 1

#	End of record

