#	Name: ASD01913552
#	Creating user name:	WinNT
#	Creation time:	15. 06. 2019 20:01

#	Modifying user name:	WinNT
#	Modification time:	15. 06. 2019 20:01

#	Program:	/corina/corina34_cracker 3.40 0067  02.08.2006

@<TRIPOS>MOLECULE
ASD01913552
  34   36    0    0    0
SMALL
NO_CHARGES


@<TRIPOS>ATOM
   1 C1             0.5546     0.2709     1.3518 C.ar    
   2 C2             0.0033    -0.0127     0.1063 C.ar    
   3 C3             0.6581     0.4255    -1.0359 C.ar    
   4 N4             1.7867     1.1006    -0.9470 N.ar    
   5 C5             2.3356     1.3858     0.2178 C.ar    
   6 C6             1.7421     0.9835     1.3994 C.ar    
   7 C7            -1.0860    -2.0599    -0.1027 C.ar    
   8 C8             0.1374    -2.7175    -0.0104 C.ar    
   9 C9             0.1752    -4.0958    -0.1240 C.ar    
  10 N10           -0.9260    -4.7898    -0.3173 N.ar    
  11 C11           -2.1146    -4.2043    -0.4115 C.ar    
  12 C12           -2.2335    -2.8224    -0.3075 C.ar    
  13 C13           -3.3246    -5.0306    -0.6300 C.2     
  14 N14           -3.2164    -6.3701    -0.7321 N.am    
  15 O15           -1.1597    -0.7092     0.0098 O.3     
  16 C16           -4.3580    -7.1497    -0.9382 C.2     
  17 O17           -4.4147    -4.5006    -0.7170 O.2     
  18 N18           -5.6066    -6.6866    -1.0507 N.2     
  19 C19           -6.4334    -7.6834    -1.2375 C.2     
  20 N20           -5.7215    -8.8231    -1.2487 N.pl3   
  21 N21           -4.3794    -8.4559    -1.0586 N.2     
  22 C22           -6.2422   -10.1806    -1.4285 C.3     
  23 H23            0.0667    -0.0526     2.2594 H       
  24 H24            0.2390     0.2109    -2.0079 H       
  25 H25            3.2615     1.9409     0.2487 H       
  26 H26            2.1987     1.2215     2.3488 H       
  27 H27            1.0474    -2.1577     0.1479 H       
  28 H28            1.1225    -4.6097    -0.0533 H       
  29 H29           -3.2007    -2.3480    -0.3840 H       
  30 H30           -2.3463    -6.7931    -0.6626 H       
  31 H31           -7.5034    -7.6040    -1.3613 H       
  32 H32           -6.2477   -10.4301    -2.4895 H       
  33 H33           -5.6081   -10.8869    -0.8925 H       
  34 H34           -7.2580   -10.2348    -1.0371 H       
@<TRIPOS>BOND
   1    1    2 ar
   2    1    6 ar
   3    1   23 1
   4    2    3 ar
   5    2   15 1
   6    3    4 ar
   7    3   24 1
   8    4    5 ar
   9    5    6 ar
  10    5   25 1
  11    6   26 1
  12    7    8 ar
  13    7   12 ar
  14    7   15 1
  15    8    9 ar
  16    8   27 1
  17    9   10 ar
  18    9   28 1
  19   10   11 ar
  20   11   12 ar
  21   11   13 1
  22   12   29 1
  23   13   14 am
  24   13   17 2
  25   14   16 1
  26   14   30 1
  27   16   18 1
  28   16   21 2
  29   18   19 2
  30   19   20 1
  31   19   31 1
  32   20   21 1
  33   20   22 1
  34   22   32 1
  35   22   33 1
  36   22   34 1

#	End of record

