#	Name: ASD01150999
#	Creating user name:	WinNT
#	Creation time:	15. 06. 2019 19:05

#	Modifying user name:	WinNT
#	Modification time:	15. 06. 2019 19:05

#	Program:	/corina/corina34_cracker 3.40 0067  02.08.2006

@<TRIPOS>MOLECULE
ASD01150999
  47   49    0    0    0
SMALL
NO_CHARGES


@<TRIPOS>ATOM
   1 N1            -0.0167     1.3805     0.0096 N.am    
   2 C2             0.0021    -0.0041     0.0020 C.2     
   3 C3            -1.1036    -0.8179     0.0082 C.2     
   4 N4            -0.8254    -2.1258    -0.0015 N.2     
   5 C5             0.4222    -2.4379    -0.0150 C.2     
   6 S6             1.4061    -0.9798    -0.0241 S.3     
   7 C7            -2.4723    -0.2976     0.0245 C.2     
   8 O8            -2.6664     0.9033     0.0332 O.2     
   9 O9            -3.5179    -1.1499     0.0299 O.3     
  10 C10           -4.8461    -0.5636     0.0462 C.3     
  11 C11           -5.8952    -1.6773     0.0501 C.3     
  12 C12            0.9615    -3.8450    -0.0278 C.3     
  13 C13            1.1308    -4.3133    -1.4745 C.3     
  14 C14            1.1412     2.0702     0.0023 C.2     
  15 C15            1.1212     3.5437     0.0104 C.2     
  16 O16            2.2024     1.4766    -0.0110 O.2     
  17 C17            2.2213     4.3785     0.0044 C.2     
  18 N18            1.7653     5.6442     0.0150 N.pl3   
  19 N19            0.3664     5.6110     0.0279 N.2     
  20 C20           -0.0275     4.3672     0.0196 C.2     
  21 C21            2.5575     6.8006     0.0142 C.ar    
  22 C22            2.1324     7.9342    -0.6654 C.ar    
  23 C23            2.9145     9.0725    -0.6644 C.ar    
  24 C24            4.1210     9.0838     0.0134 C.ar    
  25 C25            4.5469     7.9551     0.6916 C.ar    
  26 C26            3.7659     6.8161     0.6978 C.ar    
  27 Cl27           5.1021    10.5160     0.0124 Cl      
  28 C28            3.6662     3.9507    -0.0108 C.3     
  29 F29            4.1252     3.8115     1.3034 F       
  30 F30            3.7831     2.7265    -0.6778 F       
  31 F31            4.4318     4.9170    -0.6722 F       
  32 H32           -0.8632     1.8540     0.0162 H       
  33 H33           -4.9623     0.0482     0.9408 H       
  34 H34           -4.9797     0.0583    -0.8390 H       
  35 H35           -5.7790    -2.2890    -0.8445 H       
  36 H36           -5.7616    -2.2991     0.9353 H       
  37 H37           -6.8923    -1.2372     0.0623 H       
  38 H38            1.9272    -3.8686     0.4771 H       
  39 H39            0.2652    -4.5057     0.4888 H       
  40 H40            1.5208    -5.3310    -1.4837 H       
  41 H41            0.1651    -4.2897    -1.9794 H       
  42 H42            1.8271    -3.6526    -1.9910 H       
  43 H43           -1.0523     4.0263     0.0256 H       
  44 H44            1.1911     7.9258    -1.1948 H       
  45 H45            2.5844     9.9544    -1.1932 H       
  46 H46            5.4888     7.9664     1.2197 H       
  47 H47            4.0987     5.9356     1.2272 H       
@<TRIPOS>BOND
   1    1    2 1
   2    1   14 am
   3    1   32 1
   4    2    3 2
   5    2    6 1
   6    3    4 1
   7    3    7 1
   8    4    5 2
   9    5    6 1
  10    5   12 1
  11    7    8 2
  12    7    9 1
  13    9   10 1
  14   10   11 1
  15   10   33 1
  16   10   34 1
  17   11   35 1
  18   11   36 1
  19   11   37 1
  20   12   13 1
  21   12   38 1
  22   12   39 1
  23   13   40 1
  24   13   41 1
  25   13   42 1
  26   14   15 1
  27   14   16 2
  28   15   17 2
  29   15   20 1
  30   17   18 1
  31   17   28 1
  32   18   19 1
  33   18   21 1
  34   19   20 2
  35   20   43 1
  36   21   22 ar
  37   21   26 ar
  38   22   23 ar
  39   22   44 1
  40   23   24 ar
  41   23   45 1
  42   24   25 ar
  43   24   27 1
  44   25   26 ar
  45   25   46 1
  46   26   47 1
  47   28   29 1
  48   28   30 1
  49   28   31 1

#	End of record

