#	Name: ASD03731558
#	Creating user name:	WinNT
#	Creation time:	15. 06. 2019 20:45

#	Modifying user name:	WinNT
#	Modification time:	15. 06. 2019 20:45

#	Program:	/corina/corina34_cracker 3.40 0067  02.08.2006

@<TRIPOS>MOLECULE
ASD03731558
  39   40    0    0    0
SMALL
NO_CHARGES


@<TRIPOS>ATOM
   1 C1            -0.7948     1.3879     0.4260 C.2     
   2 C2            -0.5705    -0.0646     0.3082 C.ar    
   3 C3             0.5800    -0.5485    -0.3266 C.ar    
   4 C4             0.7847    -1.9091    -0.4335 C.ar    
   5 C5            -0.1489    -2.7962     0.0872 C.ar    
   6 C6            -1.2926    -2.3183     0.7182 C.ar    
   7 C7            -1.5029    -0.9631     0.8348 C.ar    
   8 O8             0.0200     2.1678    -0.0284 O.2     
   9 N9            -1.9057     1.8512     1.0325 N.am    
  10 S10           -2.1576     3.4826     1.1649 S.o2    
  11 O11           -3.3880     3.5913     1.8674 O.2     
  12 O12           -0.9490     3.9797     1.7230 O.2     
  13 C13           -2.3495     4.0514    -0.5469 C.3     
  14 F14            1.4874     0.3146    -0.8336 F       
  15 O15            0.0553    -4.1333    -0.0206 O.3     
  16 C16           -0.4549    -4.7713    -1.1070 C.ar    
  17 C17           -0.3713    -6.1529    -1.2039 C.ar    
  18 C18           -0.8905    -6.7998    -2.3082 C.ar    
  19 C19           -1.4940    -6.0701    -3.3187 C.ar    
  20 C20           -1.5781    -4.6916    -3.2235 C.ar    
  21 C21           -1.0647    -4.0422    -2.1173 C.ar    
  22 F22           -2.0007    -6.7042    -4.3987 F       
  23 C23            0.2862    -6.9472    -0.1048 C.3     
  24 C24           -0.7345    -7.2332     0.9985 C.3     
  25 H25            1.6713    -2.2846    -0.9226 H       
  26 H26           -2.0153    -3.0123     1.1212 H       
  27 H27           -2.3894    -0.5943     1.3291 H       
  28 H28           -2.5576     1.2291     1.3915 H       
  29 H29           -3.1986     3.5444    -1.0052 H       
  30 H30           -2.5214     5.1277    -0.5550 H       
  31 H31           -1.4438     3.8238    -1.1091 H       
  32 H32           -0.8256    -7.8752    -2.3838 H       
  33 H33           -2.0490    -4.1238    -4.0124 H       
  34 H34           -1.1344    -2.9671    -2.0413 H       
  35 H35            0.6575    -7.8889    -0.5093 H       
  36 H36            1.1177    -6.3764     0.3085 H       
  37 H37           -1.1057    -6.2915     1.4029 H       
  38 H38           -1.5660    -7.8040     0.5851 H       
  39 H39           -0.2589    -7.8077     1.7934 H       
@<TRIPOS>BOND
   1    1    2 1
   2    1    8 2
   3    1    9 am
   4    2    3 ar
   5    2    7 ar
   6    3    4 ar
   7    3   14 1
   8    4    5 ar
   9    4   25 1
  10    5    6 ar
  11    5   15 1
  12    6    7 ar
  13    6   26 1
  14    7   27 1
  15    9   10 am
  16    9   28 1
  17   10   11 2
  18   10   12 2
  19   10   13 1
  20   13   29 1
  21   13   30 1
  22   13   31 1
  23   15   16 1
  24   16   17 ar
  25   16   21 ar
  26   17   18 ar
  27   17   23 1
  28   18   19 ar
  29   18   32 1
  30   19   20 ar
  31   19   22 1
  32   20   21 ar
  33   20   33 1
  34   21   34 1
  35   23   24 1
  36   23   35 1
  37   23   36 1
  38   24   37 1
  39   24   38 1
  40   24   39 1

#	End of record

