#	Name: ASD02508086
#	Creating user name:	WinNT
#	Creation time:	15. 06. 2019 20:23

#	Modifying user name:	WinNT
#	Modification time:	15. 06. 2019 20:23

#	Program:	/corina/corina34_cracker 3.40 0067  02.08.2006

@<TRIPOS>MOLECULE
ASD02508086
  39   41    0    0    0
SMALL
NO_CHARGES


@<TRIPOS>ATOM
   1 C1             1.0971     2.2938     1.1371 C.ar    
   2 C2             0.6098     1.0193     0.8107 C.ar    
   3 C3             2.4717     2.5090     1.0285 C.ar    
   4 C4             3.3314     1.5080     0.6147 C.ar    
   5 C5             2.8296     0.2541     0.2964 C.ar    
   6 C6             1.4628     0.0224     0.3995 C.ar    
   7 N7             0.3757     3.3991     1.5592 N.am    
   8 C8             1.0351     4.5314     1.8217 C.2     
   9 S9             2.7444     4.1904     1.5060 S.3     
  10 N10            3.6899    -0.7660    -0.1238 N.am    
  11 S11            3.7025    -2.2185     0.6714 S.o2    
  12 C12            5.0226    -2.1636     1.8371 C.ar    
  13 C13            4.7970    -1.6874     3.1170 C.ar    
  14 O14            0.5572     5.5855     2.1988 O.2     
  15 O15            2.5009    -2.2721     1.4281 O.2     
  16 O16            4.0586    -3.2004    -0.2922 O.2     
  17 C17            6.2848    -2.6019     1.4753 C.ar    
  18 C18            7.3215    -2.5583     2.3923 C.ar    
  19 C19            7.0964    -2.0772     3.6682 C.ar    
  20 C20            5.8352    -1.6446     4.0323 C.ar    
  21 F21            3.5644    -1.2640     3.4731 F       
  22 F22            6.5050    -3.0726     0.2283 F       
  23 C23           -1.0794     3.3279     1.7141 C.3     
  24 C24           -1.4197     2.8879     3.1394 C.3     
  25 C25            4.5798    -0.5492    -1.2672 C.3     
  26 H26           -0.4488     0.8185     0.8837 H       
  27 H27            4.3912     1.7019     0.5391 H       
  28 H28            1.0663    -0.9515     0.1531 H       
  29 H29            8.3062    -2.9005     2.1103 H       
  30 H30            7.9055    -2.0439     4.3829 H       
  31 H31            5.6605    -1.2689     5.0297 H       
  32 H32           -1.5135     4.3094     1.5234 H       
  33 H33           -1.4854     2.6070     1.0045 H       
  34 H34           -0.9856     1.9064     3.3300 H       
  35 H35           -1.0136     3.6088     3.8489 H       
  36 H36           -2.5023     2.8349     3.2546 H       
  37 H37            5.5285    -0.1423    -0.9173 H       
  38 H38            4.7563    -1.4973    -1.7752 H       
  39 H39            4.1165     0.1534    -1.9600 H       
@<TRIPOS>BOND
   1    1    2 ar
   2    1    3 ar
   3    1    7 1
   4    2    6 ar
   5    2   26 1
   6    3    4 ar
   7    3    9 1
   8    4    5 ar
   9    4   27 1
  10    5    6 ar
  11    5   10 1
  12    6   28 1
  13    7    8 am
  14    7   23 1
  15    8    9 1
  16    8   14 2
  17   10   11 am
  18   10   25 1
  19   11   12 1
  20   11   15 2
  21   11   16 2
  22   12   13 ar
  23   12   17 ar
  24   13   21 1
  25   13   20 ar
  26   17   18 ar
  27   17   22 1
  28   18   19 ar
  29   18   29 1
  30   19   20 ar
  31   19   30 1
  32   20   31 1
  33   23   24 1
  34   23   32 1
  35   23   33 1
  36   24   34 1
  37   24   35 1
  38   24   36 1
  39   25   37 1
  40   25   38 1
  41   25   39 1

#	End of record

