#	Name: ASD02408460
#	Creating user name:	WinNT
#	Creation time:	15. 06. 2019 20:21

#	Modifying user name:	WinNT
#	Modification time:	15. 06. 2019 20:21

#	Program:	/corina/corina34_cracker 3.40 0067  02.08.2006

@<TRIPOS>MOLECULE
ASD02408460
  51   53    0    0    0
SMALL
NO_CHARGES


@<TRIPOS>ATOM
   1 C1             0.2518     1.1147    -0.1975 C.2     
   2 C2             0.1610    -0.2844    -0.1283 C.2     
   3 N3            -1.1629    -0.5858    -0.0904 N.pl3   
   4 N4            -1.8882     0.6114    -0.1356 N.2     
   5 C5            -1.0622     1.6188    -0.2039 C.2     
   6 C6            -1.7342    -1.9327    -0.0160 C.3     
   7 C7            -2.5751    -2.0605     1.2558 C.3     
   8 C8            -1.6680    -1.9353     2.4816 C.3     
   9 C9            -1.7544    -2.1862    -2.5015 C.3     
  10 C10           -2.6193    -2.1796    -1.2394 C.3     
  11 C11            1.5837     1.7173    -0.2504 C.2     
  12 N12            2.6489     0.8823    -0.2292 N.am    
  13 N13            1.2881    -1.0133    -0.1128 N.2     
  14 O14            1.7287     2.9254    -0.3118 O.2     
  15 C15            2.4645    -0.4602    -0.1610 C.2     
  16 C16            3.6791    -1.3521    -0.1402 C.3     
  17 C17            3.2366    -2.8146    -0.0615 C.3     
  18 C18            4.4622    -3.7245    -0.1659 C.3     
  19 C19            4.0197    -5.1870    -0.0872 C.3     
  20 C20            3.3126    -5.4349     1.2468 C.3     
  21 C21            2.0871    -4.5249     1.3512 C.3     
  22 C22            2.5295    -3.0624     1.2725 C.3     
  23 C23            2.8701    -6.8974     1.3254 C.3     
  24 H24           -1.3392     2.6616    -0.2506 H       
  25 H25           -0.9299    -2.6680     0.0048 H       
  26 H26           -3.3250    -1.2698     1.2765 H       
  27 H27           -3.0704    -3.0314     1.2679 H       
  28 H28           -0.8610    -2.6648     2.4124 H       
  29 H29           -1.2472    -0.9306     2.5211 H       
  30 H30           -2.2496    -2.1214     3.3845 H       
  31 H31           -2.3687    -2.4531    -3.3615 H       
  32 H32           -1.3266    -1.1953    -2.6541 H       
  33 H33           -0.9518    -2.9149    -2.3882 H       
  34 H34           -3.1202    -3.1422    -1.1372 H       
  35 H35           -3.3649    -1.3881    -1.3141 H       
  36 H36            3.5478     1.2453    -0.2631 H       
  37 H37            4.2597    -1.1966    -1.0495 H       
  38 H38            4.2922    -1.1108     0.7281 H       
  39 H39            2.5520    -3.0317    -0.8814 H       
  40 H40            4.9659    -3.5480    -1.1163 H       
  41 H41            5.1468    -3.5075     0.6540 H       
  42 H42            3.3351    -5.4041    -0.9072 H       
  43 H43            4.8928    -5.8353    -0.1616 H       
  44 H44            3.9972    -5.2178     2.0667 H       
  45 H45            1.4024    -4.7420     0.5312 H       
  46 H46            1.5833    -4.7015     2.3015 H       
  47 H47            3.2141    -2.8454     2.0924 H       
  48 H48            1.6564    -2.4142     1.3468 H       
  49 H49            3.7432    -7.5457     1.2511 H       
  50 H50            2.3664    -7.0740     2.2758 H       
  51 H51            2.1855    -7.1145     0.5055 H       
@<TRIPOS>BOND
   1    1    2 2
   2    1   11 1
   3    1    5 1
   4    2    3 1
   5    2   13 1
   6    3    4 1
   7    3    6 1
   8    4    5 2
   9    5   24 1
  10    6    7 1
  11    6   10 1
  12    6   25 1
  13    7    8 1
  14    7   26 1
  15    7   27 1
  16    8   28 1
  17    8   29 1
  18    8   30 1
  19    9   10 1
  20    9   31 1
  21    9   32 1
  22    9   33 1
  23   10   34 1
  24   10   35 1
  25   11   12 am
  26   11   14 2
  27   12   15 1
  28   12   36 1
  29   13   15 2
  30   15   16 1
  31   16   17 1
  32   16   37 1
  33   16   38 1
  34   17   18 1
  35   17   22 1
  36   17   39 1
  37   18   19 1
  38   18   40 1
  39   18   41 1
  40   19   20 1
  41   19   42 1
  42   19   43 1
  43   20   21 1
  44   20   23 1
  45   20   44 1
  46   21   22 1
  47   21   45 1
  48   21   46 1
  49   22   47 1
  50   22   48 1
  51   23   49 1
  52   23   50 1
  53   23   51 1

#	End of record

