#	Name: ASD00192039
#	Creating user name:	WinNT
#	Creation time:	15. 06. 2019 18:33

#	Modifying user name:	WinNT
#	Modification time:	15. 06. 2019 18:33

#	Program:	/corina/corina34_cracker 3.40 0067  02.08.2006

@<TRIPOS>MOLECULE
ASD00192039
  27   30    0    0    0
SMALL
NO_CHARGES


@<TRIPOS>ATOM
   1 N1            -0.0158     1.3151     0.0093 N.ar    
   2 C2             0.0021    -0.0041     0.0020 C.ar    
   3 C3             1.2650    -0.7368    -0.0135 C.ar    
   4 C4             2.4599    -0.0093    -0.0210 C.ar    
   5 C5             2.3763     1.4443    -0.0132 C.ar    
   6 C6             3.5273     2.2404    -0.0195 C.ar    
   7 C7             3.4112     3.5996    -0.0114 C.ar    
   8 C8             2.1591     4.2054     0.0030 C.ar    
   9 C9             1.0190     3.4597     0.0095 C.ar    
  10 C10            1.0986     2.0566     0.0026 C.ar    
  11 C11            2.8980    -2.1634    -0.0348 C.2     
  12 N12            1.6001    -2.0464    -0.0225 N.2     
  13 N13            3.4722    -0.9295    -0.0344 N.pl3   
  14 O14           -1.5070    -1.9157    -0.6192 O.3     
  15 C15           -1.2694    -0.7479     0.0102 C.2     
  16 C16           -2.4098    -0.3757     0.6559 C.2     
  17 C17           -3.3672    -1.3732     0.3944 C.2     
  18 C18           -2.7731    -2.2964    -0.3894 C.2     
  19 H19            4.5043     1.7801    -0.0304 H       
  20 H20            4.3009     4.2119    -0.0160 H       
  21 H21            2.0897     5.2832     0.0096 H       
  22 H22            0.0549     3.9463     0.0211 H       
  23 H23            3.4371    -3.0992    -0.0443 H       
  24 H24            4.4231    -0.7380    -0.0426 H       
  25 H25           -2.5514     0.5128     1.2532 H       
  26 H26           -4.3855    -1.3954     0.7535 H       
  27 H27           -3.2394    -3.1934    -0.7694 H       
@<TRIPOS>BOND
   1    1    2 ar
   2    1   10 ar
   3    2    3 ar
   4    2   15 1
   5    3    4 ar
   6    3   12 1
   7    4    5 ar
   8    4   13 1
   9    5    6 ar
  10    5   10 ar
  11    6    7 ar
  12    6   19 1
  13    7    8 ar
  14    7   20 1
  15    8    9 ar
  16    8   21 1
  17    9   10 ar
  18    9   22 1
  19   11   12 2
  20   11   13 1
  21   11   23 1
  22   13   24 1
  23   14   15 1
  24   14   18 1
  25   15   16 2
  26   16   17 1
  27   16   25 1
  28   17   18 2
  29   17   26 1
  30   18   27 1

#	End of record

