#	Name: ASD03540073
#	Creating user name:	WinNT
#	Creation time:	15. 06. 2019 20:42

#	Modifying user name:	WinNT
#	Modification time:	15. 06. 2019 20:42

#	Program:	/corina/corina34_cracker 3.40 0067  02.08.2006

@<TRIPOS>MOLECULE
ASD03540073
  48   50    0    0    0
SMALL
NO_CHARGES


@<TRIPOS>ATOM
   1 C1            -0.1853     1.4062     0.0378 C.2     
   2 N2            -0.2595     0.0461     0.0503 N.am    
   3 C3             0.9219    -0.6556     0.0591 C.2     
   4 C4             2.1376    -0.0106     0.0549 C.2     
   5 C5             2.1584     1.3902     0.0414 C.2     
   6 N6             0.9862     2.0544     0.0340 N.am    
   7 S7             0.4795    -2.3682     0.0748 S.3     
   8 C8            -1.3887    -0.7199     0.0558 C.2     
   9 C9            -1.2652    -2.0544     0.0689 C.2     
  10 C10           -2.3471    -3.0473     0.0766 C.2     
  11 O11           -3.5078    -2.6824     0.0707 O.2     
  12 N12           -2.0543    -4.3629     0.0903 N.am    
  13 C13           -3.1337    -5.3534     0.0980 C.3     
  14 C14           -2.5431    -6.7398     0.1129 C.ar    
  15 C15           -2.2747    -7.3633     1.3173 C.ar    
  16 C16           -1.7335    -8.6348     1.3322 C.ar    
  17 C17           -1.4600    -9.2842     0.1403 C.ar    
  18 C18           -1.7292    -8.6588    -1.0652 C.ar    
  19 C19           -2.2753    -7.3893    -1.0777 C.ar    
  20 F20           -0.9306   -10.5271     0.1537 F       
  21 O21            3.2171     1.9967     0.0375 O.2     
  22 O22           -1.2152     2.0517     0.0246 O.2     
  23 C23            0.9936     3.5193     0.0199 C.3     
  24 C24            0.9932     4.0353     1.4358 C.2     
  25 C25            0.0767     4.8879     1.8219 C.2     
  26 C26           -0.8949     5.4554     0.8194 C.3     
  27 C27           -0.0061     5.3013     3.2688 C.3     
  28 C28            3.4232    -0.7968     0.0651 C.3     
  29 H29           -2.3653    -0.2587     0.0501 H       
  30 H30           -1.1290    -4.6538     0.0950 H       
  31 H31           -3.7505    -5.2117     0.9854 H       
  32 H32           -3.7471    -5.2294    -0.7944 H       
  33 H33           -2.4877    -6.8564     2.2468 H       
  34 H34           -1.5236    -9.1215     2.2732 H       
  35 H35           -1.5163    -9.1644    -1.9955 H       
  36 H36           -2.4892    -6.9029    -2.0179 H       
  37 H37            1.8865     3.8732    -0.4956 H       
  38 H38            0.1065     3.8822    -0.4993 H       
  39 H39            1.7485     3.7022     2.1321 H       
  40 H40           -1.7301     4.7666     0.6927 H       
  41 H41           -1.2668     6.4155     1.1770 H       
  42 H42           -0.3904     5.5945    -0.1368 H       
  43 H43            0.7715     4.7914     3.8374 H       
  44 H44            0.1341     6.3794     3.3472 H       
  45 H45           -0.9840     5.0321     3.6682 H       
  46 H46            3.7351    -0.9966    -0.9601 H       
  47 H47            4.1966    -0.2220     0.5747 H       
  48 H48            3.2679    -1.7404     0.5881 H       
@<TRIPOS>BOND
   1    1    2 am
   2    1    6 am
   3    1   22 2
   4    2    3 1
   5    2    8 1
   6    3    4 2
   7    3    7 1
   8    4    5 1
   9    4   28 1
  10    5    6 am
  11    5   21 2
  12    6   23 1
  13    7    9 1
  14    8    9 2
  15    8   29 1
  16    9   10 1
  17   10   11 2
  18   10   12 am
  19   12   13 1
  20   12   30 1
  21   13   14 1
  22   13   31 1
  23   13   32 1
  24   14   15 ar
  25   14   19 ar
  26   15   16 ar
  27   15   33 1
  28   16   17 ar
  29   16   34 1
  30   17   18 ar
  31   17   20 1
  32   18   19 ar
  33   18   35 1
  34   19   36 1
  35   23   24 1
  36   23   37 1
  37   23   38 1
  38   24   25 2
  39   24   39 1
  40   25   26 1
  41   25   27 1
  42   26   40 1
  43   26   41 1
  44   26   42 1
  45   27   43 1
  46   27   44 1
  47   27   45 1
  48   28   46 1
  49   28   47 1
  50   28   48 1

#	End of record

