#	Name: ASD03730861
#	Creating user name:	WinNT
#	Creation time:	15. 06. 2019 20:44

#	Modifying user name:	WinNT
#	Modification time:	15. 06. 2019 20:44

#	Program:	/corina/corina34_cracker 3.40 0067  02.08.2006

@<TRIPOS>MOLECULE
ASD03730861
  62   68    0    0    0
SMALL
NO_CHARGES


@<TRIPOS>ATOM
   1 C1             1.3605    -1.2434    -2.5592 C.2     
   2 C2             0.7485    -1.4893    -1.2364 C.ar    
   3 C3             1.4862    -1.2719    -0.0712 C.ar    
   4 C4             0.9091    -1.5034     1.1600 C.ar    
   5 C5            -0.3981    -1.9501     1.2419 C.ar    
   6 C6            -1.1347    -2.1675     0.0912 C.ar    
   7 C7            -0.5713    -1.9344    -1.1465 C.ar    
   8 O8             2.4790    -0.7731    -2.6335 O.2     
   9 N9             0.6806    -1.5458    -3.6830 N.am    
  10 C10            1.2431    -1.2757    -4.9345 C.ar    
  11 C11            0.6070    -1.7078    -6.0914 C.ar    
  12 C12            1.1650    -1.4395    -7.3256 C.ar    
  13 C13            2.3562    -0.7418    -7.4108 C.ar    
  14 C14            2.9918    -0.3103    -6.2613 C.ar    
  15 C15            2.4358    -0.5700    -5.0238 C.ar    
  16 C16           -0.6904    -2.4689    -5.9995 C.3     
  17 F17           -1.1330    -2.7932    -7.2865 F       
  18 F18           -0.4913    -3.6430    -5.2652 F       
  19 F19           -1.6514    -1.6772    -5.3616 F       
  20 C20            2.9100    -0.7859    -0.1585 C.3     
  21 O21            1.4193    -3.3841     6.3774 O.3     
  22 C22            1.6357    -3.4694     7.7983 C.3     
  23 O23            3.0678    -3.4025     7.9311 O.3     
  24 C24            3.5038    -2.7031     6.8422 C.ar    
  25 C25            2.4901    -2.6931     5.8868 C.ar    
  26 C26            4.7029    -2.0630     6.5852 C.ar    
  27 C27            4.9070    -1.4077     5.3746 C.ar    
  28 C28            3.8900    -1.4116     4.4248 C.ar    
  29 C29            2.6910    -2.0437     4.6804 C.ar    
  30 O30            5.9926    -0.7101     4.9330 O.3     
  31 C31            4.4144    -0.6581     3.2318 C.3     
  32 C32            5.9236    -0.5809     3.4999 C.3     
  33 N33            3.4077    -0.4882     1.1868 N.am    
  34 C34            4.1106    -1.3585     1.9388 C.2     
  35 C35            3.7990     0.7035     3.1008 C.ar    
  36 C36            3.7313     1.8007     3.9300 C.ar    
  37 C37            3.0749     2.9450     3.5130 C.ar    
  38 C38            2.4866     2.9838     2.2619 C.ar    
  39 C39            2.5509     1.8870     1.4281 C.ar    
  40 C40            3.2099     0.7310     1.8394 C.ar    
  41 O41            4.4344    -2.4862     1.6312 O.2     
  42 H42            1.4787    -1.3359     2.0621 H       
  43 H43           -0.8452    -2.1301     2.2084 H       
  44 H44           -2.1544    -2.5162     0.1621 H       
  45 H45           -1.1489    -2.0999    -2.0439 H       
  46 H46           -0.1988    -1.9507    -3.6236 H       
  47 H47            0.6710    -1.7752    -8.2255 H       
  48 H48            2.7909    -0.5338    -8.3773 H       
  49 H49            3.9220     0.2340    -6.3311 H       
  50 H50            2.9303    -0.2285    -4.1264 H       
  51 H51            3.5304    -1.5584    -0.6127 H       
  52 H52            2.9491     0.1167    -0.7683 H       
  53 H53            1.1641    -2.6296     8.3086 H       
  54 H54            1.2589    -4.4155     8.1870 H       
  55 H55            5.4858    -2.0718     7.3290 H       
  56 H56            1.9071    -2.0325     3.9377 H       
  57 H57            6.3253     0.3799     3.1780 H       
  58 H58            6.4461    -1.4034     3.0114 H       
  59 H59            4.1913     1.7681     4.9067 H       
  60 H60            3.0224     3.8061     4.1628 H       
  61 H61            1.9741     3.8770     1.9365 H       
  62 H62            2.0885     1.9247     0.4528 H       
@<TRIPOS>BOND
   1    1    2 1
   2    1    8 2
   3    1    9 am
   4    2    3 ar
   5    2    7 ar
   6    3    4 ar
   7    3   20 1
   8    4    5 ar
   9    4   42 1
  10    5    6 ar
  11    5   43 1
  12    6    7 ar
  13    6   44 1
  14    7   45 1
  15    9   10 1
  16    9   46 1
  17   10   11 ar
  18   10   15 ar
  19   11   12 ar
  20   11   16 1
  21   12   13 ar
  22   12   47 1
  23   13   14 ar
  24   13   48 1
  25   14   15 ar
  26   14   49 1
  27   15   50 1
  28   16   17 1
  29   16   18 1
  30   16   19 1
  31   20   33 1
  32   20   51 1
  33   20   52 1
  34   21   22 1
  35   21   25 1
  36   22   23 1
  37   22   53 1
  38   22   54 1
  39   23   24 1
  40   24   25 ar
  41   24   26 ar
  42   25   29 ar
  43   26   27 ar
  44   26   55 1
  45   27   28 ar
  46   27   30 1
  47   28   29 ar
  48   28   31 1
  49   29   56 1
  50   30   32 1
  51   31   32 1
  52   31   34 1
  53   31   35 1
  54   32   57 1
  55   32   58 1
  56   33   34 am
  57   33   40 1
  58   34   41 2
  59   35   36 ar
  60   35   40 ar
  61   36   37 ar
  62   36   59 1
  63   37   38 ar
  64   37   60 1
  65   38   39 ar
  66   38   61 1
  67   39   40 ar
  68   39   62 1

#	End of record

