#	Name: ASD01913941
#	Creating user name:	WinNT
#	Creation time:	15. 06. 2019 20:02

#	Modifying user name:	WinNT
#	Modification time:	15. 06. 2019 20:02

#	Program:	/corina/corina34_cracker 3.40 0067  02.08.2006

@<TRIPOS>MOLECULE
ASD01913941
  44   46    0    0    0
SMALL
NO_CHARGES


@<TRIPOS>ATOM
   1 C1             0.0461     1.4289    -0.0466 C.ar    
   2 C2             0.0644    -0.0029    -0.0543 C.1     
   3 C3             0.0795    -1.1768    -0.0607 C.1     
   4 C4             0.0979    -2.6087    -0.0684 C.ar    
   5 N5             0.1496    -3.2697    -1.2251 N.ar    
   6 C6             0.1296    -5.2905    -0.0270 C.ar    
   7 N7             0.0844    -4.6352     1.1266 N.ar    
   8 C8             0.0674    -3.3159     1.1370 C.ar    
   9 C9             0.1663    -4.5877    -1.2294 C.ar    
  10 C10            0.0764     2.1379    -1.2509 C.ar    
  11 C11            0.0097     4.2000    -0.0349 C.ar    
  12 N12            0.1480    -6.6833    -0.0351 N.am    
  13 C13           -0.0080     2.1234     1.1643 C.ar    
  14 C14            0.0580     3.5168    -1.2371 C.ar    
  15 C15           -0.0259     3.5050     1.1635 C.ar    
  16 C16           -1.0126    -7.3558    -0.0213 C.2     
  17 N17           -1.0715    -8.6959    -0.0170 N.am    
  18 C18            0.1438    -9.5114    -0.0399 C.3     
  19 C19            1.2804    -8.7393     0.6385 C.3     
  20 C20            1.4332    -7.3834    -0.0646 C.3     
  21 C21           -0.1048   -10.8207     0.7118 C.3     
  22 C22            0.5272    -9.8172    -1.4892 C.3     
  23 O23           -2.0523    -6.7257    -0.0118 O.2     
  24 F24           -0.0778     4.1794     2.3330 F       
  25 C25           -2.3787    -9.3566     0.0115 C.3     
  26 H26            0.0304    -2.7831     2.0757 H       
  27 H27            0.2082    -5.1234    -2.1662 H       
  28 H28            0.1145     1.6068    -2.1905 H       
  29 H29           -0.0045     5.2799    -0.0306 H       
  30 H30           -0.0362     1.5820     2.0984 H       
  31 H31            0.0859     4.0649    -2.1672 H       
  32 H32            1.0409    -8.5847     1.6906 H       
  33 H33            2.2092    -9.3029     0.5507 H       
  34 H34            1.7449    -7.5415    -1.0971 H       
  35 H35            2.1818    -6.7857     0.4554 H       
  36 H36           -0.9172   -11.3665     0.2319 H       
  37 H37            0.8007   -11.4273     0.6942 H       
  38 H38           -0.3750   -10.6010     1.7446 H       
  39 H39            0.7067    -8.8836    -2.0223 H       
  40 H40            1.4322   -10.4245    -1.5052 H       
  41 H41           -0.2841   -10.3614    -1.9726 H       
  42 H42           -3.1664    -8.6033     0.0261 H       
  43 H43           -2.4896    -9.9811    -0.8750 H       
  44 H44           -2.4528    -9.9771     0.9046 H       
@<TRIPOS>BOND
   1    1    2 1
   2    1   13 ar
   3    1   10 ar
   4    2    3 3
   5    3    4 1
   6    4    5 ar
   7    4    8 ar
   8    5    9 ar
   9    6    7 ar
  10    6   12 1
  11    6    9 ar
  12    7    8 ar
  13    8   26 1
  14    9   27 1
  15   10   14 ar
  16   10   28 1
  17   11   14 ar
  18   11   15 ar
  19   11   29 1
  20   12   16 am
  21   12   20 1
  22   13   15 ar
  23   13   30 1
  24   14   31 1
  25   15   24 1
  26   16   17 am
  27   16   23 2
  28   17   18 1
  29   17   25 1
  30   18   19 1
  31   18   21 1
  32   18   22 1
  33   19   20 1
  34   19   32 1
  35   19   33 1
  36   20   34 1
  37   20   35 1
  38   21   36 1
  39   21   37 1
  40   21   38 1
  41   22   39 1
  42   22   40 1
  43   22   41 1
  44   25   42 1
  45   25   43 1
  46   25   44 1

#	End of record

