#	Name: ASD01915236
#	Creating user name:	WinNT
#	Creation time:	15. 06. 2019 20:05

#	Modifying user name:	WinNT
#	Modification time:	15. 06. 2019 20:05

#	Program:	/corina/corina34_cracker 3.40 0067  02.08.2006

@<TRIPOS>MOLECULE
ASD01915236
  29   30    0    0    0
SMALL
NO_CHARGES


@<TRIPOS>ATOM
   1 C1            -0.0169     1.3916    -0.0022 C.ar    
   2 C2             0.0024    -0.0047    -0.0126 C.ar    
   3 C3            -1.1842    -0.7155    -0.0123 C.ar    
   4 C4            -2.3955    -0.0489    -0.0016 C.ar    
   5 C5            -2.4270     1.3479     0.0085 C.ar    
   6 C6            -1.2345     2.0689     0.0145 C.ar    
   7 F7            -1.1595    -2.0662    -0.0229 F       
   8 C8             1.2523     2.1498    -0.0026 C.2     
   9 N9             2.4293     1.4934    -0.0131 N.am    
  10 O10            1.2342     3.3652     0.0065 O.2     
  11 C11            3.6270     2.2069    -0.1263 C.ar    
  12 C12            4.7645     1.7653     0.5387 C.ar    
  13 C13            5.9503     2.4674     0.4303 C.ar    
  14 C14            6.0123     3.6114    -0.3390 C.ar    
  15 C15            4.8752     4.0633    -1.0108 C.ar    
  16 C16            3.6808     3.3519    -0.9066 C.ar    
  17 C17            4.9369     5.2504    -1.8093 C.1     
  18 C18            4.9874     6.2236    -2.4639 C.1     
  19 C19           -3.6822     2.0372     0.0191 C.1     
  20 N20           -4.6779     2.5839     0.0275 N.1     
  21 H21            0.9457    -0.5306    -0.0214 H       
  22 H22           -3.3190    -0.6090    -0.0013 H       
  23 H23           -1.2540     3.1487     0.0223 H       
  24 H24            2.4459     0.5261     0.0578 H       
  25 H25            4.7218     0.8708     1.1424 H       
  26 H26            6.8311     2.1196     0.9496 H       
  27 H27            6.9405     4.1574    -0.4209 H       
  28 H28            2.7980     3.6966    -1.4245 H       
  29 H29            5.0327     7.0940    -3.0494 H       
@<TRIPOS>BOND
   1    1    2 ar
   2    1    8 1
   3    1    6 ar
   4    2    3 ar
   5    2   21 1
   6    3    4 ar
   7    3    7 1
   8    4    5 ar
   9    4   22 1
  10    5    6 ar
  11    5   19 1
  12    6   23 1
  13    8    9 am
  14    8   10 2
  15    9   11 1
  16    9   24 1
  17   11   12 ar
  18   11   16 ar
  19   12   13 ar
  20   12   25 1
  21   13   14 ar
  22   13   26 1
  23   14   15 ar
  24   14   27 1
  25   15   16 ar
  26   15   17 1
  27   16   28 1
  28   17   18 3
  29   18   29 1
  30   19   20 3

#	End of record

