#	Name: ASD08070183
#	Creating user name:	WinNT
#	Creation time:	15. 06. 2019 21:14

#	Modifying user name:	WinNT
#	Modification time:	15. 06. 2019 21:14

#	Program:	/corina/corina34_cracker 3.40 0067  02.08.2006

@<TRIPOS>MOLECULE
ASD08070183
  36   38    0    0    0
SMALL
NO_CHARGES


@<TRIPOS>ATOM
   1 C1            -0.0167     1.3805     0.0096 C.ar    
   2 C2             0.0021    -0.0041     0.0020 C.ar    
   3 C3            -1.1849    -0.7157     0.0100 C.ar    
   4 C4            -2.4055    -0.0329     0.0258 C.ar    
   5 C5            -2.4163     1.3658     0.0334 C.ar    
   6 C6            -1.2211     2.0635     0.0306 C.ar    
   7 C7            -3.6754    -0.7842     0.0339 C.2     
   8 O8            -4.1883    -1.0998     1.0901 O.2     
   9 F9            -3.5905     2.0339     0.0487 F       
  10 N10           -4.2667    -1.1207    -1.1296 N.am    
  11 F11           -1.2295     3.4145     0.0379 F       
  12 C12            1.2803     2.1479     0.0014 C.3     
  13 F13            1.1820    -0.6619    -0.0137 F       
  14 F14           -1.1646    -2.0666     0.0021 F       
  15 C15           -6.3227    -1.6044    -2.4369 C.3     
  16 C16           -7.7167    -2.2569    -2.1870 C.3     
  17 C17           -7.4427    -3.7783    -2.1928 C.3     
  18 C18           -5.9090    -3.9017    -2.4455 C.3     
  19 C19           -5.6702    -2.6693    -3.3876 C.3     
  20 C20           -5.5275    -1.8667    -1.1215 C.3     
  21 C21           -5.2536    -3.3881    -1.1272 C.3     
  22 H22           -3.8575    -0.8690    -1.9722 H       
  23 H23            1.5831     2.3384    -1.0282 H       
  24 H24            1.1447     3.0961     0.5216 H       
  25 H25            2.0510     1.5642     0.5047 H       
  26 H26           -6.3356    -0.5727    -2.7882 H       
  27 H27           -8.1141    -1.9460    -1.2209 H       
  28 H28           -8.4088    -1.9925    -2.9865 H       
  29 H29           -7.7054    -4.2153    -1.2294 H       
  30 H30           -8.0002    -4.2617    -2.9950 H       
  31 H31           -5.5635    -4.8663    -2.8174 H       
  32 H32           -6.2117    -2.7632    -4.3289 H       
  33 H33           -4.6094    -2.4776    -3.5490 H       
  34 H34           -6.1264    -1.5900    -0.2539 H       
  35 H35           -5.7185    -3.8611    -0.2623 H       
  36 H36           -4.1808    -3.5810    -1.1360 H       
@<TRIPOS>BOND
   1    1    2 ar
   2    1   12 1
   3    1    6 ar
   4    2    3 ar
   5    2   13 1
   6    3    4 ar
   7    3   14 1
   8    4    5 ar
   9    4    7 1
  10    5    6 ar
  11    5    9 1
  12    6   11 1
  13    7    8 2
  14    7   10 am
  15   10   20 1
  16   10   22 1
  17   12   23 1
  18   12   24 1
  19   12   25 1
  20   15   16 1
  21   15   20 1
  22   15   19 1
  23   15   26 1
  24   16   17 1
  25   16   27 1
  26   16   28 1
  27   17   18 1
  28   17   29 1
  29   17   30 1
  30   18   19 1
  31   18   21 1
  32   18   31 1
  33   19   32 1
  34   19   33 1
  35   20   21 1
  36   20   34 1
  37   21   35 1
  38   21   36 1

#	End of record

