#	Name: ASD00069072
#	Creating user name:	WinNT
#	Creation time:	15. 06. 2019 18:29

#	Modifying user name:	WinNT
#	Modification time:	15. 06. 2019 18:29

#	Program:	/corina/corina34_cracker 3.40 0067  02.08.2006

@<TRIPOS>MOLECULE
ASD00069072
  13   13    0    0    0
SMALL
NO_CHARGES


@<TRIPOS>ATOM
   1 N1            -0.0169     1.3968     0.0097 N.pl3   
   2 N2             0.0021    -0.0041     0.0020 N.2     
   3 C3             1.2417     2.1465     0.0017 C.3     
   4 C4            -1.0718    -0.6437     0.0088 C.1     
   5 O5            -2.1097    -1.2619     0.0154 O.2     
   6 C6             1.2408     3.5214    -0.6695 C.3     
   7 C7             1.3142     3.4144     0.8550 C.3     
   8 H8            -0.8635     1.8703     0.0163 H       
   9 H9             2.1466     1.5450    -0.0844 H       
  10 H10            2.1452     3.8246    -1.1969 H       
  11 H11            0.3037     3.8681    -1.1051 H       
  12 H12            0.4254     3.6907     1.4223 H       
  13 H13            2.2669     3.6472     1.3306 H       
@<TRIPOS>BOND
   1    1    2 1
   2    1    3 1
   3    1    8 1
   4    2    4 2
   5    3    6 1
   6    3    7 1
   7    3    9 1
   8    4    5 2
   9    6    7 1
  10    6   10 1
  11    6   11 1
  12    7   12 1
  13    7   13 1

#	End of record

