#	Name: ASD01940375
#	Creating user name:	WinNT
#	Creation time:	15. 06. 2019 20:12

#	Modifying user name:	WinNT
#	Modification time:	15. 06. 2019 20:12

#	Program:	/corina/corina34_cracker 3.40 0067  02.08.2006

@<TRIPOS>MOLECULE
ASD01940375
  41   42    0    0    0
SMALL
NO_CHARGES


@<TRIPOS>ATOM
   1 C1            -0.6623     1.7667     0.2193 C.3     
   2 C2            -0.3613     0.2678     0.1614 C.3     
   3 C3             0.3441    -0.1609     1.4496 C.3     
   4 S4            -1.9136    -0.6544    -0.0137 S.o2    
   5 O5            -1.6518    -2.0287    -0.2627 O.2     
   6 O6            -2.8459    -0.2547     0.9815 O.2     
   7 N7            -2.5662    -0.0996    -1.4310 N.am    
   8 C8             0.5436    -0.0248    -1.0372 C.3     
   9 C9            -1.9317    -0.3752    -2.6496 C.ar    
  10 C10           -1.9335     0.5763    -3.6689 C.ar    
  11 C11           -1.3030     0.2981    -4.8739 C.ar    
  12 C12           -0.6743    -0.9231    -5.0601 C.ar    
  13 C13           -0.6743    -1.8660    -4.0470 C.ar    
  14 C14           -1.2960    -1.5922    -2.8421 C.ar    
  15 N15           -2.5706     1.8100    -3.4775 N.pl3   
  16 C16           -2.8514     2.6297    -4.5751 C.ar    
  17 C17           -3.8986     2.3106    -5.4340 C.ar    
  18 C18           -4.1730     3.1238    -6.5176 C.ar    
  19 C19           -3.4071     4.2532    -6.7479 C.ar    
  20 C20           -2.3657     4.5719    -5.8957 C.ar    
  21 C21           -2.0896     3.7668    -4.8071 C.ar    
  22 I22           -3.8260     5.4826    -8.3917 I       
  23 F23           -4.6456     1.2075    -5.2095 F       
  24 F24           -0.0607    -1.1937    -6.2329 F       
  25 F25           -1.3025     1.2168    -5.8645 F       
  26 H26            0.2705     2.3208     0.3245 H       
  27 H27           -1.1648     2.0722    -0.6985 H       
  28 H28           -1.3069     1.9751     1.0731 H       
  29 H29           -0.3006     0.0475     2.3035 H       
  30 H30            0.5585    -1.2288     1.4083 H       
  31 H31            1.2768     0.3932     1.5548 H       
  32 H32           -3.3876     0.4161    -1.4176 H       
  33 H33            1.4764     0.5293    -0.9320 H       
  34 H34            0.7581    -1.0927    -1.0784 H       
  35 H35            0.0411     0.2807    -1.9549 H       
  36 H36           -0.1839    -2.8167    -4.1961 H       
  37 H37           -1.2898    -2.3285    -2.0521 H       
  38 H38           -2.8168     2.0952    -2.5836 H       
  39 H39           -4.9855     2.8774    -7.1851 H       
  40 H40           -1.7697     5.4537    -6.0790 H       
  41 H41           -1.2787     4.0195    -4.1400 H       
@<TRIPOS>BOND
   1    1    2 1
   2    1   26 1
   3    1   27 1
   4    1   28 1
   5    2    3 1
   6    2    4 1
   7    2    8 1
   8    3   29 1
   9    3   30 1
  10    3   31 1
  11    4    5 2
  12    4    6 2
  13    4    7 am
  14    7    9 1
  15    7   32 1
  16    8   33 1
  17    8   34 1
  18    8   35 1
  19    9   10 ar
  20    9   14 ar
  21   10   11 ar
  22   10   15 1
  23   11   12 ar
  24   11   25 1
  25   12   13 ar
  26   12   24 1
  27   13   14 ar
  28   13   36 1
  29   14   37 1
  30   15   16 1
  31   15   38 1
  32   16   17 ar
  33   16   21 ar
  34   17   18 ar
  35   17   23 1
  36   18   19 ar
  37   18   39 1
  38   19   20 ar
  39   19   22 1
  40   20   21 ar
  41   20   40 1
  42   21   41 1

#	End of record

