#	Name: ASD01150558
#	Creating user name:	WinNT
#	Creation time:	15. 06. 2019 19:04

#	Modifying user name:	WinNT
#	Modification time:	15. 06. 2019 19:04

#	Program:	/corina/corina34_cracker 3.40 0067  02.08.2006

@<TRIPOS>MOLECULE
ASD01150558
  49   51    0    0    0
SMALL
NO_CHARGES


@<TRIPOS>ATOM
   1 C1             0.4933     1.3919    -0.9465 C.ar    
   2 C2             0.4639     0.0109    -0.9224 C.ar    
   3 C3             1.9479     0.0102     0.9677 C.ar    
   4 C4             1.9789     1.3966     0.9446 C.ar    
   5 C5             1.2509     2.0887    -0.0132 C.ar    
   6 N6             1.2801     3.4880    -0.0392 N.am    
   7 C7             0.1264     4.1736    -0.1217 C.2     
   8 N8             0.1177     5.5193    -0.1489 N.am    
   9 C9             1.2790     6.2039    -0.0935 C.2     
  10 C10            2.5443     5.4601    -0.0031 C.2     
  11 N11            2.5098     4.1538     0.0269 N.2     
  12 O12            1.2793     7.4207    -0.1184 O.2     
  13 C13           -1.1539     6.2413    -0.2392 C.3     
  14 O14           -0.9269     3.5677    -0.1731 O.2     
  15 C15           -1.6746     6.5169     1.1478 C.ar    
  16 O16            3.7302     6.1204     0.0542 O.3     
  17 C17            4.9130     5.3232     0.1408 C.3     
  18 C18            1.1879    -0.6824     0.0311 C.ar    
  19 C19           -2.6599     5.7140     1.6885 C.ar    
  20 C20           -3.1383     5.9664     2.9612 C.ar    
  21 C21           -2.6319     7.0226     3.6956 C.ar    
  22 C22           -1.6465     7.8290     3.1591 C.ar    
  23 C23           -1.1607     7.5741     1.8851 C.ar    
  24 F24            1.1564    -2.0329     0.0527 F       
  25 N25            2.6816    -0.6915     1.9324 N.am    
  26 C26            2.9446    -0.1217     3.1251 C.2     
  27 C27            3.6402    -0.9142     4.2018 C.3     
  28 O28            2.6215     1.0289     3.3320 O.2     
  29 O29           -0.1915     8.3658     1.3552 O.3     
  30 C30            0.2813     9.4433     2.1661 C.3     
  31 H31           -0.0696     1.9304    -1.6945 H       
  32 H32           -0.1257    -0.5284    -1.6489 H       
  33 H33            2.5683     1.9367     1.6708 H       
  34 H34           -0.9998     7.1844    -0.7635 H       
  35 H35           -1.8774     5.6360    -0.7853 H       
  36 H36            4.8742     4.7121     1.0425 H       
  37 H37            4.9800     4.6764    -0.7339 H       
  38 H38            5.7871     5.9733     0.1798 H       
  39 H39           -3.0574     4.8885     1.1166 H       
  40 H40           -3.9090     5.3377     3.3820 H       
  41 H41           -3.0071     7.2177     4.6893 H       
  42 H42           -1.2516     8.6542     3.7331 H       
  43 H43            3.0005    -1.5876     1.7421 H       
  44 H44            3.8502    -1.9190     3.8351 H       
  45 H45            4.5754    -0.4219     4.4685 H       
  46 H46            2.9981    -0.9749     5.0805 H       
  47 H47           -0.5469    10.1117     2.4012 H       
  48 H48            0.7008     9.0456     3.0902 H       
  49 H49            1.0508     9.9943     1.6254 H       
@<TRIPOS>BOND
   1    1    2 ar
   2    1    5 ar
   3    1   31 1
   4    2   18 ar
   5    2   32 1
   6    3    4 ar
   7    3   25 1
   8    3   18 ar
   9    4    5 ar
  10    4   33 1
  11    5    6 1
  12    6    7 am
  13    6   11 1
  14    7    8 am
  15    7   14 2
  16    8    9 am
  17    8   13 1
  18    9   10 1
  19    9   12 2
  20   10   11 2
  21   10   16 1
  22   13   15 1
  23   13   34 1
  24   13   35 1
  25   15   19 ar
  26   15   23 ar
  27   16   17 1
  28   17   36 1
  29   17   37 1
  30   17   38 1
  31   18   24 1
  32   19   20 ar
  33   19   39 1
  34   20   21 ar
  35   20   40 1
  36   21   22 ar
  37   21   41 1
  38   22   23 ar
  39   22   42 1
  40   23   29 1
  41   25   26 am
  42   25   43 1
  43   26   27 1
  44   26   28 2
  45   27   44 1
  46   27   45 1
  47   27   46 1
  48   29   30 1
  49   30   47 1
  50   30   48 1
  51   30   49 1

#	End of record

