#	Name: ASD02500011
#	Creating user name:	WinNT
#	Creation time:	15. 06. 2019 20:22

#	Modifying user name:	WinNT
#	Modification time:	15. 06. 2019 20:22

#	Program:	/corina/corina34_cracker 3.40 0067  02.08.2006

@<TRIPOS>MOLECULE
ASD02500011
  36   36    0    0    0
SMALL
NO_CHARGES


@<TRIPOS>ATOM
   1 C1            -0.0164     1.3616     0.0095 C.ar    
   2 C2             0.0021    -0.0041     0.0020 C.ar    
   3 C3             1.2129    -0.6882    -0.0127 C.ar    
   4 C4             2.4136     0.0136    -0.0204 C.ar    
   5 C5             2.4060     1.3901    -0.0134 C.ar    
   6 C6             1.1866     2.0784     0.0019 C.ar    
   7 C7             1.1694     3.5469     0.0090 C.2     
   8 O8             0.1119     4.1409     0.0222 O.2     
   9 H9             2.0982     4.0978     0.0024 H       
  10 C10            3.7227    -0.7327    -0.0359 C.3     
  11 O11            1.2228    -2.0447    -0.0192 O.3     
  12 C12           -0.0456    -2.7028    -0.0102 C.3     
  13 C13            0.1659    -4.2181    -0.0194 C.3     
  14 C14           -1.1921    -4.9227    -0.0098 C.3     
  15 C15           -0.9806    -6.4380    -0.0189 C.3     
  16 C16           -2.3387    -7.1426    -0.0093 C.3     
  17 C17           -2.1303    -8.6351    -0.0183 C.2     
  18 O18           -1.0105    -9.0887    -0.0311 O.2     
  19 O19           -3.1888    -9.4605    -0.0121 O.3     
  20 H20           -0.9590     1.8888     0.0168 H       
  21 H21           -0.9270    -0.5548     0.0079 H       
  22 H22            3.3372     1.9373    -0.0193 H       
  23 H23            4.0289    -0.9079    -1.0672 H       
  24 H24            4.4838    -0.1420     0.4738 H       
  25 H25            3.6022    -1.6883     0.4746 H       
  26 H26           -0.5962    -2.4182     0.8864 H       
  27 H27           -0.6132    -2.4099    -0.8935 H       
  28 H28            0.7166    -4.5027    -0.9160 H       
  29 H29            0.7335    -4.5111     0.8639 H       
  30 H30           -1.7428    -4.6381     0.8868 H       
  31 H31           -1.7597    -4.6297    -0.8930 H       
  32 H32           -0.4300    -6.7226    -0.9155 H       
  33 H33           -0.4130    -6.7309     0.8643 H       
  34 H34           -2.8893    -6.8580     0.8873 H       
  35 H35           -2.9063    -6.8496    -0.8925 H       
  36 H36           -3.0052   -10.4099    -0.0183 H       
@<TRIPOS>BOND
   1    1    2 ar
   2    1    6 ar
   3    1   20 1
   4    2    3 ar
   5    2   21 1
   6    3    4 ar
   7    3   11 1
   8    4    5 ar
   9    4   10 1
  10    5    6 ar
  11    5   22 1
  12    6    7 1
  13    7    8 2
  14    7    9 1
  15   10   23 1
  16   10   24 1
  17   10   25 1
  18   11   12 1
  19   12   13 1
  20   12   26 1
  21   12   27 1
  22   13   14 1
  23   13   28 1
  24   13   29 1
  25   14   15 1
  26   14   30 1
  27   14   31 1
  28   15   16 1
  29   15   32 1
  30   15   33 1
  31   16   17 1
  32   16   34 1
  33   16   35 1
  34   17   18 2
  35   17   19 1
  36   19   36 1

#	End of record

