#	Name: ASD01530013
#	Creating user name:	WinNT
#	Creation time:	15. 06. 2019 19:22

#	Modifying user name:	WinNT
#	Modification time:	15. 06. 2019 19:22

#	Program:	/corina/corina34_cracker 3.40 0067  02.08.2006

@<TRIPOS>MOLECULE
ASD01530013
  28   29    0    0    0
SMALL
NO_CHARGES


@<TRIPOS>ATOM
   1 C1            -0.0167     1.3830     0.0096 C.ar    
   2 C2             0.0023    -0.0040     0.0230 C.ar    
   3 C3             1.2066    -0.6959     0.0079 C.ar    
   4 C4             2.3989    -0.0363    -0.0199 C.ar    
   5 C5             2.4276     1.3689    -0.0342 C.ar    
   6 C6             3.6449     2.0714    -0.0627 C.ar    
   7 C7             3.6368     3.4327    -0.0760 C.ar    
   8 C8             2.4380     4.1421    -0.0613 C.ar    
   9 C9             1.2403     3.4931    -0.0336 C.ar    
  10 C10            1.2102     2.0921    -0.0197 C.ar    
  11 C11           -1.2989     2.1113     0.0197 C.2     
  12 O12           -1.3089     3.3233     0.1181 O.2     
  13 N13           -2.4596     1.4336    -0.0802 N.am    
  14 C14           -3.7334     2.1572    -0.0703 C.3     
  15 C15           -4.8872     1.1603    -0.1959 C.3     
  16 H16           -0.9285    -0.5513     0.0457 H       
  17 H17            1.1981    -1.7758     0.0186 H       
  18 H18            3.3235    -0.5944    -0.0305 H       
  19 H19            4.5816     1.5341    -0.0736 H       
  20 H20            4.5732     3.9703    -0.0979 H       
  21 H21            2.4583     5.2219    -0.0717 H       
  22 H22            0.3185     4.0557    -0.0229 H       
  23 H23           -2.4516     0.4669    -0.1587 H       
  24 H24           -3.8304     2.7092     0.8646 H       
  25 H25           -3.7622     2.8538    -0.9082 H       
  26 H26           -4.7903     0.6083    -1.1308 H       
  27 H27           -4.8585     0.4638     0.6420 H       
  28 H28           -5.8350     1.6987    -0.1885 H       
@<TRIPOS>BOND
   1    1    2 ar
   2    1   10 ar
   3    1   11 1
   4    2    3 ar
   5    2   16 1
   6    3    4 ar
   7    3   17 1
   8    4    5 ar
   9    4   18 1
  10    5    6 ar
  11    5   10 ar
  12    6    7 ar
  13    6   19 1
  14    7    8 ar
  15    7   20 1
  16    8    9 ar
  17    8   21 1
  18    9   10 ar
  19    9   22 1
  20   11   12 2
  21   11   13 am
  22   13   14 1
  23   13   23 1
  24   14   15 1
  25   14   24 1
  26   14   25 1
  27   15   26 1
  28   15   27 1
  29   15   28 1

#	End of record

