#	Name: ASD07930341
#	Creating user name:	WinNT
#	Creation time:	15. 06. 2019 21:12

#	Modifying user name:	WinNT
#	Modification time:	15. 06. 2019 21:12

#	Program:	/corina/corina34_cracker 3.40 0067  02.08.2006

@<TRIPOS>MOLECULE
ASD07930341
  44   45    0    0    0
SMALL
NO_CHARGES


@<TRIPOS>ATOM
   1 N1            -0.0178     1.4625     0.0101 N.pl3   
   2 C2             0.0021    -0.0041     0.0020 C.3     
   3 C3             0.7718    -0.5048     1.2325 C.3     
   4 S4             2.4285     0.2504     1.2124 S.o2    
   5 N5             2.0919     1.8640     0.9683 N.am    
   6 C6             1.1578     2.1624     0.0026 C.2     
   7 C7            -1.4106    -0.5271     0.0446 C.2     
   8 C8            -2.4750     0.0917    -0.4680 C.2     
   9 C9             2.7573     2.9137     1.7441 C.3     
  10 O10            3.0216     0.2000     2.5027 O.2     
  11 O11            3.1487    -0.1441     0.0527 O.2     
  12 C12            0.6936    -0.4990    -1.2699 C.3     
  13 S13           -1.9062    -2.0502     0.7713 S.3     
  14 C14           -3.5824    -1.7490     0.3321 C.2     
  15 C15           -3.6743    -0.5816    -0.3085 C.2     
  16 Br16          -5.0316    -2.9055     0.7041 Br      
  17 N17            1.3895     3.0980    -0.9052 N.2     
  18 O18            0.7026     4.3249    -2.7604 O.3     
  19 C19           -0.3264     4.5641    -3.7227 C.3     
  20 C20           -1.6061     4.9965    -3.0041 C.3     
  21 C21            0.1189     5.6704    -4.6812 C.3     
  22 C22           -0.5938     3.2816    -4.5130 C.3     
  23 C23            0.4665     3.3713    -1.8351 C.2     
  24 O24           -0.5860     2.7598    -1.8463 O.2     
  25 H25           -0.8643     1.9361     0.0167 H       
  26 H26            0.2449    -0.2114     2.1405 H       
  27 H27            0.8620    -1.5903     1.1933 H       
  28 H28           -2.4068     1.0458    -0.9692 H       
  29 H29            3.6679     3.2228     1.2309 H       
  30 H30            2.0893     3.7690     1.8458 H       
  31 H31            3.0096     2.5302     2.7326 H       
  32 H32            1.7160    -0.1220    -1.2978 H       
  33 H33            0.7080    -1.5889    -1.2751 H       
  34 H34            0.1496    -0.1386    -2.1430 H       
  35 H35           -4.6130    -0.1910    -0.6729 H       
  36 H36           -1.4156     5.9101    -2.4410 H       
  37 H37           -2.3910     5.1790    -3.7381 H       
  38 H38           -1.9233     4.2083    -2.3212 H       
  39 H39            1.0305     5.3624    -5.1931 H       
  40 H40           -0.6660     5.8529    -5.4152 H       
  41 H41            0.3093     6.5841    -4.1181 H       
  42 H42           -0.9110     2.4935    -3.8301 H       
  43 H43           -1.3787     3.4641    -5.2470 H       
  44 H44            0.3179     2.9736    -5.0249 H       
@<TRIPOS>BOND
   1    1    2 1
   2    1    6 1
   3    1   25 1
   4    2    3 1
   5    2    7 1
   6    2   12 1
   7    3    4 1
   8    3   26 1
   9    3   27 1
  10    4    5 am
  11    4   10 2
  12    4   11 2
  13    5    6 1
  14    5    9 1
  15    6   17 2
  16    7   13 1
  17    7    8 2
  18    8   15 1
  19    8   28 1
  20    9   29 1
  21    9   30 1
  22    9   31 1
  23   12   32 1
  24   12   33 1
  25   12   34 1
  26   13   14 1
  27   14   15 2
  28   14   16 1
  29   15   35 1
  30   17   23 1
  31   18   19 1
  32   18   23 1
  33   19   20 1
  34   19   21 1
  35   19   22 1
  36   20   36 1
  37   20   37 1
  38   20   38 1
  39   21   39 1
  40   21   40 1
  41   21   41 1
  42   22   42 1
  43   22   43 1
  44   22   44 1
  45   23   24 2

#	End of record

