#	Name: ASD01913472
#	Creating user name:	WinNT
#	Creation time:	15. 06. 2019 20:01

#	Modifying user name:	WinNT
#	Modification time:	15. 06. 2019 20:01

#	Program:	/corina/corina34_cracker 3.40 0067  02.08.2006

@<TRIPOS>MOLECULE
ASD01913472
  34   36    0    0    0
SMALL
NO_CHARGES


@<TRIPOS>ATOM
   1 C1             0.9898     0.0180    -1.1288 C.ar    
   2 C2             0.1037     0.0053    -0.0566 C.ar    
   3 C3             0.4437     0.7190     1.0881 C.ar    
   4 N4             1.5894     1.3796     1.1160 N.ar    
   5 C5             2.4028     1.3673     0.0791 C.ar    
   6 N6             2.1162     0.7034    -1.0227 N.ar    
   7 C7            -1.0001    -2.0394    -0.1998 C.ar    
   8 N8             0.1783    -2.6347    -0.2946 N.ar    
   9 C9             0.2911    -3.9485    -0.3639 C.ar    
  10 C10           -0.8246    -4.7571    -0.3398 C.ar    
  11 C11           -2.0879    -4.1716    -0.2407 C.ar    
  12 C12           -2.1693    -2.7844    -0.1697 C.ar    
  13 N13           -3.2399    -4.9576    -0.2139 N.am    
  14 C14           -4.2965    -4.5795     0.5325 C.2     
  15 O15           -1.0644    -0.6862    -0.1256 O.3     
  16 C16           -5.4816    -5.4570     0.6338 C.ar    
  17 C17           -6.5775    -5.0683     1.4059 C.ar    
  18 C18           -7.6809    -5.8917     1.4966 C.ar    
  19 C19           -7.7031    -7.1004     0.8244 C.ar    
  20 C20           -6.6196    -7.4925     0.0565 C.ar    
  21 C21           -5.5120    -6.6753    -0.0471 C.ar    
  22 O22           -4.2747    -3.5169     1.1224 O.2     
  23 Br23          -6.6602    -9.1472    -0.8579 Br      
  24 H24            0.7634    -0.5273    -2.0331 H       
  25 H25           -0.2182     0.7337     1.9414 H       
  26 H26            3.3306     1.9173     0.1338 H       
  27 H27            1.2712    -4.3956    -0.4408 H       
  28 H28           -0.7228    -5.8307    -0.3973 H       
  29 H29           -3.1290    -2.2951    -0.0919 H       
  30 H30           -3.2805    -5.7763    -0.7325 H       
  31 H31           -6.5616    -4.1251     1.9317 H       
  32 H32           -8.5291    -5.5920     2.0941 H       
  33 H33           -8.5692    -7.7413     0.8990 H       
  34 H34           -4.6673    -6.9818    -0.6462 H       
@<TRIPOS>BOND
   1    1    2 ar
   2    1    6 ar
   3    1   24 1
   4    2    3 ar
   5    2   15 1
   6    3    4 ar
   7    3   25 1
   8    4    5 ar
   9    5    6 ar
  10    5   26 1
  11    7    8 ar
  12    7   12 ar
  13    7   15 1
  14    8    9 ar
  15    9   10 ar
  16    9   27 1
  17   10   11 ar
  18   10   28 1
  19   11   12 ar
  20   11   13 1
  21   12   29 1
  22   13   14 am
  23   13   30 1
  24   14   16 1
  25   14   22 2
  26   16   17 ar
  27   16   21 ar
  28   17   18 ar
  29   17   31 1
  30   18   19 ar
  31   18   32 1
  32   19   20 ar
  33   19   33 1
  34   20   21 ar
  35   20   23 1
  36   21   34 1

#	End of record

