#	Name: ASD01770003
#	Creating user name:	WinNT
#	Creation time:	15. 06. 2019 19:23

#	Modifying user name:	WinNT
#	Modification time:	15. 06. 2019 19:23

#	Program:	/corina/corina34_cracker 3.40 0067  02.08.2006

@<TRIPOS>MOLECULE
ASD01770003
  45   46    0    0    0
SMALL
NO_CHARGES


@<TRIPOS>ATOM
   1 O1            -0.0173     1.4248     0.0099 O.3     
   2 C2             0.0021    -0.0041     0.0020 C.3     
   3 C3             0.6933    -0.4966    -1.2721 C.3     
   4 C4             2.1083     0.0868    -1.3342 C.3     
   5 C5             2.0216     1.6150    -1.2734 C.3     
   6 C6             1.2791     2.0260     0.0007 C.3     
   7 O7             0.7168    -0.4773     1.1454 O.3     
   8 O8             0.7656    -1.9237    -1.2550 O.3     
   9 O9             2.8723    -0.3931    -0.2260 O.3     
  10 O10            3.3393     2.1677    -1.2576 O.3     
  11 C11            1.1357     3.5487     0.0390 C.3     
  12 O12            0.5461     3.9406     1.2803 O.3     
  13 O13           -0.6622     5.7908     0.5300 O.3     
  14 C14            0.3669     5.3515     1.4189 C.3     
  15 C15           -0.0330     5.6762     2.8606 C.3     
  16 C16           -1.3735     5.0044     3.1739 C.3     
  17 C17           -2.4190     5.4784     2.1598 C.3     
  18 C18           -1.9269     5.1614     0.7452 C.3     
  19 C19           -2.9381     5.6857    -0.2763 C.3     
  20 O20           -2.5375     5.2897    -1.5896 O.3     
  21 O21           -3.6557     4.8030     2.3978 O.3     
  22 O22           -1.2296     3.5855     3.0844 O.3     
  23 O23            0.9675     5.1863     3.7556 O.3     
  24 H24           -1.0201    -0.3816     0.0302 H       
  25 H25            0.1261    -0.1701    -2.1437 H       
  26 H26            2.5864    -0.2145    -2.2662 H       
  27 H27            1.4813     1.9841    -2.1451 H       
  28 H28            1.8410     1.6916     0.8728 H       
  29 H29            0.3347    -0.2018     1.9899 H       
  30 H30           -0.0960    -2.3606    -1.2112 H       
  31 H31            2.9622    -1.3555    -0.1976 H       
  32 H32            3.8694     1.9431    -2.0345 H       
  33 H33            2.1191     4.0089    -0.0575 H       
  34 H34            0.4998     3.8746    -0.7841 H       
  35 H35            1.2990     5.8619     1.1764 H       
  36 H36           -0.1304     6.7556     2.9773 H       
  37 H37           -1.6916     5.2772     4.1802 H       
  38 H38           -2.5646     6.5538     2.2623 H       
  39 H39           -1.8203     4.0827     0.6307 H       
  40 H40           -3.9231     5.2733    -0.0571 H       
  41 H41           -2.9793     6.7735    -0.2214 H       
  42 H42           -3.1341     5.5884    -2.2896 H       
  43 H43           -4.0238     4.9554     3.2789 H       
  44 H44           -0.5768     3.2171     3.6953 H       
  45 H45            1.8448     5.5663     3.6109 H       
@<TRIPOS>BOND
   1    1    2 1
   2    1    6 1
   3    2    3 1
   4    2    7 1
   5    2   24 1
   6    3    4 1
   7    3    8 1
   8    3   25 1
   9    4    5 1
  10    4    9 1
  11    4   26 1
  12    5    6 1
  13    5   10 1
  14    5   27 1
  15    6   11 1
  16    6   28 1
  17    7   29 1
  18    8   30 1
  19    9   31 1
  20   10   32 1
  21   11   12 1
  22   11   33 1
  23   11   34 1
  24   12   14 1
  25   13   14 1
  26   13   18 1
  27   14   15 1
  28   14   35 1
  29   15   16 1
  30   15   23 1
  31   15   36 1
  32   16   17 1
  33   16   22 1
  34   16   37 1
  35   17   18 1
  36   17   21 1
  37   17   38 1
  38   18   19 1
  39   18   39 1
  40   19   20 1
  41   19   40 1
  42   19   41 1
  43   20   42 1
  44   21   43 1
  45   22   44 1
  46   23   45 1

#	End of record

