#	Name: ASD01816360
#	Creating user name:	WinNT
#	Creation time:	15. 06. 2019 19:35

#	Modifying user name:	WinNT
#	Modification time:	15. 06. 2019 19:35

#	Program:	/corina/corina34_cracker 3.40 0067  02.08.2006

@<TRIPOS>MOLECULE
ASD01816360
  49   54    0    0    0
SMALL
NO_CHARGES


@<TRIPOS>ATOM
   1 C1            -0.0167     1.3813     0.0096 C.ar    
   2 C2             0.0021    -0.0041     0.0020 C.ar    
   3 C3             1.1983    -0.6909    -0.0131 C.ar    
   4 C4             2.4015     0.0060    -0.0208 C.ar    
   5 C5             2.3790     1.4106    -0.0130 C.ar    
   6 C6             1.1663     2.0916     0.0022 C.ar    
   7 N7             3.6053    -0.6771    -0.0354 N.pl3   
   8 C8             4.7970    -0.0585    -0.0430 C.2     
   9 C9             4.9000     1.3103    -0.0371 C.2     
  10 C10            3.6670     2.1302    -0.0215 C.2     
  11 C11            5.9971     2.2730    -0.0429 C.2     
  12 N12            5.4245     3.4961    -0.0321 N.am    
  13 N13            4.0322     3.3799    -0.0193 N.2     
  14 O14            7.1912     2.0231    -0.0547 O.2     
  15 C15            3.5779    -2.1419    -0.0425 C.3     
  16 C16            3.5552    -2.6370    -1.4657 C.ar    
  17 C17            4.7429    -2.8860    -2.1285 C.ar    
  18 C18            4.7254    -3.3394    -3.4331 C.ar    
  19 C19            3.5137    -3.5456    -4.0786 C.ar    
  20 C20            2.3228    -3.2950    -3.4103 C.ar    
  21 C21            2.3467    -2.8467    -2.1041 C.ar    
  22 N22            3.4926    -4.0053    -5.4028 N.pl3   
  23 C23            2.3876    -4.2462    -6.1441 C.2     
  24 C24            2.7941    -4.6752    -7.3615 C.2     
  25 C25            4.1931    -4.6976    -7.3654 C.2     
  26 N26            4.6126    -4.2906    -6.1944 N.2     
  27 C27            6.1236     4.7037    -0.0330 C.ar    
  28 N28            7.4494     4.7043    -0.0507 N.ar    
  29 C29            5.4302     5.9128    -0.0211 C.ar    
  30 N30            6.0961     7.0529    -0.0225 N.ar    
  31 C31            7.4190     7.0475    -0.0351 C.ar    
  32 C32            8.1088     5.8503    -0.0520 C.ar    
  33 Cl33           3.6942     5.9196    -0.0051 Cl      
  34 H34           -0.9602     1.9068     0.0169 H       
  35 H35           -0.9288    -0.5516     0.0083 H       
  36 H36            1.2004    -1.7709    -0.0185 H       
  37 H37            1.1506     3.1715     0.0084 H       
  38 H38            5.6983    -0.6535    -0.0536 H       
  39 H39            4.4656    -2.5243     0.4612 H       
  40 H40            2.6861    -2.4911     0.4779 H       
  41 H41            5.6852    -2.7255    -1.6258 H       
  42 H42            5.6534    -3.5331    -3.9505 H       
  43 H43            1.3787    -3.4541    -3.9100 H       
  44 H44            1.4207    -2.6517    -1.5837 H       
  45 H45            1.3645    -4.1196    -5.8222 H       
  46 H46            2.1519    -4.9516    -8.1847 H       
  47 H47            4.8191    -4.9950    -8.1937 H       
  48 H48            7.9612     7.9815    -0.0363 H       
  49 H49            9.1888     5.8507    -0.0623 H       
@<TRIPOS>BOND
   1    1    2 ar
   2    1    6 ar
   3    1   34 1
   4    2    3 ar
   5    2   35 1
   6    3    4 ar
   7    3   36 1
   8    4    5 ar
   9    4    7 1
  10    5    6 ar
  11    5   10 1
  12    6   37 1
  13    7    8 1
  14    7   15 1
  15    8    9 2
  16    8   38 1
  17    9   10 1
  18    9   11 1
  19   10   13 2
  20   11   12 am
  21   11   14 2
  22   12   13 1
  23   12   27 1
  24   15   16 1
  25   15   39 1
  26   15   40 1
  27   16   17 ar
  28   16   21 ar
  29   17   18 ar
  30   17   41 1
  31   18   19 ar
  32   18   42 1
  33   19   20 ar
  34   19   22 1
  35   20   21 ar
  36   20   43 1
  37   21   44 1
  38   22   23 1
  39   22   26 1
  40   23   24 2
  41   23   45 1
  42   24   25 1
  43   24   46 1
  44   25   26 2
  45   25   47 1
  46   27   29 ar
  47   27   28 ar
  48   28   32 ar
  49   29   30 ar
  50   29   33 1
  51   30   31 ar
  52   31   32 ar
  53   31   48 1
  54   32   49 1

#	End of record

