#	Name: ASD01911261
#	Creating user name:	WinNT
#	Creation time:	15. 06. 2019 19:57

#	Modifying user name:	WinNT
#	Modification time:	15. 06. 2019 19:57

#	Program:	/corina/corina34_cracker 3.40 0067  02.08.2006

@<TRIPOS>MOLECULE
ASD01911261
  44   47    0    0    0
SMALL
NO_CHARGES


@<TRIPOS>ATOM
   1 C1            -1.1077     0.5114    -1.0170 C.3     
   2 C2            -0.3277    -0.5875    -0.2884 C.3     
   3 N3             0.8397    -0.9566    -1.1005 N.am    
   4 C4             1.7617     0.1019    -1.5344 C.3     
   5 C5             0.9583     1.1930    -2.2491 C.3     
   6 C6            -0.1666     1.6767    -1.3311 C.3     
   7 C7             1.0610    -2.2419    -1.4406 C.2     
   8 O8             1.9623    -2.5215    -2.2091 O.2     
   9 C9             0.2161    -3.3030    -0.8848 C.2     
  10 C10            2.7835    -0.4746    -2.4803 C.2     
  11 N11            4.0591    -0.6456    -2.2375 N.2     
  12 C12            4.5738    -1.1876    -3.3643 C.2     
  13 N13            3.5902    -1.3126    -4.2167 N.2     
  14 O14            2.5571    -0.9129    -3.7226 O.3     
  15 C15            5.9902    -1.5687    -3.5913 C.ar    
  16 C16            6.9356    -1.3762    -2.5863 C.ar    
  17 C17            8.2516    -1.7324    -2.8028 C.ar    
  18 C18            8.6321    -2.2794    -4.0147 C.ar    
  19 C19            7.6975    -2.4727    -5.0161 C.ar    
  20 C20            6.3781    -2.1255    -4.8083 C.ar    
  21 C21            8.1197    -3.0689    -6.3342 C.3     
  22 C22           -0.0791    -4.4861    -1.5015 C.2     
  23 C23           -0.8958    -5.3003    -0.7533 C.2     
  24 C24           -1.2581    -4.8033     0.4352 C.2     
  25 S25           -0.5739    -3.2605     0.6855 S.3     
  26 H26           -1.5159     0.1129    -1.9458 H       
  27 H27           -1.9215     0.8619    -0.3822 H       
  28 H28            0.0042    -0.2179     0.6819 H       
  29 H29           -0.9672    -1.4593    -0.1503 H       
  30 H30            2.2640     0.5277    -0.6658 H       
  31 H31            1.6149     2.0286    -2.4913 H       
  32 H32            0.5306     0.7881    -3.1663 H       
  33 H33           -0.7247     2.4704    -1.8278 H       
  34 H34            0.2603     2.0587    -0.4038 H       
  35 H35            6.6395    -0.9488    -1.6397 H       
  36 H36            8.9854    -1.5833    -2.0245 H       
  37 H37            9.6629    -2.5564    -4.1800 H       
  38 H38            5.6491    -2.2772    -5.5906 H       
  39 H39            8.0269    -4.1539    -6.2886 H       
  40 H40            7.4813    -2.6826    -7.1288 H       
  41 H41            9.1564    -2.8012    -6.5385 H       
  42 H42            0.2920    -4.7546    -2.4796 H       
  43 H43           -1.2216    -6.2701    -1.0995 H       
  44 H44           -1.8951    -5.3126     1.1431 H       
@<TRIPOS>BOND
   1    1    2 1
   2    1    6 1
   3    1   26 1
   4    1   27 1
   5    2    3 1
   6    2   28 1
   7    2   29 1
   8    3    4 1
   9    3    7 am
  10    4    5 1
  11    4   10 1
  12    4   30 1
  13    5    6 1
  14    5   31 1
  15    5   32 1
  16    6   33 1
  17    6   34 1
  18    7    8 2
  19    7    9 1
  20    9   22 2
  21    9   25 1
  22   10   11 2
  23   10   14 1
  24   11   12 1
  25   12   13 2
  26   12   15 1
  27   13   14 1
  28   15   16 ar
  29   15   20 ar
  30   16   17 ar
  31   16   35 1
  32   17   18 ar
  33   17   36 1
  34   18   19 ar
  35   18   37 1
  36   19   20 ar
  37   19   21 1
  38   20   38 1
  39   21   39 1
  40   21   40 1
  41   21   41 1
  42   22   23 1
  43   22   42 1
  44   23   24 2
  45   23   43 1
  46   24   25 1
  47   24   44 1

#	End of record

