#	Name: ASD09890045
#	Creating user name:	WinNT
#	Creation time:	15. 06. 2019 21:24

#	Modifying user name:	WinNT
#	Modification time:	15. 06. 2019 21:24

#	Program:	/corina/corina34_cracker 3.40 0067  02.08.2006

@<TRIPOS>MOLECULE
ASD09890045
  45   48    0    0    0
SMALL
NO_CHARGES


@<TRIPOS>ATOM
   1 C1            -0.0167     1.3784     0.0096 C.ar    
   2 C2             0.0021    -0.0041     0.0020 C.ar    
   3 C3             1.2074    -0.6814    -0.0127 C.ar    
   4 C4             2.3963     0.0221    -0.0203 C.ar    
   5 C5             2.3802     1.4093    -0.0132 C.ar    
   6 C6             1.1695     2.0865     0.0021 C.ar    
   7 O7             3.5484     2.1036    -0.0202 O.3     
   8 C8             3.4557     3.5296    -0.0122 C.3     
   9 C9             4.8408     4.1231    -0.0217 C.2     
  10 N10            5.5772     4.4485    -1.1299 N.pl3   
  11 C11            6.7576     4.9500    -0.6542 C.2     
  12 N12            6.6913     4.9099     0.6565 N.2     
  13 N13            5.5580     4.4273     1.0229 N.2     
  14 S14            8.1109     5.5374    -1.6177 S.3     
  15 C15            9.2528     6.0154    -0.2972 C.3     
  16 C16           10.5978     6.4592    -0.8985 C.3     
  17 C17           10.8077     7.9272    -0.4732 C.3     
  18 C18            9.9434     8.0802     0.8030 C.3     
  19 C19            8.6922     7.2291     0.4725 C.3     
  20 C20            5.1998     4.2980    -2.4725 C.ar    
  21 C21            5.0267     5.4140    -3.2868 C.ar    
  22 C22            4.6536     5.2148    -4.6058 C.ar    
  23 C23            4.4667     3.9248    -5.0670 C.ar    
  24 N24            4.6389     2.8888    -4.2697 N.ar    
  25 C25            4.9992     3.0343    -3.0100 C.ar    
  26 H26           -0.9595     1.9052     0.0170 H       
  27 H27           -0.9263    -0.5558     0.0080 H       
  28 H28            1.2194    -1.7613    -0.0179 H       
  29 H29            3.3375    -0.5074    -0.0315 H       
  30 H30            1.1543     3.1664     0.0073 H       
  31 H31            2.9113     3.8632    -0.8956 H       
  32 H32            2.9274     3.8543     0.8842 H       
  33 H33            9.4064     5.1787     0.3843 H       
  34 H34           11.4043     5.8385    -0.5082 H       
  35 H35           10.5629     6.3868    -1.9855 H       
  36 H36           11.8578     8.1125    -0.2473 H       
  37 H37           10.4592     8.6039    -1.2533 H       
  38 H38           10.4644     7.6796     1.6727 H       
  39 H39            9.6701     9.1234     0.9617 H       
  40 H40            8.0020     7.7931    -0.1549 H       
  41 H41            8.1985     6.9050     1.3886 H       
  42 H42            5.1792     6.4106    -2.8994 H       
  43 H43            4.5099     6.0572    -5.2661 H       
  44 H44            4.1754     3.7635    -6.0944 H       
  45 H45            5.1305     2.1617    -2.3874 H       
@<TRIPOS>BOND
   1    1    2 ar
   2    1    6 ar
   3    1   26 1
   4    2    3 ar
   5    2   27 1
   6    3    4 ar
   7    3   28 1
   8    4    5 ar
   9    4   29 1
  10    5    6 ar
  11    5    7 1
  12    6   30 1
  13    7    8 1
  14    8    9 1
  15    8   31 1
  16    8   32 1
  17    9   10 1
  18    9   13 2
  19   10   11 1
  20   10   20 1
  21   11   12 2
  22   11   14 1
  23   12   13 1
  24   14   15 1
  25   15   16 1
  26   15   19 1
  27   15   33 1
  28   16   17 1
  29   16   34 1
  30   16   35 1
  31   17   18 1
  32   17   36 1
  33   17   37 1
  34   18   19 1
  35   18   38 1
  36   18   39 1
  37   19   40 1
  38   19   41 1
  39   20   21 ar
  40   20   25 ar
  41   21   22 ar
  42   21   42 1
  43   22   23 ar
  44   22   43 1
  45   23   24 ar
  46   23   44 1
  47   24   25 ar
  48   25   45 1

#	End of record

