#	Name: ASD02408465
#	Creating user name:	WinNT
#	Creation time:	15. 06. 2019 20:21

#	Modifying user name:	WinNT
#	Modification time:	15. 06. 2019 20:21

#	Program:	/corina/corina34_cracker 3.40 0067  02.08.2006

@<TRIPOS>MOLECULE
ASD02408465
  45   47    0    0    0
SMALL
NO_CHARGES


@<TRIPOS>ATOM
   1 C1             0.2502     1.1100    -0.2074 C.2     
   2 C2             0.1606    -0.2889    -0.1333 C.2     
   3 N3            -1.1630    -0.5913    -0.0950 N.pl3   
   4 N4            -1.8893     0.6052    -0.1445 N.2     
   5 C5            -1.0641     1.6130    -0.2160 C.2     
   6 C6            -1.7334    -1.9384    -0.0161 C.3     
   7 C7            -2.5746    -2.0624     1.2559 C.3     
   8 C8            -1.6674    -1.9372     2.4815 C.3     
   9 C9            -1.7521    -2.2025    -2.5005 C.3     
  10 C10           -2.6177    -2.1902    -1.2390 C.3     
  11 C11            1.5817     1.7135    -0.2619 C.2     
  12 N12            2.6476     0.8795    -0.2374 N.am    
  13 N13            1.2883    -1.0168    -0.1149 N.2     
  14 O14            1.7258     2.9215    -0.3275 O.2     
  15 C15            2.4643    -0.4630    -0.1646 C.2     
  16 C16            3.6796    -1.3538    -0.1402 C.3     
  17 C17            3.2382    -2.8164    -0.0566 C.3     
  18 C18            4.4626    -3.7430    -0.1567 C.3     
  19 C19            4.5120    -4.5514     1.1562 C.3     
  20 C20            3.0518    -4.5272     1.6723 C.3     
  21 C21            2.5863    -3.0941     1.3136 C.3     
  22 H22           -1.3419     2.6555    -0.2665 H       
  23 H23           -0.9284    -2.6729     0.0076 H       
  24 H24           -3.3229    -1.2701     1.2753 H       
  25 H25           -3.0719    -3.0323     1.2695 H       
  26 H26           -2.2485    -2.1247     3.3844 H       
  27 H27           -0.8596    -2.6657     2.4116 H       
  28 H28           -1.2477    -0.9321     2.5217 H       
  29 H29           -0.9529    -2.9348    -2.3857 H       
  30 H30           -2.3670    -2.4676    -3.3605 H       
  31 H31           -1.3196    -1.2138    -2.6541 H       
  32 H32           -3.1190    -3.1523    -1.1329 H       
  33 H33           -3.3631    -1.3988    -1.3175 H       
  34 H34            3.5462     1.2430    -0.2723 H       
  35 H35            4.2604    -1.2010    -1.0498 H       
  36 H36            4.2922    -1.1090     0.7275 H       
  37 H37            2.5342    -3.0401    -0.8581 H       
  38 H38            4.3524    -4.4169    -1.0063 H       
  39 H39            5.3713    -3.1507    -0.2649 H       
  40 H40            4.8310    -5.5755     0.9618 H       
  41 H41            5.1783    -4.0730     1.8740 H       
  42 H42            2.4466    -5.2710     1.1541 H       
  43 H43            3.0205    -4.6851     2.7503 H       
  44 H44            2.9416    -2.3804     2.0569 H       
  45 H45            1.4999    -3.0546     1.2342 H       
@<TRIPOS>BOND
   1    1    2 2
   2    1   11 1
   3    1    5 1
   4    2    3 1
   5    2   13 1
   6    3    4 1
   7    3    6 1
   8    4    5 2
   9    5   22 1
  10    6    7 1
  11    6   10 1
  12    6   23 1
  13    7    8 1
  14    7   24 1
  15    7   25 1
  16    8   26 1
  17    8   27 1
  18    8   28 1
  19    9   10 1
  20    9   29 1
  21    9   30 1
  22    9   31 1
  23   10   32 1
  24   10   33 1
  25   11   12 am
  26   11   14 2
  27   12   15 1
  28   12   34 1
  29   13   15 2
  30   15   16 1
  31   16   17 1
  32   16   35 1
  33   16   36 1
  34   17   18 1
  35   17   21 1
  36   17   37 1
  37   18   19 1
  38   18   38 1
  39   18   39 1
  40   19   20 1
  41   19   40 1
  42   19   41 1
  43   20   21 1
  44   20   42 1
  45   20   43 1
  46   21   44 1
  47   21   45 1

#	End of record

