#	Name: ASD02030052
#	Creating user name:	WinNT
#	Creation time:	15. 06. 2019 20:14

#	Modifying user name:	WinNT
#	Modification time:	15. 06. 2019 20:14

#	Program:	/corina/corina34_cracker 3.40 0067  02.08.2006

@<TRIPOS>MOLECULE
ASD02030052
  51   53    0    0    0
SMALL
NO_CHARGES


@<TRIPOS>ATOM
   1 C1            -0.0168     1.3861     0.0097 C.ar    
   2 C2             0.0021    -0.0041     0.0020 C.ar    
   3 C3            -1.1791    -0.7109     0.0095 C.ar    
   4 C4            -2.4008    -0.0274     0.0253 C.ar    
   5 C5            -2.4142     1.3724     0.0334 C.ar    
   6 C6            -1.2273     2.0696     0.0307 C.ar    
   7 O7             1.1507     2.0783     0.0022 O.3     
   8 C8            -3.6649    -0.7769     0.0329 C.2     
   9 C9            -4.8424    -0.1151     0.0481 C.2     
  10 C10           -6.0620    -0.8382     0.0554 C.2     
  11 O11           -7.2382    -0.1771     0.0706 O.3     
  12 O12           -6.0480    -2.0545     0.0479 O.2     
  13 C13           -8.4275    -0.9692     0.0772 C.3     
  14 C14           -9.6331    -0.0652     0.0942 C.2     
  15 N15          -10.8724    -0.5947     0.1029 N.am    
  16 O16           -9.4881     1.1389     0.1001 O.2     
  17 C17          -11.9817     0.2371     0.1185 C.2     
  18 C18          -13.2779    -0.1964     0.1282 C.2     
  19 S19          -11.9155     1.9382     0.1355 S.3     
  20 C20          -13.6649     2.0899     0.1484 C.2     
  21 C21          -14.2462     0.8847     0.1441 C.2     
  22 C22          -14.4217     3.4041     0.1675 C.3     
  23 C23          -15.8739     3.1416    -0.2407 C.3     
  24 C24          -16.4249     1.9802     0.5920 C.3     
  25 C25          -15.7527     0.6794     0.1527 C.3     
  26 C26          -16.7118     4.3963     0.0134 C.3     
  27 C27          -13.6531    -1.6138     0.1228 C.2     
  28 O28          -13.7990    -2.2087     1.1745 O.2     
  29 N29          -13.8364    -2.2578    -1.0469 N.am    
  30 H30            0.9451    -0.5303    -0.0102 H       
  31 H31           -1.1634    -1.7907     0.0028 H       
  32 H32           -3.3540     1.9044     0.0456 H       
  33 H33           -1.2365     3.1496     0.0369 H       
  34 H34            1.4806     2.2837    -0.8833 H       
  35 H35           -3.6524    -1.8568     0.0262 H       
  36 H36           -4.8549     0.9648     0.0547 H       
  37 H37           -8.4536    -1.5929    -0.8163 H       
  38 H38           -8.4366    -1.6037     0.9635 H       
  39 H39          -10.9884    -1.5577     0.0982 H       
  40 H40          -14.3951     3.8267     1.1718 H       
  41 H41          -13.9643     4.0995    -0.5363 H       
  42 H42          -15.9142     2.8829    -1.2988 H       
  43 H43          -16.2146     2.1565     1.6469 H       
  44 H44          -17.5018     1.9034     0.4423 H       
  45 H45          -16.0884     0.4151    -0.8501 H       
  46 H46          -16.0109    -0.1186     0.8488 H       
  47 H47          -16.3139     5.2240    -0.5738 H       
  48 H48          -17.7452     4.2082    -0.2775 H       
  49 H49          -16.6731     4.6507     1.0726 H       
  50 H50          -13.7200    -1.7837    -1.8851 H       
  51 H51          -14.0846    -3.1955    -1.0505 H       
@<TRIPOS>BOND
   1    1    2 ar
   2    1    7 1
   3    1    6 ar
   4    2    3 ar
   5    2   30 1
   6    3    4 ar
   7    3   31 1
   8    4    5 ar
   9    4    8 1
  10    5    6 ar
  11    5   32 1
  12    6   33 1
  13    7   34 1
  14    8    9 2
  15    8   35 1
  16    9   10 1
  17    9   36 1
  18   10   11 1
  19   10   12 2
  20   11   13 1
  21   13   14 1
  22   13   37 1
  23   13   38 1
  24   14   15 am
  25   14   16 2
  26   15   17 1
  27   15   39 1
  28   17   18 2
  29   17   19 1
  30   18   27 1
  31   18   21 1
  32   19   20 1
  33   20   21 2
  34   20   22 1
  35   21   25 1
  36   22   23 1
  37   22   40 1
  38   22   41 1
  39   23   24 1
  40   23   26 1
  41   23   42 1
  42   24   25 1
  43   24   43 1
  44   24   44 1
  45   25   45 1
  46   25   46 1
  47   26   47 1
  48   26   48 1
  49   26   49 1
  50   27   28 2
  51   27   29 am
  52   29   50 1
  53   29   51 1

#	End of record

