#	Name: ASD01910380
#	Creating user name:	WinNT
#	Creation time:	15. 06. 2019 19:55

#	Modifying user name:	WinNT
#	Modification time:	15. 06. 2019 19:55

#	Program:	/corina/corina34_cracker 3.40 0067  02.08.2006

@<TRIPOS>MOLECULE
ASD01910380
  65   68    0    0    0
SMALL
NO_CHARGES


@<TRIPOS>ATOM
   1 C1             1.1097     1.8063    -0.3863 C.ar    
   2 C2             0.9918     0.3795    -0.3575 C.1     
   3 C3             0.8951    -0.7903    -0.3338 C.1     
   4 C4             0.7772    -2.2171    -0.3050 C.ar    
   5 C5             1.5676    -3.0021    -1.1519 C.ar    
   6 C6             1.4549    -4.3628    -1.1236 C.ar    
   7 C7             0.5499    -4.9716    -0.2490 C.ar    
   8 C8            -0.2404    -4.1879     0.5972 C.ar    
   9 C9            -0.1243    -2.8274     0.5743 C.ar    
  10 C10            0.4284    -6.4426    -0.2192 C.2     
  11 O11           -0.6688    -6.9604    -0.1398 O.2     
  12 N12            1.5336    -7.2114    -0.2801 N.am    
  13 C13            0.3219     2.5933     0.4583 C.ar    
  14 C14            0.4410     3.9669     0.4248 C.ar    
  15 C15            1.3375     4.5662    -0.4425 C.ar    
  16 C16            2.1209     3.7936    -1.2817 C.ar    
  17 C17            2.0174     2.4186    -1.2551 C.ar    
  18 C18            1.4364    -8.6727    -0.1618 C.3     
  19 C19            2.3813    -9.1414     0.9492 C.3     
  20 C20            3.7938    -8.6265     0.6629 C.3     
  21 C21            3.7875    -7.0962     0.6479 C.3     
  22 C22            2.8579    -6.6048    -0.4721 C.3     
  23 N23            4.7093    -9.1019     1.7089 N.3     
  24 C24            5.2132   -10.4459     1.3964 C.3     
  25 C25            5.6045   -11.1580     2.6928 C.3     
  26 C26            6.1293   -12.5578     2.3673 C.3     
  27 C27            6.5207   -13.2700     3.6637 C.3     
  28 C28            7.6123   -12.4689     4.3761 C.3     
  29 C29            7.0875   -11.0690     4.7015 C.3     
  30 C30            6.6962   -10.3569     3.4051 C.3     
  31 C31            6.4383   -10.3326     0.4869 C.3     
  32 H32            2.2662    -2.5319    -1.8281 H       
  33 H33            2.0649    -4.9688    -1.7772 H       
  34 H34           -0.9398    -4.6588     1.2720 H       
  35 H35           -0.7348    -2.2221     1.2280 H       
  36 H36           -0.3787     2.1270     1.1351 H       
  37 H37           -0.1672     4.5763     1.0769 H       
  38 H38            1.4259     5.6424    -0.4647 H       
  39 H39            2.8181     4.2683    -1.9561 H       
  40 H40            2.6295     1.8168    -1.9106 H       
  41 H41            0.4126    -8.9519     0.0873 H       
  42 H42            1.7242    -9.1357    -1.1057 H       
  43 H43            2.0387    -8.7503     1.9072 H       
  44 H44            2.3911   -10.2308     0.9829 H       
  45 H45            4.1262    -8.9978    -0.3065 H       
  46 H46            3.4316    -6.7244     1.6087 H       
  47 H47            4.7981    -6.7300     0.4672 H       
  48 H48            3.2640    -6.8996    -1.4397 H       
  49 H49            2.7715    -5.5192    -0.4253 H       
  50 H50            5.4700    -8.4533     1.8457 H       
  51 H51            4.4355   -11.0166     0.8889 H       
  52 H52            4.7317   -11.2388     3.3407 H       
  53 H53            5.3516   -13.1285     1.8598 H       
  54 H54            7.0021   -12.4771     1.7194 H       
  55 H55            5.6479   -13.3507     4.3116 H       
  56 H56            6.8946   -14.2672     3.4318 H       
  57 H57            7.8911   -12.9762     5.2997 H       
  58 H58            8.4851   -12.3881     3.7282 H       
  59 H59            6.2147   -11.1498     5.3495 H       
  60 H60            7.8652   -10.4984     5.2091 H       
  61 H61            7.5690   -10.2762     2.7572 H       
  62 H62            6.3223    -9.3597     3.6370 H       
  63 H63            6.7749   -11.3301     0.2048 H       
  64 H64            6.1747    -9.7710    -0.4094 H       
  65 H65            7.2380    -9.8158     1.0174 H       
@<TRIPOS>BOND
   1    1    2 1
   2    1   13 ar
   3    1   17 ar
   4    2    3 3
   5    3    4 1
   6    4    5 ar
   7    4    9 ar
   8    5    6 ar
   9    5   32 1
  10    6    7 ar
  11    6   33 1
  12    7    8 ar
  13    7   10 1
  14    8    9 ar
  15    8   34 1
  16    9   35 1
  17   10   11 2
  18   10   12 am
  19   12   18 1
  20   12   22 1
  21   13   14 ar
  22   13   36 1
  23   14   15 ar
  24   14   37 1
  25   15   16 ar
  26   15   38 1
  27   16   17 ar
  28   16   39 1
  29   17   40 1
  30   18   19 1
  31   18   41 1
  32   18   42 1
  33   19   20 1
  34   19   43 1
  35   19   44 1
  36   20   21 1
  37   20   23 1
  38   20   45 1
  39   21   22 1
  40   21   46 1
  41   21   47 1
  42   22   48 1
  43   22   49 1
  44   23   24 1
  45   23   50 1
  46   24   25 1
  47   24   31 1
  48   24   51 1
  49   25   26 1
  50   25   30 1
  51   25   52 1
  52   26   27 1
  53   26   53 1
  54   26   54 1
  55   27   28 1
  56   27   55 1
  57   27   56 1
  58   28   29 1
  59   28   57 1
  60   28   58 1
  61   29   30 1
  62   29   59 1
  63   29   60 1
  64   30   61 1
  65   30   62 1
  66   31   63 1
  67   31   64 1
  68   31   65 1

#	End of record

