#	Name: ASD01814444
#	Creating user name:	WinNT
#	Creation time:	15. 06. 2019 19:32

#	Modifying user name:	WinNT
#	Modification time:	15. 06. 2019 19:32

#	Program:	/corina/corina34_cracker 3.40 0067  02.08.2006

@<TRIPOS>MOLECULE
ASD01814444
  47   51    0    0    0
SMALL
NO_CHARGES


@<TRIPOS>ATOM
   1 C1            -0.0204     1.3733     0.1434 C.ar    
   2 C2             0.0112    -0.0082     0.2488 C.ar    
   3 C3             1.2040    -0.6965     0.1506 C.ar    
   4 C4             2.3903    -0.0009    -0.0564 C.ar    
   5 C5             2.3522     1.4027    -0.1627 C.ar    
   6 C6             1.1462     2.0827    -0.0622 C.ar    
   7 N7             3.5986    -0.6600    -0.1584 N.pl3   
   8 N8             4.7188    -0.0650    -0.3486 N.2     
   9 C9             4.8417     1.2318    -0.4671 C.2     
  10 C10            3.6367     2.0929    -0.3820 C.2     
  11 C11            5.9525     2.1616    -0.6830 C.2     
  12 N12            5.4087     3.3973    -0.7118 N.am    
  13 N13            4.0254     3.3239    -0.5294 N.2     
  14 C14            3.6020    -2.1204    -0.0426 C.3     
  15 C15            5.0125    -2.6322    -0.1822 C.ar    
  16 C16            5.8097    -2.7754     0.9381 C.ar    
  17 C17            7.1037    -3.2443     0.8103 C.ar    
  18 C18            7.6006    -3.5706    -0.4383 C.ar    
  19 C19            6.8027    -3.4277    -1.5588 C.ar    
  20 C20            5.5071    -2.9636    -1.4298 C.ar    
  21 O21            7.1318     1.8770    -0.8106 O.2     
  22 C22            6.1622     4.6386    -0.9060 C.3     
  23 I23            9.5620    -4.2808    -0.6325 I       
  24 C24            5.6561     5.3531    -2.1618 C.3     
  25 O25            6.3524     6.5913    -2.3171 O.3     
  26 C26            6.1657     7.5054    -1.2346 C.3     
  27 C27            6.6924     6.8773     0.0584 C.3     
  28 C28            5.9643     5.5528     0.3069 C.3     
  29 Cl29           1.2230    -2.4271     0.2859 Cl      
  30 H30           -0.9621     1.8969     0.2179 H       
  31 H31           -0.9076    -0.5525     0.4099 H       
  32 H32            1.1206     3.1593    -0.1439 H       
  33 H33            3.2056    -2.4086     0.9310 H       
  34 H34            2.9806    -2.5487    -0.8291 H       
  35 H35            5.4216    -2.5205     1.9131 H       
  36 H36            7.7267    -3.3555     1.6855 H       
  37 H37            7.1907    -3.6821    -2.5341 H       
  38 H38            4.8840    -2.8520    -2.3048 H       
  39 H39            7.2214     4.4076    -1.0203 H       
  40 H40            5.8336     4.7243    -3.0343 H       
  41 H41            4.5878     5.5466    -2.0643 H       
  42 H42            6.7104     8.4271    -1.4391 H       
  43 H43            5.1041     7.7270    -1.1250 H       
  44 H44            7.7625     6.6926    -0.0359 H       
  45 H45            6.5109     7.5549     0.8927 H       
  46 H46            4.9006     5.7428     0.4506 H       
  47 H47            6.3736     5.0729     1.1959 H       
@<TRIPOS>BOND
   1    1    2 ar
   2    1    6 ar
   3    1   30 1
   4    2    3 ar
   5    2   31 1
   6    3    4 ar
   7    3   29 1
   8    4    5 ar
   9    4    7 1
  10    5    6 ar
  11    5   10 1
  12    6   32 1
  13    7    8 1
  14    7   14 1
  15    8    9 2
  16    9   10 1
  17    9   11 1
  18   10   13 2
  19   11   12 am
  20   11   21 2
  21   12   13 1
  22   12   22 1
  23   14   15 1
  24   14   33 1
  25   14   34 1
  26   15   16 ar
  27   15   20 ar
  28   16   17 ar
  29   16   35 1
  30   17   18 ar
  31   17   36 1
  32   18   19 ar
  33   18   23 1
  34   19   20 ar
  35   19   37 1
  36   20   38 1
  37   22   24 1
  38   22   28 1
  39   22   39 1
  40   24   25 1
  41   24   40 1
  42   24   41 1
  43   25   26 1
  44   26   27 1
  45   26   42 1
  46   26   43 1
  47   27   28 1
  48   27   44 1
  49   27   45 1
  50   28   46 1
  51   28   47 1

#	End of record

