#	Name: ASD01150004
#	Creating user name:	WinNT
#	Creation time:	15. 06. 2019 19:03

#	Modifying user name:	WinNT
#	Modification time:	15. 06. 2019 19:03

#	Program:	/corina/corina34_cracker 3.40 0067  02.08.2006

@<TRIPOS>MOLECULE
ASD01150004
  56   58    0    0    0
SMALL
NO_CHARGES


@<TRIPOS>ATOM
   1 C1             1.3142     0.6460    -0.2178 C.3     
   2 C2             0.7029    -0.7565    -0.2380 C.3     
   3 C3            -1.4126    -2.0635     0.0045 C.3     
   4 N4             2.7585     0.5544    -0.4699 N.3     
   5 C5             3.3804     1.8851    -0.4579 C.3     
   6 C6             3.7229     2.2750     0.9814 C.3     
   7 C7             4.6403     1.8583    -1.2844 C.ar    
   8 C8             4.9528     2.9278    -2.1014 C.ar    
   9 C9             6.1126     2.9024    -2.8619 C.ar    
  10 C10            6.9561     1.8025    -2.8000 C.ar    
  11 C11            6.6392     0.7358    -1.9817 C.ar    
  12 C12            5.4852     0.7660    -1.2202 C.ar    
  13 C13           -0.8581    -2.8696     1.1507 C.ar    
  14 C14           -0.9024    -2.3639     2.4365 C.ar    
  15 C15           -0.3938    -3.1033     3.4879 C.ar    
  16 C16            0.1587    -4.3486     3.2536 C.ar    
  17 C17            0.2021    -4.8547     1.9680 C.ar    
  18 C18           -0.3104    -4.1171     0.9171 C.ar    
  19 C19           -2.9099    -1.9609     0.1404 C.ar    
  20 C20           -3.7319    -2.6084    -0.7628 C.ar    
  21 C21           -5.1054    -2.5142    -0.6381 C.ar    
  22 C22           -5.6569    -1.7729     0.3901 C.ar    
  23 C23           -4.8349    -1.1262     1.2939 C.ar    
  24 C24           -3.4614    -1.2239     1.1718 C.ar    
  25 O25            6.4219     3.9530    -3.6666 O.3     
  26 C26            7.6318     3.8581    -4.4210 C.3     
  27 C27           -0.8013    -0.6610     0.0246 C.3     
  28 H28            0.8483     1.2565    -0.9914 H       
  29 H29            1.1438     1.1026     0.7571 H       
  30 H30            0.8733    -1.2131    -1.2129 H       
  31 H31            1.1688    -1.3670     0.5356 H       
  32 H32           -1.1660    -2.5538    -0.9373 H       
  33 H33            3.2036    -0.0589     0.1963 H       
  34 H34            2.6867     2.6142    -0.8766 H       
  35 H35            4.1844     3.2625     0.9903 H       
  36 H36            2.8117     2.2945     1.5792 H       
  37 H37            4.4166     1.5460     1.4000 H       
  38 H38            4.2944     3.7827    -2.1481 H       
  39 H39            7.8595     1.7802    -3.3914 H       
  40 H40            7.2952    -0.1207    -1.9335 H       
  41 H41            5.2416    -0.0670    -0.5774 H       
  42 H42           -1.3341    -1.3910     2.6195 H       
  43 H43           -0.4278    -2.7079     4.4923 H       
  44 H44            0.5567    -4.9260     4.0750 H       
  45 H45            0.6341    -5.8275     1.7849 H       
  46 H46           -0.2798    -4.5141    -0.0868 H       
  47 H47           -3.3011    -3.1875    -1.5662 H       
  48 H48           -5.7476    -3.0195    -1.3443 H       
  49 H49           -6.7300    -1.6988     0.4871 H       
  50 H50           -5.2657    -0.5468     2.0971 H       
  51 H51           -2.8192    -0.7216     1.8801 H       
  52 H52            7.5830     2.9900    -5.0784 H       
  53 H53            7.7587     4.7603    -5.0193 H       
  54 H54            8.4768     3.7515    -3.7407 H       
  55 H55           -0.9717    -0.2044     0.9996 H       
  56 H56           -1.2672    -0.0505    -0.7489 H       
@<TRIPOS>BOND
   1    1    2 1
   2    1    4 1
   3    1   28 1
   4    1   29 1
   5    2   27 1
   6    2   30 1
   7    2   31 1
   8    3   13 1
   9    3   19 1
  10    3   27 1
  11    3   32 1
  12    4    5 1
  13    4   33 1
  14    5    6 1
  15    5    7 1
  16    5   34 1
  17    6   35 1
  18    6   36 1
  19    6   37 1
  20    7    8 ar
  21    7   12 ar
  22    8    9 ar
  23    8   38 1
  24    9   10 ar
  25    9   25 1
  26   10   11 ar
  27   10   39 1
  28   11   12 ar
  29   11   40 1
  30   12   41 1
  31   13   14 ar
  32   13   18 ar
  33   14   15 ar
  34   14   42 1
  35   15   16 ar
  36   15   43 1
  37   16   17 ar
  38   16   44 1
  39   17   18 ar
  40   17   45 1
  41   18   46 1
  42   19   20 ar
  43   19   24 ar
  44   20   21 ar
  45   20   47 1
  46   21   22 ar
  47   21   48 1
  48   22   23 ar
  49   22   49 1
  50   23   24 ar
  51   23   50 1
  52   24   51 1
  53   25   26 1
  54   26   52 1
  55   26   53 1
  56   26   54 1
  57   27   55 1
  58   27   56 1

#	End of record

