#	Name: ASD01870409
#	Creating user name:	WinNT
#	Creation time:	15. 06. 2019 19:39

#	Modifying user name:	WinNT
#	Modification time:	15. 06. 2019 19:39

#	Program:	/corina/corina34_cracker 3.40 0067  02.08.2006

@<TRIPOS>MOLECULE
ASD01870409
  28   30    0    0    0
SMALL
NO_CHARGES


@<TRIPOS>ATOM
   1 C1            -0.0162     1.3436     0.0094 C.2     
   2 N2             0.0021    -0.0041     0.0020 N.am    
   3 O3             1.0289     1.9661     0.0028 O.2     
   4 C4             1.2111    -0.6803    -0.0132 C.2     
   5 O5             2.4266    -0.1115    -0.0212 O.3     
   6 C6             3.3443    -1.1020    -0.0347 C.2     
   7 C7             2.6750    -2.2649    -0.0346 C.2     
   8 N8             1.3589    -1.9818    -0.0163 N.2     
   9 C9            -1.2993     2.0613     0.0194 C.2     
  10 C10           -2.5460     1.5157     0.0228 C.2     
  11 O11           -3.4669     2.4865     0.0328 O.3     
  12 C12           -2.8934     3.7076     0.0365 C.ar    
  13 C13           -1.5028     3.5238     0.0343 C.ar    
  14 C14           -0.6501     4.6224     0.0429 C.ar    
  15 C15           -1.1790     5.8957     0.0569 C.ar    
  16 C16           -2.5531     6.0801     0.0623 C.ar    
  17 C17           -3.4077     4.9981     0.0460 C.ar    
  18 C18            3.2871    -3.6419    -0.0477 C.3     
  19 H19           -0.8313    -0.5005     0.0073 H       
  20 H20            4.4174    -0.9807    -0.0441 H       
  21 H21           -2.7602     0.4572     0.0182 H       
  22 H22            0.4203     4.4790     0.0391 H       
  23 H23           -0.5209     6.7520     0.0640 H       
  24 H24           -2.9582     7.0812     0.0733 H       
  25 H25           -4.4764     5.1537     0.0523 H       
  26 H26            3.4444    -3.9794     0.9767 H       
  27 H27            2.6167    -4.3327    -0.5590 H       
  28 H28            4.2431    -3.6096    -0.5704 H       
@<TRIPOS>BOND
   1    1    2 am
   2    1    3 2
   3    1    9 1
   4    2    4 1
   5    2   19 1
   6    4    5 1
   7    4    8 2
   8    5    6 1
   9    6    7 2
  10    6   20 1
  11    7    8 1
  12    7   18 1
  13    9   10 2
  14    9   13 1
  15   10   11 1
  16   10   21 1
  17   11   12 1
  18   12   17 ar
  19   12   13 ar
  20   13   14 ar
  21   14   15 ar
  22   14   22 1
  23   15   16 ar
  24   15   23 1
  25   16   17 ar
  26   16   24 1
  27   17   25 1
  28   18   26 1
  29   18   27 1
  30   18   28 1

#	End of record

