#	Name: ASD01820052
#	Creating user name:	WinNT
#	Creation time:	15. 06. 2019 19:36

#	Modifying user name:	WinNT
#	Modification time:	15. 06. 2019 19:36

#	Program:	/corina/corina34_cracker 3.40 0067  02.08.2006

@<TRIPOS>MOLECULE
ASD01820052
  75   78    0    0    0
SMALL
NO_CHARGES


@<TRIPOS>ATOM
   1 C1            -0.0167     1.3779     0.0096 C.ar    
   2 C2             0.0021    -0.0041     0.0020 C.ar    
   3 C3             1.2065    -0.6905    -0.0132 C.ar    
   4 C4             2.3989     0.0148    -0.0209 C.ar    
   5 C5             2.3798     1.4244    -0.0131 C.ar    
   6 C6             1.1686     2.0969     0.0022 C.ar    
   7 C7             3.8260    -0.3702    -0.0371 C.2     
   8 N8             4.5720     0.7493    -0.0385 N.am    
   9 C9             3.7959     1.8480    -0.0249 C.2     
  10 O10            4.1924     2.9959    -0.0234 O.2     
  11 O11            4.2534    -1.5069    -0.0471 O.2     
  12 C12            6.0368     0.7692    -0.0519 C.3     
  13 C13            6.5334     0.7832    -1.4990 C.3     
  14 C14            8.0631     0.8041    -1.5131 C.3     
  15 N15            8.5399     0.8175    -2.9025 N.4     
  16 C16           10.0087     0.8375    -2.9160 C.3     
  17 C17           10.5053     0.8516    -4.3631 C.3     
  18 C18           12.0351     0.8724    -4.3771 C.3     
  19 N19           12.5119     0.8858    -5.7665 N.4     
  20 C20           13.9807     0.9058    -5.7800 C.3     
  21 C21           14.4773     0.9199    -7.2271 C.3     
  22 C22           16.0071     0.9407    -7.2411 C.3     
  23 N23           16.4826     0.9541    -8.6268 N.am    
  24 C24            8.0602    -0.3850    -3.5965 C.3     
  25 C25            8.0277     2.0136    -3.5844 C.3     
  26 C26           16.7146     2.0702    -9.3411 C.2     
  27 C27           17.1821     1.6789   -10.6876 C.ar    
  28 C28           17.2015     0.2694   -10.6947 C.ar    
  29 C29           16.7502    -0.1479    -9.3504 C.2     
  30 C30           17.5635     2.3788   -11.8208 C.ar    
  31 C31           17.9617     1.6871   -12.9543 C.ar    
  32 C32           17.9803     0.3052   -12.9613 C.ar    
  33 C33           17.6021    -0.4085   -11.8346 C.ar    
  34 O34           16.6335    -1.2940    -8.9659 O.2     
  35 O35           16.5650     3.2087    -8.9457 O.2     
  36 C36           12.0322    -0.3167    -6.4605 C.3     
  37 C37           11.9997     2.0819    -6.4484 C.3     
  38 H38           -0.9613     1.9013     0.0169 H       
  39 H39           -0.9280    -0.5530     0.0083 H       
  40 H40            1.2151    -1.7704    -0.0187 H       
  41 H41            1.1479     3.1766     0.0078 H       
  42 H42            6.3927     1.6615     0.4630 H       
  43 H43            6.4169    -0.1183     0.4541 H       
  44 H44            6.1774    -0.1091    -2.0140 H       
  45 H45            6.1533     1.6707    -2.0050 H       
  46 H46            8.4191     1.6964    -0.9981 H       
  47 H47            8.4432    -0.0834    -1.0071 H       
  48 H48           10.3647     1.7298    -2.4010 H       
  49 H49           10.3888    -0.0500    -2.4100 H       
  50 H50           10.1494    -0.0408    -4.8780 H       
  51 H51           10.1252     1.7390    -4.8690 H       
  52 H52           12.3911     1.7647    -3.8621 H       
  53 H53           12.4152    -0.0151    -3.8711 H       
  54 H54           14.3367     1.7981    -5.2650 H       
  55 H55           14.3608     0.0183    -5.2740 H       
  56 H56           14.1213     0.0276    -7.7420 H       
  57 H57           14.0972     1.8073    -7.7331 H       
  58 H58           16.3631     1.8330    -6.7262 H       
  59 H59           16.3872     0.0532    -6.7352 H       
  60 H60            6.9703    -0.3999    -3.5865 H       
  61 H61            8.4140    -0.3750    -4.6274 H       
  62 H62            8.4403    -1.2725    -3.0905 H       
  63 H63            8.3836     2.9059    -3.0694 H       
  64 H64            8.3815     2.0236    -4.6153 H       
  65 H65            6.9378     1.9988    -3.5744 H       
  66 H66           17.5502     3.4588   -11.8213 H       
  67 H67           18.2592     2.2319   -13.8381 H       
  68 H68           18.2922    -0.2224   -13.8506 H       
  69 H69           17.6188    -1.4883   -11.8457 H       
  70 H70           10.9423    -0.3316    -6.4505 H       
  71 H71           12.3860    -0.3067    -7.4915 H       
  72 H72           12.4123    -1.2042    -5.9545 H       
  73 H73           12.3556     2.9742    -5.9335 H       
  74 H74           12.3534     2.0919    -7.4794 H       
  75 H75           10.9098     2.0671    -6.4384 H       
@<TRIPOS>BOND
   1    1    2 ar
   2    1    6 ar
   3    1   38 1
   4    2    3 ar
   5    2   39 1
   6    3    4 ar
   7    3   40 1
   8    4    5 ar
   9    4    7 1
  10    5    6 ar
  11    5    9 1
  12    6   41 1
  13    7    8 am
  14    7   11 2
  15    8    9 am
  16    8   12 1
  17    9   10 2
  18   12   13 1
  19   12   42 1
  20   12   43 1
  21   13   14 1
  22   13   44 1
  23   13   45 1
  24   14   15 1
  25   14   46 1
  26   14   47 1
  27   15   16 1
  28   15   24 1
  29   15   25 1
  30   16   17 1
  31   16   48 1
  32   16   49 1
  33   17   18 1
  34   17   50 1
  35   17   51 1
  36   18   19 1
  37   18   52 1
  38   18   53 1
  39   19   20 1
  40   19   36 1
  41   19   37 1
  42   20   21 1
  43   20   54 1
  44   20   55 1
  45   21   22 1
  46   21   56 1
  47   21   57 1
  48   22   23 1
  49   22   58 1
  50   22   59 1
  51   23   26 am
  52   23   29 am
  53   24   60 1
  54   24   61 1
  55   24   62 1
  56   25   63 1
  57   25   64 1
  58   25   65 1
  59   26   27 1
  60   26   35 2
  61   27   28 ar
  62   27   30 ar
  63   28   29 1
  64   28   33 ar
  65   29   34 2
  66   30   31 ar
  67   30   66 1
  68   31   32 ar
  69   31   67 1
  70   32   33 ar
  71   32   68 1
  72   33   69 1
  73   36   70 1
  74   36   71 1
  75   36   72 1
  76   37   73 1
  77   37   74 1
  78   37   75 1

#	End of record

