#	Name: ASD01890007
#	Creating user name:	WinNT
#	Creation time:	15. 06. 2019 19:50

#	Modifying user name:	WinNT
#	Modification time:	15. 06. 2019 19:50

#	Program:	/corina/corina34_cracker 3.40 0067  02.08.2006

@<TRIPOS>MOLECULE
ASD01890007
  44   48    0    0    0
SMALL
NO_CHARGES


@<TRIPOS>ATOM
   1 C1            -0.0155     1.2928     0.0092 C.2     
   2 N2             0.0021    -0.0041     0.0020 N.2     
   3 C3             1.2785    -0.4402    -0.0051 C.ar    
   4 C4             2.1152     0.7037    -0.0061 C.ar    
   5 N5             1.2750     1.7826    -0.0005 N.am    
   6 C6             1.8250    -1.7276    -0.0103 C.ar    
   7 C7             3.2062    -1.8237    -0.0163 C.ar    
   8 C8             4.0192    -0.7027    -0.0166 C.ar    
   9 C9             3.4987     0.5816    -0.0123 C.ar    
  10 C10           -1.2245     2.2000     0.0325 C.3     
  11 C11           -0.8008     3.5291     0.6723 C.3     
  12 C12            0.4187     4.0904    -0.0605 C.3     
  13 C13            1.5578     3.1008    -0.0088 C.2     
  14 O14            2.7033     3.4837     0.0251 O.2     
  15 Cl15           3.9407    -3.3966    -0.0229 Cl      
  16 C16           -4.0262     6.3235     0.4130 C.ar    
  17 C17           -3.5218     5.9513     1.6575 C.ar    
  18 C18           -2.4803     5.0491     1.7353 C.ar    
  19 C19           -1.9376     4.5141     0.5809 C.ar    
  20 C20           -2.4341     4.8804    -0.6571 C.ar    
  21 C21           -3.4754     5.7818    -0.7466 C.ar    
  22 C22           -5.1500     7.2884     0.3233 C.ar    
  23 C23           -5.6544     7.6606    -0.9211 C.ar    
  24 C24           -6.6997     8.5585    -0.9987 C.ar    
  25 C25           -7.2461     9.0891     0.1559 C.ar    
  26 C26           -6.7490     8.7235     1.3938 C.ar    
  27 C27           -5.7084     7.8213     1.4834 C.ar    
  28 H28            1.1980    -2.6070    -0.0094 H       
  29 H29            5.0913    -0.8333    -0.0206 H       
  30 H30            4.1410     1.4498    -0.0131 H       
  31 H31           -1.5745     2.3751    -0.9849 H       
  32 H32           -2.0182     1.7424     0.6231 H       
  33 H33           -0.5495     3.3631     1.7199 H       
  34 H34            0.1570     4.2859    -1.1004 H       
  35 H35            0.7277     5.0220     0.4134 H       
  36 H36           -3.9449     6.3684     2.5594 H       
  37 H37           -2.0886     4.7599     2.6993 H       
  38 H38           -2.0065     4.4600    -1.5552 H       
  39 H39           -3.8628     6.0666    -1.7137 H       
  40 H40           -5.2280     7.2474    -1.8233 H       
  41 H41           -7.0914     8.8477    -1.9627 H       
  42 H42           -8.0637     9.7917     0.0906 H       
  43 H43           -7.1791     9.1411     2.2921 H       
  44 H44           -5.3244     7.5326     2.4506 H       
@<TRIPOS>BOND
   1    1    2 2
   2    1    5 1
   3    1   10 1
   4    2    3 1
   5    3    4 ar
   6    3    6 ar
   7    4    5 1
   8    4    9 ar
   9    5   13 am
  10    6    7 ar
  11    6   28 1
  12    7    8 ar
  13    7   15 1
  14    8    9 ar
  15    8   29 1
  16    9   30 1
  17   10   11 1
  18   10   31 1
  19   10   32 1
  20   11   12 1
  21   11   19 1
  22   11   33 1
  23   12   13 1
  24   12   34 1
  25   12   35 1
  26   13   14 2
  27   16   17 ar
  28   16   21 ar
  29   16   22 1
  30   17   18 ar
  31   17   36 1
  32   18   19 ar
  33   18   37 1
  34   19   20 ar
  35   20   21 ar
  36   20   38 1
  37   21   39 1
  38   22   23 ar
  39   22   27 ar
  40   23   24 ar
  41   23   40 1
  42   24   25 ar
  43   24   41 1
  44   25   26 ar
  45   25   42 1
  46   26   27 ar
  47   26   43 1
  48   27   44 1

#	End of record

