#	Name: ASD02398011
#	Creating user name:	WinNT
#	Creation time:	15. 06. 2019 20:20

#	Modifying user name:	WinNT
#	Modification time:	15. 06. 2019 20:20

#	Program:	/corina/corina34_cracker 3.40 0067  02.08.2006

@<TRIPOS>MOLECULE
ASD02398011
  57   60    0    0    0
SMALL
NO_CHARGES


@<TRIPOS>ATOM
   1 C1            -0.8243     0.9985     0.3593 C.ar    
   2 C2            -0.3841    -0.3283     0.3235 C.ar    
   3 C3            -1.2840    -1.3609     0.5751 C.ar    
   4 C4            -2.6037    -1.0708     0.8581 C.ar    
   5 C5            -3.0364     0.2428     0.8924 C.ar    
   6 C6            -2.1502     1.2756     0.6497 C.ar    
   7 C7            -3.5766    -2.1890     1.1303 C.3     
   8 C8            -3.5058    -2.5735     2.5857 C.2     
   9 O9            -2.6801    -2.0637     3.3057 O.2     
  10 O10           -4.3599    -3.4822     3.0822 O.3     
  11 C11            1.0348    -0.6345     0.0184 C.ar    
  12 C12            2.0369    -0.2724     0.9172 C.ar    
  13 C13            1.3695    -1.2901    -1.1648 C.ar    
  14 C14            2.6908    -1.5729    -1.4445 C.ar    
  15 C15            3.6839    -1.2065    -0.5510 C.ar    
  16 C16            3.3553    -0.5591     0.6293 C.ar    
  17 C17            1.6807     0.4317     2.2011 C.3     
  18 N18            2.8789     0.5652     3.0334 N.am    
  19 C19            3.7865     1.5467     2.9411 C.2     
  20 O20            4.7901     1.4399     3.8190 O.3     
  21 C21            4.5931     0.2525     4.6401 C.3     
  22 C22            3.2785    -0.3528     4.1111 C.3     
  23 O23            3.7055     2.4509     2.1334 O.2     
  24 O24            0.0464     2.0124     0.1156 O.3     
  25 C25           -0.4745     3.3420     0.1694 C.3     
  26 C26            3.5200    -1.7557     3.5505 C.3     
  27 C27            5.7358    -0.7125     4.4562 C.ar    
  28 C28            6.1578    -1.4941     5.5154 C.ar    
  29 C29            6.3584    -0.8203     3.2267 C.ar    
  30 C30            7.4067    -1.7055     3.0579 C.ar    
  31 C31            7.8326    -2.4827     4.1189 C.ar    
  32 C32            7.2061    -2.3792     5.3467 C.ar    
  33 F33            4.9763    -1.4858    -0.8286 F       
  34 H34           -0.9499    -2.3876     0.5486 H       
  35 H35           -4.0703     0.4625     1.1141 H       
  36 H36           -2.4937     2.2991     0.6782 H       
  37 H37           -4.5871    -1.8579     0.8907 H       
  38 H38           -3.3210    -3.0510     0.5140 H       
  39 H39           -4.2759    -3.6964     4.0214 H       
  40 H40            0.5958    -1.5768    -1.8617 H       
  41 H41            2.9511    -2.0810    -2.3613 H       
  42 H42            4.1327    -0.2753     1.3231 H       
  43 H43            1.2835     1.4212     1.9747 H       
  44 H44            0.9289    -0.1478     2.7368 H       
  45 H45            4.4885     0.5268     5.6898 H       
  46 H46            2.5248    -0.3784     4.8981 H       
  47 H47            0.3232     4.0536    -0.0436 H       
  48 H48           -1.2668     3.4520    -0.5711 H       
  49 H49           -0.8773     3.5344     1.1638 H       
  50 H50            3.9384    -2.3917     4.3307 H       
  51 H51            2.5755    -2.1770     3.2061 H       
  52 H52            4.2182    -1.6981     2.7154 H       
  53 H53            5.6687    -1.4128     6.4749 H       
  54 H54            6.0256    -0.2132     2.3978 H       
  55 H55            7.8926    -1.7903     2.0972 H       
  56 H56            8.6514    -3.1745     3.9870 H       
  57 H57            7.5389    -2.9864     6.1756 H       
@<TRIPOS>BOND
   1    1    2 ar
   2    1   24 1
   3    1    6 ar
   4    2    3 ar
   5    2   11 1
   6    3    4 ar
   7    3   34 1
   8    4    5 ar
   9    4    7 1
  10    5    6 ar
  11    5   35 1
  12    6   36 1
  13    7    8 1
  14    7   37 1
  15    7   38 1
  16    8    9 2
  17    8   10 1
  18   10   39 1
  19   11   12 ar
  20   11   13 ar
  21   12   17 1
  22   12   16 ar
  23   13   14 ar
  24   13   40 1
  25   14   15 ar
  26   14   41 1
  27   15   16 ar
  28   15   33 1
  29   16   42 1
  30   17   18 1
  31   17   43 1
  32   17   44 1
  33   18   19 am
  34   18   22 1
  35   19   20 1
  36   19   23 2
  37   20   21 1
  38   21   22 1
  39   21   27 1
  40   21   45 1
  41   22   26 1
  42   22   46 1
  43   24   25 1
  44   25   47 1
  45   25   48 1
  46   25   49 1
  47   26   50 1
  48   26   51 1
  49   26   52 1
  50   27   28 ar
  51   27   29 ar
  52   28   32 ar
  53   28   53 1
  54   29   30 ar
  55   29   54 1
  56   30   31 ar
  57   30   55 1
  58   31   32 ar
  59   31   56 1
  60   32   57 1

#	End of record

