#	Name: ASD03330803
#	Creating user name:	WinNT
#	Creation time:	15. 06. 2019 20:38

#	Modifying user name:	WinNT
#	Modification time:	15. 06. 2019 20:38

#	Program:	/corina/corina34_cracker 3.40 0067  02.08.2006

@<TRIPOS>MOLECULE
ASD03330803
  57   60    0    0    0
SMALL
NO_CHARGES


@<TRIPOS>ATOM
   1 C1            -0.0159     1.3550     0.0390 C.2     
   2 N2             0.0042    -0.0047     0.0498 N.pl3   
   3 C3             1.2779     1.7739    -0.0299 C.2     
   4 N4             2.0648     0.6763    -0.0775 N.2     
   5 C5             1.3084    -0.3957    -0.0359 C.2     
   6 C6             1.7896    -1.7933    -0.0747 C.ar    
   7 C7             1.7377     3.1737    -0.0492 C.2     
   8 O8             0.9284     4.0804    -0.0012 O.2     
   9 C9             3.5122     4.8411    -0.1391 C.3     
  10 N10            3.0550     3.4494    -0.1200 N.am    
  11 C11            4.9446     4.9148     0.3935 C.3     
  12 C12            3.4743     5.3629    -1.5524 C.2     
  13 O13            3.1021     4.6432    -2.4547 O.2     
  14 C14           -1.1734    -0.8711     0.1509 C.3     
  15 C15           -2.2417    -0.3835    -0.8328 C.3     
  16 C16           -3.1084     0.6806    -0.1674 C.3     
  17 N17           -2.3248     1.4888     0.7689 N.3     
  18 C18           -1.2509     2.2172     0.0772 C.3     
  19 C19            1.3004    -2.7280     0.8389 C.ar    
  20 C20            1.7522    -4.0311     0.7982 C.ar    
  21 C21           -3.1881     2.4108     1.5189 C.3     
  22 N22            3.8540     6.6294    -1.8135 N.am    
  23 C23            2.6917    -4.4135    -0.1485 C.ar    
  24 C24            4.9624     4.5092     1.8448 C.2     
  25 C25            2.7314    -2.1845    -1.0300 C.ar    
  26 C26            3.1815    -3.4909    -1.0575 C.ar    
  27 N27            4.2070     5.0884     2.7562 N.2     
  28 F28            3.1307    -5.6907    -0.1831 F       
  29 F29            3.2051    -1.2863    -1.9211 F       
  30 Cl30           1.1443    -5.1944     1.9342 Cl      
  31 C31            3.8172     7.1367    -3.1874 C.3     
  32 C32            4.3087     4.6543     3.9670 C.2     
  33 S33            5.4538     3.3870     4.0446 S.3     
  34 C34            5.7413     3.5290     2.3121 C.2     
  35 H35            2.8593     5.4467     0.4894 H       
  36 H36            3.7005     2.7263    -0.1582 H       
  37 H37            5.5806     4.2405    -0.1800 H       
  38 H38            5.3162     5.9349     0.2968 H       
  39 H39           -0.8938    -1.8959    -0.0933 H       
  40 H40           -1.5682    -0.8322     1.1662 H       
  41 H41           -1.7577     0.0411    -1.7123 H       
  42 H42           -2.8671    -1.2238    -1.1345 H       
  43 H43           -3.5295     1.3301    -0.9348 H       
  44 H44           -3.9204     0.1940     0.3730 H       
  45 H45           -1.0338     3.1414     0.6128 H       
  46 H46           -1.5649     2.4495    -0.9404 H       
  47 H47            0.5696    -2.4318     1.5768 H       
  48 H48           -3.9262     1.8402     2.0826 H       
  49 H49           -2.5807     2.9988     2.2069 H       
  50 H50           -3.6981     3.0777     0.8236 H       
  51 H51            4.1517     7.2051    -1.0918 H       
  52 H52            3.9097    -3.7949    -1.7949 H       
  53 H53            4.4701     6.5311    -3.8159 H       
  54 H54            2.7967     7.0842    -3.5668 H       
  55 H55            4.1573     8.1722    -3.2016 H       
  56 H56            3.7513     5.0363     4.8095 H       
  57 H57            6.4292     2.9325     1.7312 H       
@<TRIPOS>BOND
   1    1    2 1
   2    1    3 2
   3    1   18 1
   4    2   14 1
   5    2    5 1
   6    3    4 1
   7    3    7 1
   8    4    5 2
   9    5    6 1
  10    6   25 ar
  11    6   19 ar
  12    7    8 2
  13    7   10 am
  14    9   10 1
  15    9   11 1
  16    9   12 1
  17    9   35 1
  18   10   36 1
  19   11   24 1
  20   11   37 1
  21   11   38 1
  22   12   13 2
  23   12   22 am
  24   14   15 1
  25   14   39 1
  26   14   40 1
  27   15   16 1
  28   15   41 1
  29   15   42 1
  30   16   17 1
  31   16   43 1
  32   16   44 1
  33   17   18 1
  34   17   21 1
  35   18   45 1
  36   18   46 1
  37   19   20 ar
  38   19   47 1
  39   20   30 1
  40   20   23 ar
  41   21   48 1
  42   21   49 1
  43   21   50 1
  44   22   31 1
  45   22   51 1
  46   23   28 1
  47   23   26 ar
  48   24   27 1
  49   24   34 2
  50   25   26 ar
  51   25   29 1
  52   26   52 1
  53   27   32 2
  54   31   53 1
  55   31   54 1
  56   31   55 1
  57   32   33 1
  58   32   56 1
  59   33   34 1
  60   34   57 1

#	End of record

