#	Name: ASD03331751
#	Creating user name:	WinNT
#	Creation time:	15. 06. 2019 20:39

#	Modifying user name:	WinNT
#	Modification time:	15. 06. 2019 20:39

#	Program:	/corina/corina34_cracker 3.40 0067  02.08.2006

@<TRIPOS>MOLECULE
ASD03331751
  44   47    0    0    0
SMALL
NO_CHARGES


@<TRIPOS>ATOM
   1 C1            -0.0446     1.4608    -0.7568 C.ar    
   2 C2            -0.0383     0.1297    -1.0653 C.ar    
   3 C3             1.1581    -0.5690    -1.1485 C.ar    
   4 C4             2.3605     0.0653    -0.9215 C.ar    
   5 C5             2.3790     1.4195    -0.6060 C.ar    
   6 C6             1.1628     2.1246    -0.5231 C.ar    
   7 N7             3.3923     2.3116    -0.3313 N.pl3   
   8 C8             2.8619     3.5554    -0.0776 C.2     
   9 C9             1.5107     3.5026    -0.1803 C.2     
  10 C10            0.5504     4.6464     0.0215 C.3     
  11 C11            0.7136     5.6428    -1.0973 C.ar    
  12 C12           -0.8838     4.1137     0.0248 C.3     
  13 N13           -1.0951     3.2874     1.2160 N.pl3   
  14 O14           -2.1096     3.4199     1.8769 O.2     
  15 O15           -0.2564     2.4679     1.5453 O.2     
  16 C16            0.9748     6.9692    -0.8089 C.ar    
  17 C17            1.1245     7.8832    -1.8351 C.ar    
  18 C18            1.0135     7.4706    -3.1498 C.ar    
  19 C19            0.7532     6.1439    -3.4382 C.ar    
  20 C20            0.6078     5.2292    -2.4120 C.ar    
  21 C21            3.6451     4.7645     0.2564 C.ar    
  22 C22            3.2417     5.5926     1.3050 C.ar    
  23 C23            4.7932     5.0782    -0.4720 C.ar    
  24 C24            5.5209     6.2070    -0.1564 C.ar    
  25 C25            5.1141     7.0290     0.8817 C.ar    
  26 C26            3.9766     6.7194     1.6127 C.ar    
  27 F27            5.8304     8.1331     1.1865 F       
  28 Cl28           3.4768     7.7510     2.9165 Cl      
  29 H29           -0.9791     1.9990    -0.6981 H       
  30 H30           -0.9717    -0.3828    -1.2454 H       
  31 H31            1.1466    -1.6209    -1.3934 H       
  32 H32            3.2856    -0.4880    -0.9881 H       
  33 H33            4.3377     2.0951    -0.3182 H       
  34 H34            0.7596     5.1326     0.9744 H       
  35 H35           -1.5822     4.9505     0.0345 H       
  36 H36           -1.0500     3.5121    -0.8688 H       
  37 H37            1.0616     7.2916     0.2182 H       
  38 H38            1.3279     8.9196    -1.6098 H       
  39 H39            1.1297     8.1847    -3.9515 H       
  40 H40            0.6660     5.8216    -4.4653 H       
  41 H41            0.4044     4.1927    -2.6374 H       
  42 H42            2.3559     5.3522     1.8743 H       
  43 H43            5.1118     4.4381    -1.2813 H       
  44 H44            6.4098     6.4500    -0.7196 H       
@<TRIPOS>BOND
   1    1    2 ar
   2    1    6 ar
   3    1   29 1
   4    2    3 ar
   5    2   30 1
   6    3    4 ar
   7    3   31 1
   8    4    5 ar
   9    4   32 1
  10    5    7 1
  11    5    6 ar
  12    6    9 1
  13    7    8 1
  14    7   33 1
  15    8    9 2
  16    8   21 1
  17    9   10 1
  18   10   12 1
  19   10   11 1
  20   10   34 1
  21   11   16 ar
  22   11   20 ar
  23   12   13 1
  24   12   35 1
  25   12   36 1
  26   13   14 2
  27   13   15 2
  28   16   17 ar
  29   16   37 1
  30   17   18 ar
  31   17   38 1
  32   18   19 ar
  33   18   39 1
  34   19   20 ar
  35   19   40 1
  36   20   41 1
  37   21   23 ar
  38   21   22 ar
  39   22   26 ar
  40   22   42 1
  41   23   24 ar
  42   23   43 1
  43   24   25 ar
  44   24   44 1
  45   25   26 ar
  46   25   27 1
  47   26   28 1

#	End of record

