#	Name: ASD07301017
#	Creating user name:	WinNT
#	Creation time:	15. 06. 2019 21:10

#	Modifying user name:	WinNT
#	Modification time:	15. 06. 2019 21:10

#	Program:	/corina/corina34_cracker 3.40 0067  02.08.2006

@<TRIPOS>MOLECULE
ASD07301017
  44   46    0    0    0
SMALL
NO_CHARGES


@<TRIPOS>ATOM
   1 C1            -0.0179     1.4664     0.0101 C.2     
   2 C2             0.0021    -0.0041     0.0020 C.2     
   3 C3             1.2775    -0.6366    -0.0136 C.2     
   4 C4             2.3787     0.1587    -0.0198 C.2     
   5 N5             2.2597     1.5100    -0.0114 N.pl3   
   6 N6             1.1314     2.1178     0.0026 N.2     
   7 O7            -1.0313    -0.6548     0.0088 O.2     
   8 O8             1.3895    -1.9914    -0.0215 O.3     
   9 C9             2.7119    -2.5330    -0.0370 C.3     
  10 C10            3.4279     2.2793    -0.0184 C.ar    
  11 C11            3.6391     3.2345     0.9720 C.ar    
  12 C12            4.7942     3.9930     0.9633 C.ar    
  13 C13            5.7422     3.8021    -0.0321 C.ar    
  14 C14            5.5315     2.8497    -1.0194 C.ar    
  15 C15            4.3810     2.0869    -1.0103 C.ar    
  16 F16            2.7155     3.4201     1.9404 F       
  17 O17            6.8777     4.5486    -0.0403 O.3     
  18 C18            7.8103     4.2994    -1.0940 C.3     
  19 C19            8.9981     5.2141    -0.9403 C.ar    
  20 C20           10.0885     4.8111    -0.1923 C.ar    
  21 C21           11.1780     5.6501    -0.0512 C.ar    
  22 C22           11.1773     6.8919    -0.6585 C.ar    
  23 C23           10.0873     7.2945    -1.4072 C.ar    
  24 C24            8.9996     6.4538    -1.5519 C.ar    
  25 C25           -1.2915     2.1970     0.0202 C.2     
  26 O26           -2.3403     1.5876     0.0218 O.2     
  27 C27           -1.2957     3.7040     0.0284 C.3     
  28 H28            3.3609    -0.2902    -0.0312 H       
  29 H29            2.6586    -3.6217    -0.0420 H       
  30 H30            3.2342    -2.1907    -0.9304 H       
  31 H31            3.2515    -2.1996     0.8494 H       
  32 H32            4.9591     4.7347     1.7309 H       
  33 H33            6.2701     2.7027    -1.7935 H       
  34 H34            4.2201     1.3433    -1.7768 H       
  35 H35            8.1421     3.2622    -1.0478 H       
  36 H36            7.3308     4.4851    -2.0551 H       
  37 H37           10.0891     3.8409     0.2822 H       
  38 H38           12.0297     5.3355     0.5337 H       
  39 H39           12.0282     7.5477    -0.5477 H       
  40 H40           10.0866     8.2649    -1.8814 H       
  41 H41            8.1495     6.7668    -2.1399 H       
  42 H42           -0.2690     4.0702     0.0255 H       
  43 H43           -1.8148     4.0707    -0.8572 H       
  44 H44           -1.8063     4.0611     0.9227 H       
@<TRIPOS>BOND
   1    1    2 1
   2    1    6 2
   3    1   25 1
   4    2    3 1
   5    2    7 2
   6    3    4 2
   7    3    8 1
   8    4    5 1
   9    4   28 1
  10    5    6 1
  11    5   10 1
  12    8    9 1
  13    9   29 1
  14    9   30 1
  15    9   31 1
  16   10   11 ar
  17   10   15 ar
  18   11   12 ar
  19   11   16 1
  20   12   13 ar
  21   12   32 1
  22   13   14 ar
  23   13   17 1
  24   14   15 ar
  25   14   33 1
  26   15   34 1
  27   17   18 1
  28   18   19 1
  29   18   35 1
  30   18   36 1
  31   19   20 ar
  32   19   24 ar
  33   20   21 ar
  34   20   37 1
  35   21   22 ar
  36   21   38 1
  37   22   23 ar
  38   22   39 1
  39   23   24 ar
  40   23   40 1
  41   24   41 1
  42   25   26 2
  43   25   27 1
  44   27   42 1
  45   27   43 1
  46   27   44 1

#	End of record

