#	Name: ASD01230075
#	Creating user name:	WinNT
#	Creation time:	15. 06. 2019 19:11

#	Modifying user name:	WinNT
#	Modification time:	15. 06. 2019 19:11

#	Program:	/corina/corina34_cracker 3.40 0067  02.08.2006

@<TRIPOS>MOLECULE
ASD01230075
  47   50    0    0    0
SMALL
NO_CHARGES


@<TRIPOS>ATOM
   1 C1            -0.0169     1.3939     0.0097 C.ar    
   2 C2             0.0021    -0.0041     0.0020 C.ar    
   3 C3            -1.2649    -0.7750     0.0095 C.ar    
   4 N4            -2.4384    -0.1468     0.0236 N.ar    
   5 C5            -3.5689    -0.8317     0.0298 C.ar    
   6 N6            -3.5813    -2.1553     0.0228 N.ar    
   7 C7            -2.4533    -2.8474     0.0087 C.ar    
   8 C8            -1.2455    -2.1720    -0.0041 C.ar    
   9 C9            -2.4839    -4.3541     0.0014 C.3     
  10 N10           -4.7807    -0.1415     0.0447 N.pl3   
  11 C11           -4.9399     1.2099     0.0534 C.2     
  12 C12            1.2307    -0.6612    -0.0132 C.ar    
  13 N13            2.3566     0.0226    -0.0199 N.ar    
  14 C14            2.3703     1.3415    -0.0129 C.ar    
  15 C15            1.1926     2.0668     0.0018 C.ar    
  16 F16           -3.6415    -4.7938    -0.6495 F       
  17 F17           -1.3575    -4.8401    -0.6712 F       
  18 N18           -6.2138     1.4834     0.0661 N.2     
  19 C19           -6.9175     0.3324     0.0661 C.2     
  20 C20           -6.0332    -0.6978     0.0472 C.2     
  21 C21           -8.3963     0.2134     0.0784 C.ar    
  22 C22           -8.9961    -1.0400     0.1825 C.ar    
  23 C23           -9.1907     1.3553    -0.0083 C.ar    
  24 C24          -10.5656     1.2387     0.0036 C.ar    
  25 C25          -11.1558    -0.0087     0.1018 C.ar    
  26 C26          -10.3724    -1.1448     0.1935 C.ar    
  27 S27          -11.5714     2.6812    -0.1059 S.o2    
  28 N28          -11.8546     2.9605    -1.7135 N.am    
  29 O29          -12.8255     2.3406     0.4691 O.2     
  30 O30          -10.7733     3.7629     0.3547 O.2     
  31 C31            3.6897     2.0696    -0.0211 C.3     
  32 F32            4.7317     1.1451    -0.1506 F       
  33 F33            3.7226     2.9631    -1.0971 F       
  34 F34            3.8396     2.7765     1.1768 F       
  35 H35           -0.9515     1.9350     0.0171 H       
  36 H36           -0.3102    -2.7119    -0.0157 H       
  37 H37           -2.4816    -4.7225     1.0272 H       
  38 H38           -4.1412     1.9368     0.0503 H       
  39 H39            1.2601    -1.7408    -0.0193 H       
  40 H40            1.2165     3.1465     0.0074 H       
  41 H41           -6.2707    -1.7514     0.0421 H       
  42 H42           -8.3853    -1.9278     0.2541 H       
  43 H43           -8.7310     2.3297    -0.0843 H       
  44 H44          -12.2322    -0.0953     0.1115 H       
  45 H45          -10.8384    -2.1161     0.2700 H       
  46 H46          -11.4800     2.3662    -2.3823 H       
  47 H47          -12.3950     3.7184    -1.9862 H       
@<TRIPOS>BOND
   1    1    2 ar
   2    1   15 ar
   3    1   35 1
   4    2    3 1
   5    2   12 ar
   6    3    4 ar
   7    3    8 ar
   8    4    5 ar
   9    5    6 ar
  10    5   10 1
  11    6    7 ar
  12    7    8 ar
  13    7    9 1
  14    8   36 1
  15    9   16 1
  16    9   17 1
  17    9   37 1
  18   10   11 1
  19   10   20 1
  20   11   18 2
  21   11   38 1
  22   12   13 ar
  23   12   39 1
  24   13   14 ar
  25   14   31 1
  26   14   15 ar
  27   15   40 1
  28   18   19 1
  29   19   20 2
  30   19   21 1
  31   20   41 1
  32   21   22 ar
  33   21   23 ar
  34   22   26 ar
  35   22   42 1
  36   23   24 ar
  37   23   43 1
  38   24   25 ar
  39   24   27 1
  40   25   26 ar
  41   25   44 1
  42   26   45 1
  43   27   28 am
  44   27   29 2
  45   27   30 2
  46   28   46 1
  47   28   47 1
  48   31   32 1
  49   31   33 1
  50   31   34 1

#	End of record

