#	Name: ASD05790042
#	Creating user name:	WinNT
#	Creation time:	15. 06. 2019 21:03

#	Modifying user name:	WinNT
#	Modification time:	15. 06. 2019 21:03

#	Program:	/corina/corina34_cracker 3.40 0067  02.08.2006

@<TRIPOS>MOLECULE
ASD05790042
  42   45    0    0    0
SMALL
NO_CHARGES


@<TRIPOS>ATOM
   1 C1            -0.1751     1.4731    -0.5691 C.2     
   2 C2            -0.1531    -0.0033    -0.5729 C.ar    
   3 C3             0.4696    -0.6992     0.4670 C.ar    
   4 C4             0.4861    -2.0799     0.4562 C.ar    
   5 C5            -0.1117    -2.7743    -0.5802 C.ar    
   6 C6            -0.7296    -2.0927    -1.6132 C.ar    
   7 C7            -0.7598    -0.7121    -1.6135 C.ar    
   8 O8             0.7234     2.0959    -1.1010 O.2     
   9 N9            -1.1942     2.1303     0.0193 N.am    
  10 C10           -1.1619     3.5227     0.1191 C.ar    
  11 C11           -2.3411     4.2529     0.0191 C.ar    
  12 C12           -2.3127     5.6268     0.1171 C.ar    
  13 C13           -1.0979     6.2861     0.3173 C.ar    
  14 C14            0.0846     5.5497     0.4174 C.ar    
  15 C15            0.0486     4.1757     0.3241 C.ar    
  16 O16           -2.1300     8.5741     0.3426 O.3     
  17 C17           -1.0637     7.7593     0.4224 C.2     
  18 N18            0.0117     8.4861     0.6094 N.2     
  19 C19           -0.3496     9.7855     0.6527 C.2     
  20 C20           -1.6950     9.8412     0.4851 C.2     
  21 C21            0.5586    10.9425     0.8486 C.ar    
  22 C22            1.9288    10.7375     1.0094 C.ar    
  23 C23            2.7689    11.8185     1.1915 C.ar    
  24 C24            2.2533    13.1018     1.2149 C.ar    
  25 C25            0.8953    13.3103     1.0564 C.ar    
  26 C26            0.0467    12.2379     0.8671 C.ar    
  27 Cl27           2.5767     9.1272     0.9813 Cl      
  28 Cl28          -1.5431     0.1410    -2.9067 Cl      
  29 Cl29           1.2209     0.1701     1.7684 Cl      
  30 H30            0.9672    -2.6191     1.2589 H       
  31 H31           -0.0955    -3.8542    -0.5830 H       
  32 H32           -1.1935    -2.6417    -2.4193 H       
  33 H33           -1.9500     1.6360     0.3734 H       
  34 H34           -3.2802     3.7425    -0.1361 H       
  35 H35           -3.2288     6.1934     0.0390 H       
  36 H36            1.0256     6.0566     0.5722 H       
  37 H37            0.9621     3.6054     0.4058 H       
  38 H38           -2.3029    10.7337     0.4693 H       
  39 H39            3.8302    11.6615     1.3161 H       
  40 H40            2.9137    13.9443     1.3579 H       
  41 H41            0.4984    14.3145     1.0763 H       
  42 H42           -1.0128    12.4027     0.7383 H       
@<TRIPOS>BOND
   1    1    2 1
   2    1    8 2
   3    1    9 am
   4    2    3 ar
   5    2    7 ar
   6    3    4 ar
   7    3   29 1
   8    4    5 ar
   9    4   30 1
  10    5    6 ar
  11    5   31 1
  12    6    7 ar
  13    6   32 1
  14    7   28 1
  15    9   10 1
  16    9   33 1
  17   10   11 ar
  18   10   15 ar
  19   11   12 ar
  20   11   34 1
  21   12   13 ar
  22   12   35 1
  23   13   14 ar
  24   13   17 1
  25   14   15 ar
  26   14   36 1
  27   15   37 1
  28   16   17 1
  29   16   20 1
  30   17   18 2
  31   18   19 1
  32   19   20 2
  33   19   21 1
  34   20   38 1
  35   21   22 ar
  36   21   26 ar
  37   22   23 ar
  38   22   27 1
  39   23   24 ar
  40   23   39 1
  41   24   25 ar
  42   24   40 1
  43   25   26 ar
  44   25   41 1
  45   26   42 1

#	End of record

