#	Name: ASD01917560
#	Creating user name:	WinNT
#	Creation time:	15. 06. 2019 20:09

#	Modifying user name:	WinNT
#	Modification time:	15. 06. 2019 20:09

#	Program:	/corina/corina34_cracker 3.40 0067  02.08.2006

@<TRIPOS>MOLECULE
ASD01917560
  41   44    0    0    0
SMALL
NO_CHARGES


@<TRIPOS>ATOM
   1 N1             4.8204    -0.4107    -2.1411 N.ar    
   2 C2             5.2868     0.2866    -3.1586 C.ar    
   3 C3             5.1743     1.6664    -3.1850 C.ar    
   4 C4             4.5611     2.3155    -2.1228 C.ar    
   5 C5             4.0810     1.5472    -1.0675 C.ar    
   6 C6             4.2318     0.1683    -1.1139 C.ar    
   7 F7             5.6561     2.3719    -4.2315 F       
   8 O8             3.4732     2.1385    -0.0056 O.3     
   9 C9             3.4534     3.4978     0.0435 C.2     
  10 N10            2.2007     5.5129    -0.0224 N.pl3   
  11 C11            2.2715     4.1523    -0.0658 C.2     
  12 C12            4.6543     4.1994     0.2121 C.2     
  13 C13            4.6289     5.5876     0.2616 C.2     
  14 C14            3.3357     6.2651     0.1344 C.2     
  15 C15            5.8701     6.3587     0.4381 C.2     
  16 N16            5.8263     7.7050     0.4839 N.am    
  17 C17            6.9837     8.4307     0.7562 C.ar    
  18 N18            8.1433     7.8006     0.8618 N.ar    
  19 C19            6.9116     9.8107     0.9089 C.ar    
  20 C20            8.0691    10.5194     1.1792 C.ar    
  21 C21            9.2634     9.8205     1.2877 C.ar    
  22 C22            9.2625     8.4498     1.1186 C.ar    
  23 O23            6.9354     5.7810     0.5426 O.2     
  24 C24            1.1516     6.3894    -0.1085 C.2     
  25 C25            1.6640     7.6345    -0.0107 C.2     
  26 N26            2.9889     7.5394     0.1421 N.2     
  27 C27           10.5568     7.6858     1.2295 C.3     
  28 H28            5.7629    -0.2252    -3.9819 H       
  29 H29            4.4594     3.3907    -2.1156 H       
  30 H30            3.8623    -0.4370    -0.2993 H       
  31 H31            1.3632     3.5815    -0.1908 H       
  32 H32            5.5896     3.6669     0.3029 H       
  33 H33            4.9887     8.1686     0.3272 H       
  34 H34            5.9650    10.3227     0.8175 H       
  35 H35            8.0437    11.5920     1.3025 H       
  36 H36           10.1846    10.3438     1.4976 H       
  37 H37            0.1104     6.1327    -0.2369 H       
  38 H38            1.0976     8.5535    -0.0423 H       
  39 H39           11.0283     7.6255     0.2486 H       
  40 H40           11.2236     8.1994     1.9221 H       
  41 H41           10.3547     6.6801     1.5980 H       
@<TRIPOS>BOND
   1    1    2 ar
   2    1    6 ar
   3    2    3 ar
   4    2   28 1
   5    3    4 ar
   6    3    7 1
   7    4    5 ar
   8    4   29 1
   9    5    6 ar
  10    5    8 1
  11    6   30 1
  12    8    9 1
  13    9   12 1
  14    9   11 2
  15   10   11 1
  16   10   24 1
  17   10   14 1
  18   11   31 1
  19   12   13 2
  20   12   32 1
  21   13   14 1
  22   13   15 1
  23   14   26 2
  24   15   16 am
  25   15   23 2
  26   16   17 1
  27   16   33 1
  28   17   19 ar
  29   17   18 ar
  30   18   22 ar
  31   19   20 ar
  32   19   34 1
  33   20   21 ar
  34   20   35 1
  35   21   22 ar
  36   21   36 1
  37   22   27 1
  38   24   25 2
  39   24   37 1
  40   25   26 1
  41   25   38 1
  42   27   39 1
  43   27   40 1
  44   27   41 1

#	End of record

