#	Name: ASD01900029
#	Creating user name:	WinNT
#	Creation time:	15. 06. 2019 19:51

#	Modifying user name:	WinNT
#	Modification time:	15. 06. 2019 19:51

#	Program:	/corina/corina34_cracker 3.40 0067  02.08.2006

@<TRIPOS>MOLECULE
ASD01900029
  38   39    0    0    0
SMALL
NO_CHARGES


@<TRIPOS>ATOM
   1 C1             0.2247     1.7290    -0.0751 C.3     
   2 C2             0.1350     0.2034    -0.0032 C.3     
   3 C3             0.7716    -0.4045    -1.2547 C.3     
   4 C4             2.2402     0.0168    -1.3358 C.3     
   5 C5             2.3298     1.5425    -1.4077 C.3     
   6 C6             1.6933     2.1503    -0.1563 C.3     
   7 C7             3.7764     1.9575    -1.4876 C.2     
   8 C8             2.9714    -0.4722    -0.1122 C.2     
   9 O9             4.0984     3.2586    -1.5594 O.3     
  10 N10            3.0256    -1.7915     0.1581 N.am    
  11 O11            4.6463     1.1190    -1.4871 O.2     
  12 O12            3.5111     0.3213     0.6293 O.2     
  13 N13            3.7728    -2.2434     1.2085 N.3     
  14 H14            1.8010     1.8962    -2.2928 H       
  15 H15            2.6937    -0.4162    -2.2274 H       
  16 C16            4.7470    -3.2520     0.7668 C.3     
  17 C17            5.6009    -3.6862     1.9611 C.3     
  18 O18            4.7468    -4.1761     2.9983 O.3     
  19 C19            3.7860    -3.2193     3.4529 C.3     
  20 C20            2.9137    -2.7804     2.2738 C.3     
  21 H21           -0.3042     2.0828    -0.9601 H       
  22 H22           -0.2288     2.1621     0.8165 H       
  23 H23            0.6639    -0.1504     0.8818 H       
  24 H24           -0.9113    -0.0968     0.0546 H       
  25 H25            0.7077    -1.4914    -1.2035 H       
  26 H26            0.2427    -0.0508    -2.1397 H       
  27 H27            1.7572     3.2373    -0.2075 H       
  28 H28            2.2222     1.7966     0.7288 H       
  29 H29            5.0393     3.4759    -1.6090 H       
  30 H30            2.5340    -2.4202    -0.3933 H       
  31 H31            4.2188    -4.1161     0.3637 H       
  32 H32            5.3890    -2.8250    -0.0036 H       
  33 H33            6.2861    -4.4751     1.6509 H       
  34 H34            6.1701    -2.8333     2.3307 H       
  35 H35            3.1586    -3.6705     4.2216 H       
  36 H36            4.3024    -2.3529     3.8660 H       
  37 H37            2.2175    -2.0091     2.6034 H       
  38 H38            2.3562    -3.6369     1.8947 H       
@<TRIPOS>BOND
   1    1    2 1
   2    1    6 1
   3    1   21 1
   4    1   22 1
   5    2    3 1
   6    2   23 1
   7    2   24 1
   8    3    4 1
   9    3   25 1
  10    3   26 1
  11    4    5 1
  12    4    8 1
  13    4   15 1
  14    5    6 1
  15    5    7 1
  16    5   14 1
  17    6   27 1
  18    6   28 1
  19    7    9 1
  20    7   11 2
  21    8   10 am
  22    8   12 2
  23    9   29 1
  24   10   13 1
  25   10   30 1
  26   13   16 1
  27   13   20 1
  28   16   17 1
  29   16   31 1
  30   16   32 1
  31   17   18 1
  32   17   33 1
  33   17   34 1
  34   18   19 1
  35   19   20 1
  36   19   35 1
  37   19   36 1
  38   20   37 1
  39   20   38 1

#	End of record

