#	Name: ASD08150421
#	Creating user name:	WinNT
#	Creation time:	15. 06. 2019 21:16

#	Modifying user name:	WinNT
#	Modification time:	15. 06. 2019 21:16

#	Program:	/corina/corina34_cracker 3.40 0067  02.08.2006

@<TRIPOS>MOLECULE
ASD08150421
  44   48    0    0    0
SMALL
NO_CHARGES


@<TRIPOS>ATOM
   1 N1             0.8884     2.9247    -1.5114 N.am    
   2 C2             1.3171     2.3027    -2.6268 C.2     
   3 C3             2.5267     1.5787    -2.6323 C.2     
   4 C4             3.2802     1.4990    -1.5061 C.2     
   5 C5             2.8325     2.1526    -0.3308 C.ar    
   6 C6             3.5758     2.1015     0.8639 C.ar    
   7 N7             3.1602     2.7050     1.9467 N.ar    
   8 C8             2.0142     3.4017     1.9850 C.ar    
   9 C9             1.2023     3.5069     0.8289 C.ar    
  10 C10            1.6235     2.8646    -0.3591 C.ar    
  11 C11            0.0093     4.2345     0.8795 C.ar    
  12 C12           -0.3667     4.8466     2.0642 C.ar    
  13 C13            0.4422     4.7384     3.2041 C.ar    
  14 C14            1.6052     4.0343     3.1705 C.ar    
  15 O15            0.6497     2.3664    -3.6452 O.2     
  16 C16           -1.6305     5.6203     2.1267 C.ar    
  17 C17           -0.3141     3.6420    -1.5331 C.ar    
  18 C18           -0.3081     5.0004    -1.8204 C.ar    
  19 C19           -1.4962     5.7063    -1.8413 C.ar    
  20 C20           -2.6922     5.0589    -1.5751 C.ar    
  21 C21           -2.6993     3.7042    -1.2884 C.ar    
  22 C22           -1.5149     2.9943    -1.2728 C.ar    
  23 Cl23          -1.4901     7.4048    -2.2004 Cl      
  24 C24           -2.7540     5.1943     1.4239 C.ar    
  25 F25           -3.8527     5.7504    -1.5949 F       
  26 N26           -3.8793     5.8787     1.4759 N.ar    
  27 C27           -3.9880     6.9880     2.1911 C.ar    
  28 C28           -2.9071     7.4760     2.9209 C.ar    
  29 C29           -1.7117     6.7859     2.8978 C.ar    
  30 N30           -5.1958     7.6741     2.2132 N.pl3   
  31 H31            2.8548     1.0856    -3.5354 H       
  32 H32            4.2074     0.9453    -1.5054 H       
  33 H33            4.5062     1.5535     0.8864 H       
  34 H34           -0.6141     4.3190     0.0017 H       
  35 H35            0.1379     5.2209     4.1212 H       
  36 H36            2.2160     3.9610     4.0582 H       
  37 H37            0.6241     5.5049    -2.0271 H       
  38 H38           -3.6324     3.2015    -1.0809 H       
  39 H39           -1.5214     1.9376    -1.0495 H       
  40 H40           -2.7030     4.2939     0.8297 H       
  41 H41           -3.0042     8.3814     3.5016 H       
  42 H42           -0.8572     7.1412     3.4546 H       
  43 H43           -5.9527     7.3399     1.7069 H       
  44 H44           -5.2823     8.4872     2.7350 H       
@<TRIPOS>BOND
   1    1    2 am
   2    1   10 1
   3    1   17 1
   4    2    3 1
   5    2   15 2
   6    3    4 2
   7    3   31 1
   8    4    5 1
   9    4   32 1
  10    5    6 ar
  11    5   10 ar
  12    6    7 ar
  13    6   33 1
  14    7    8 ar
  15    8    9 ar
  16    8   14 ar
  17    9   10 ar
  18    9   11 ar
  19   11   12 ar
  20   11   34 1
  21   12   13 ar
  22   12   16 1
  23   13   14 ar
  24   13   35 1
  25   14   36 1
  26   16   24 ar
  27   16   29 ar
  28   17   18 ar
  29   17   22 ar
  30   18   19 ar
  31   18   37 1
  32   19   20 ar
  33   19   23 1
  34   20   21 ar
  35   20   25 1
  36   21   22 ar
  37   21   38 1
  38   22   39 1
  39   24   26 ar
  40   24   40 1
  41   26   27 ar
  42   27   28 ar
  43   27   30 1
  44   28   29 ar
  45   28   41 1
  46   29   42 1
  47   30   43 1
  48   30   44 1

#	End of record

