#	Name: ASD01028383
#	Creating user name:	WinNT
#	Creation time:	15. 06. 2019 18:57

#	Modifying user name:	WinNT
#	Modification time:	15. 06. 2019 18:57

#	Program:	/corina/corina34_cracker 3.40 0067  02.08.2006

@<TRIPOS>MOLECULE
ASD01028383
  61   66    0    0    0
SMALL
NO_CHARGES


@<TRIPOS>ATOM
   1 C1            -0.0715     1.3320     0.0664 C.ar    
   2 C2            -0.0541    -0.0839     0.0716 C.ar    
   3 C3             1.1569     2.0302     0.0452 C.ar    
   4 C4             2.3247     1.2884     0.0305 C.ar    
   5 C5             2.2597    -0.0991     0.0368 C.ar    
   6 N6             1.1134    -0.7379     0.0570 N.ar    
   7 O7             1.1900     3.3856     0.0391 O.3     
   8 C8             2.4786     4.0029     0.0174 C.3     
   9 C9             2.3178     5.5013     0.0135 C.2     
  10 N10            2.2485     6.3029     1.1056 N.pl3   
  11 C11            2.1043     7.5836     0.6253 C.2     
  12 N12            2.0935     7.4986    -0.6946 N.2     
  13 N13            2.2252     6.2670    -1.0451 N.2     
  14 N14            2.2939     6.0718     2.4817 N.2     
  15 C15            2.1996     7.0728     3.3291 C.2     
  16 C16            2.0505     8.3981     2.8676 C.2     
  17 C17            2.0034     8.6543     1.5337 C.2     
  18 C18            2.2501     6.8059     4.7871 C.ar    
  19 C19           -1.2721    -0.7826     0.0927 C.ar    
  20 C20           -2.4572    -0.0832     0.1078 C.ar    
  21 C21           -2.4627     1.3151     0.1020 C.ar    
  22 C22           -1.2965     2.0156     0.0879 C.ar    
  23 O23           -3.6353    -0.7590     0.1283 O.3     
  24 C24           -4.8315     0.0226     0.1432 C.3     
  25 C25            2.3969     5.4987     5.2515 C.ar    
  26 C26            2.4436     5.2486     6.6046 C.ar    
  27 C27            2.3443     6.3046     7.5137 C.ar    
  28 C28            2.1565     7.8625     5.6923 C.ar    
  29 C29            2.3948     6.0374     8.9655 C.2     
  30 N30            3.4345     5.3590     9.4901 N.am    
  31 C31            2.1977     7.6148     7.0478 C.ar    
  32 Cl32           2.0735     8.9290     8.1753 Cl      
  33 C33            4.4832     4.7935     8.6265 C.3     
  34 C34            5.8470     5.2351     9.1696 C.3     
  35 O35            5.9270     4.9123    10.5600 O.3     
  36 C36            4.9638     5.5862    11.3737 C.3     
  37 C37            3.5578     5.1674    10.9439 C.3     
  38 O38            1.4985     6.4295     9.6872 O.2     
  39 H39            3.2830     1.7862     0.0139 H       
  40 H40            3.1777    -0.6679     0.0252 H       
  41 H41            3.0414     3.7002     0.9004 H       
  42 H42            3.0150     3.6927    -0.8794 H       
  43 H43            1.9739     9.2101     3.5756 H       
  44 H44            1.8894     9.6667     1.1751 H       
  45 H45           -1.2788    -1.8625     0.0967 H       
  46 H46           -3.4037     1.8452     0.1133 H       
  47 H47           -1.3138     3.0955     0.0835 H       
  48 H48           -4.8412     0.6550     1.0310 H       
  49 H49           -4.8680     0.6480    -0.7488 H       
  50 H50           -5.6976    -0.6389     0.1589 H       
  51 H51            2.4737     4.6820     4.5490 H       
  52 H52            2.5566     4.2361     6.9632 H       
  53 H53            2.0477     8.8746     5.3314 H       
  54 H54            4.4192     3.7054     8.6359 H       
  55 H55            4.3573     5.1604     7.6079 H       
  56 H56            6.6392     4.7168     8.6293 H       
  57 H57            5.9599     6.3113     9.0387 H       
  58 H58            5.1207     5.3204    12.4191 H       
  59 H59            5.0735     6.6636    11.2507 H       
  60 H60            2.8184     5.7795    11.4604 H       
  61 H61            3.3980     4.1164    11.1849 H       
@<TRIPOS>BOND
   1    1    2 ar
   2    1    3 ar
   3    1   22 ar
   4    2   19 ar
   5    2    6 ar
   6    3    4 ar
   7    3    7 1
   8    4    5 ar
   9    4   39 1
  10    5    6 ar
  11    5   40 1
  12    7    8 1
  13    8    9 1
  14    8   41 1
  15    8   42 1
  16    9   10 1
  17    9   13 2
  18   10   11 1
  19   10   14 1
  20   11   12 2
  21   11   17 1
  22   12   13 1
  23   14   15 2
  24   15   16 1
  25   15   18 1
  26   16   17 2
  27   16   43 1
  28   17   44 1
  29   18   25 ar
  30   18   28 ar
  31   19   20 ar
  32   19   45 1
  33   20   21 ar
  34   20   23 1
  35   21   22 ar
  36   21   46 1
  37   22   47 1
  38   23   24 1
  39   24   48 1
  40   24   49 1
  41   24   50 1
  42   25   26 ar
  43   25   51 1
  44   26   27 ar
  45   26   52 1
  46   27   31 ar
  47   27   29 1
  48   28   31 ar
  49   28   53 1
  50   29   30 am
  51   29   38 2
  52   30   33 1
  53   30   37 1
  54   31   32 1
  55   33   34 1
  56   33   54 1
  57   33   55 1
  58   34   35 1
  59   34   56 1
  60   34   57 1
  61   35   36 1
  62   36   37 1
  63   36   58 1
  64   36   59 1
  65   37   60 1
  66   37   61 1

#	End of record

