#	Name: ASD02030095
#	Creating user name:	WinNT
#	Creation time:	15. 06. 2019 20:14

#	Modifying user name:	WinNT
#	Modification time:	15. 06. 2019 20:14

#	Program:	/corina/corina34_cracker 3.40 0067  02.08.2006

@<TRIPOS>MOLECULE
ASD02030095
  61   65    0    0    0
SMALL
NO_CHARGES


@<TRIPOS>ATOM
   1 N1            -0.0162     1.3641     0.1734 N.am    
   2 C2            -0.0666    -0.1020     0.0843 C.3     
   3 C3            -1.1230    -0.6169     1.0697 C.3     
   4 N4            -2.3624     0.1478     0.8714 N.am    
   5 C5            -2.3120     1.6138     0.9605 C.3     
   6 C6            -1.2566     2.1284    -0.0194 C.3     
   7 C7             1.1456     1.9960     0.4327 C.2     
   8 C8             2.3529     1.2134     0.7726 C.2     
   9 N9             3.5716     1.6904     0.9071 N.2     
  10 N10            2.3979    -0.1113     1.0048 N.2     
  11 C11            3.6421    -0.4175     1.2708 C.2     
  12 N12            4.3646     0.7197     1.2061 N.pl3   
  13 O13            1.2008     3.2095     0.3871 O.2     
  14 C14           -3.5242    -0.4842     0.6121 C.2     
  15 C15           -3.5595    -1.9520     0.5253 C.2     
  16 O16           -4.5436     0.1594     0.4497 O.2     
  17 C17           -0.9929     3.6126     0.2426 C.3     
  18 C18           -1.7514     1.9366    -1.4544 C.3     
  19 C19            5.7444     0.8273     1.4263 C.ar    
  20 C20            6.3701     2.0627     1.3285 C.ar    
  21 C21            7.7304     2.1655     1.5461 C.ar    
  22 C22            8.4687     1.0396     1.8605 C.ar    
  23 C23            7.8482    -0.1925     1.9586 C.ar    
  24 C24            6.4876    -0.3007     1.7483 C.ar    
  25 C25            8.4104     3.5062     1.4401 C.3     
  26 C26           -3.3729    -2.7139    -0.5864 C.2     
  27 O27           -3.4793    -4.0101    -0.2719 O.3     
  28 C28           -3.7376    -4.1773     1.0416 C.ar    
  29 C29           -3.7985    -2.9048     1.6278 C.ar    
  30 C30           -3.9300    -5.3010     1.8363 C.ar    
  31 C31           -4.1837    -5.1565     3.1835 C.ar    
  32 C32           -4.2498    -3.8966     3.7594 C.ar    
  33 C33           -4.0541    -2.7707     2.9886 C.ar    
  34 C34           -3.0894    -2.1779    -1.9660 C.3     
  35 H35           -0.3368    -0.3978    -0.9294 H       
  36 H36            0.9075    -0.5178     0.3420 H       
  37 H37           -1.3119    -1.6742     0.8841 H       
  38 H38           -0.7681    -0.4798     2.0911 H       
  39 H39           -3.2861     2.0297     0.7028 H       
  40 H40           -2.0418     1.9097     1.9742 H       
  41 H41            4.0212    -1.4017     1.5033 H       
  42 H42           -0.5223     3.7312     1.2185 H       
  43 H43           -0.3321     4.0060    -0.5298 H       
  44 H44           -1.9366     4.1578     0.2256 H       
  45 H45           -2.6785     2.4919    -1.5963 H       
  46 H46           -0.9976     2.3041    -2.1508 H       
  47 H47           -1.9305     0.8773    -1.6385 H       
  48 H48            5.7941     2.9424     1.0823 H       
  49 H49            9.5322     1.1224     2.0294 H       
  50 H50            8.4276    -1.0702     2.2043 H       
  51 H51            6.0036    -1.2631     1.8254 H       
  52 H52            8.4020     3.9958     2.4139 H       
  53 H53            9.4406     3.3662     1.1128 H       
  54 H54            7.8805     4.1262     0.7170 H       
  55 H55           -3.8812    -6.2871     1.3985 H       
  56 H56           -4.3329    -6.0331     3.7964 H       
  57 H57           -4.4496    -3.7975     4.8161 H       
  58 H58           -4.1055    -1.7897     3.4374 H       
  59 H59           -2.0123    -2.0841    -2.1050 H       
  60 H60           -3.4938    -2.8622    -2.7118 H       
  61 H61           -3.5569    -1.1998    -2.0789 H       
@<TRIPOS>BOND
   1    1    2 1
   2    1    7 am
   3    1    6 1
   4    2    3 1
   5    2   35 1
   6    2   36 1
   7    3    4 1
   8    3   37 1
   9    3   38 1
  10    4    5 1
  11    4   14 am
  12    5    6 1
  13    5   39 1
  14    5   40 1
  15    6   17 1
  16    6   18 1
  17    7    8 1
  18    7   13 2
  19    8    9 2
  20    8   10 1
  21    9   12 1
  22   10   11 2
  23   11   12 1
  24   11   41 1
  25   12   19 1
  26   14   15 1
  27   14   16 2
  28   15   26 2
  29   15   29 1
  30   17   42 1
  31   17   43 1
  32   17   44 1
  33   18   45 1
  34   18   46 1
  35   18   47 1
  36   19   20 ar
  37   19   24 ar
  38   20   21 ar
  39   20   48 1
  40   21   22 ar
  41   21   25 1
  42   22   23 ar
  43   22   49 1
  44   23   24 ar
  45   23   50 1
  46   24   51 1
  47   25   52 1
  48   25   53 1
  49   25   54 1
  50   26   27 1
  51   26   34 1
  52   27   28 1
  53   28   29 ar
  54   28   30 ar
  55   29   33 ar
  56   30   31 ar
  57   30   55 1
  58   31   32 ar
  59   31   56 1
  60   32   33 ar
  61   32   57 1
  62   33   58 1
  63   34   59 1
  64   34   60 1
  65   34   61 1

#	End of record

