#	Name: ASD01913549
#	Creating user name:	WinNT
#	Creation time:	15. 06. 2019 20:01

#	Modifying user name:	WinNT
#	Modification time:	15. 06. 2019 20:01

#	Program:	/corina/corina34_cracker 3.40 0067  02.08.2006

@<TRIPOS>MOLECULE
ASD01913549
  40   42    0    0    0
SMALL
NO_CHARGES


@<TRIPOS>ATOM
   1 C1             0.8614     0.2458    -0.9906 C.ar    
   2 C2             0.0985    -0.0142     0.1433 C.ar    
   3 C3             0.5428     0.4465     1.3746 C.ar    
   4 N4             1.6706     1.1215     1.4730 N.ar    
   5 C5             2.4169     1.3847     0.4180 C.ar    
   6 C6             2.0405     0.9585    -0.8417 C.ar    
   7 C7            -0.9935    -2.0588    -0.0772 C.ar    
   8 C8             0.2378    -2.7072    -0.1091 C.ar    
   9 C9             0.2742    -4.0850    -0.2303 C.ar    
  10 N10           -0.8356    -4.7868    -0.3159 N.ar    
  11 C11           -2.0320    -4.2101    -0.2897 C.ar    
  12 C12           -2.1501    -2.8295    -0.1694 C.ar    
  13 C13           -3.2516    -5.0450    -0.3899 C.2     
  14 N14           -3.1442    -6.3834    -0.5070 N.am    
  15 O15           -1.0655    -0.7089     0.0465 O.3     
  16 C16           -4.2887    -7.1776    -0.4953 C.ar    
  17 O17           -4.3487    -4.5232    -0.3664 O.2     
  18 C18           -4.1661    -8.5624    -0.4998 C.ar    
  19 C19           -5.3112    -9.3396    -0.4880 C.ar    
  20 C20           -6.5440    -8.7021    -0.4720 C.ar    
  21 C21           -6.5915    -7.3217    -0.4683 C.ar    
  22 N22           -5.4831    -6.6068    -0.4744 N.ar    
  23 C23           -7.9269    -6.6235    -0.4510 C.3     
  24 C24           -7.9815    -5.6566     0.7336 C.3     
  25 H25            0.5448    -0.1031    -1.9624 H       
  26 H26           -0.0418     0.2503     2.2613 H       
  27 H27            3.3347     1.9408     0.5401 H       
  28 H28            2.6577     1.1789    -1.7001 H       
  29 H29            1.1549    -2.1410    -0.0403 H       
  30 H30            1.2275    -4.5918    -0.2554 H       
  31 H31           -3.1235    -2.3622    -0.1482 H       
  32 H32           -2.2701    -6.7936    -0.5996 H       
  33 H33           -3.1905    -9.0254    -0.5128 H       
  34 H34           -5.2469   -10.4176    -0.4915 H       
  35 H35           -7.4567    -9.2794    -0.4628 H       
  36 H36           -8.0586    -6.0682    -1.3796 H       
  37 H37           -8.7221    -7.3626    -0.3536 H       
  38 H38           -7.8497    -6.2119     1.6622 H       
  39 H39           -7.1862    -4.9175     0.6362 H       
  40 H40           -8.9473    -5.1516     0.7461 H       
@<TRIPOS>BOND
   1    1    2 ar
   2    1    6 ar
   3    1   25 1
   4    2    3 ar
   5    2   15 1
   6    3    4 ar
   7    3   26 1
   8    4    5 ar
   9    5    6 ar
  10    5   27 1
  11    6   28 1
  12    7    8 ar
  13    7   12 ar
  14    7   15 1
  15    8    9 ar
  16    8   29 1
  17    9   10 ar
  18    9   30 1
  19   10   11 ar
  20   11   12 ar
  21   11   13 1
  22   12   31 1
  23   13   14 am
  24   13   17 2
  25   14   16 1
  26   14   32 1
  27   16   18 ar
  28   16   22 ar
  29   18   19 ar
  30   18   33 1
  31   19   20 ar
  32   19   34 1
  33   20   21 ar
  34   20   35 1
  35   21   22 ar
  36   21   23 1
  37   23   24 1
  38   23   36 1
  39   23   37 1
  40   24   38 1
  41   24   39 1
  42   24   40 1

#	End of record

