#	Name: ASD01208614
#	Creating user name:	WinNT
#	Creation time:	15. 06. 2019 19:10

#	Modifying user name:	WinNT
#	Modification time:	15. 06. 2019 19:10

#	Program:	/corina/corina34_cracker 3.40 0067  02.08.2006

@<TRIPOS>MOLECULE
ASD01208614
  50   52    0    0    0
SMALL
NO_CHARGES


@<TRIPOS>ATOM
   1 C1            -0.0166     1.3811     0.0215 C.ar    
   2 C2             0.0020    -0.0038     0.0054 C.ar    
   3 C3             1.2205    -0.6829    -0.0197 C.ar    
   4 C4             2.4160     0.0371    -0.0284 C.ar    
   5 C5             2.3883     1.4215    -0.0121 C.ar    
   6 C6             1.1741     2.0929     0.0128 C.ar    
   7 O7            -1.2031     2.0436     0.0402 O.3     
   8 O8             3.5519     2.1236    -0.0201 O.3     
   9 C9             4.7401     4.1059    -0.7266 C.3     
  10 C10            3.4510     3.5453    -0.1225 C.3     
  11 C11            3.2382     4.1431     1.2697 C.3     
  12 O12            5.8285     3.8675     0.1683 O.3     
  13 C13            7.0862     4.3549    -0.3034 C.3     
  14 N14            0.1513    -2.9796    -0.0298 N.pl3   
  15 C15            1.2452    -2.1608    -0.0365 C.2     
  16 C16            2.3741    -2.9480    -0.0622 C.2     
  17 C17            1.9594    -4.2807    -0.0716 C.2     
  18 C18            0.5815    -4.2853    -0.0513 C.2     
  19 O19           -1.6270    -5.4157    -0.0315 O.3     
  20 C20           -0.2781    -5.4776    -0.0521 C.2     
  21 N21            0.1893    -6.6918    -0.0734 N.2     
  22 C22           -0.9504    -7.6294    -0.0833 C.3     
  23 C23           -2.1311    -6.6994    -0.4537 C.3     
  24 C24           -0.7559    -8.7142    -1.1446 C.3     
  25 C25            0.5036    -9.5215    -0.8239 C.3     
  26 O26           -0.6164    -8.1041    -2.4293 O.3     
  27 H27           -0.9255    -0.5572     0.0126 H       
  28 H28            3.3614    -0.4847    -0.0474 H       
  29 H29            1.1561     3.1727     0.0251 H       
  30 H30           -1.5382     2.2252     0.9289 H       
  31 H31            4.9387     3.6145    -1.6791 H       
  32 H32            4.6299     5.1783    -0.8871 H       
  33 H33            2.6074     3.8046    -0.7621 H       
  34 H34            4.0819     3.8838     1.9093 H       
  35 H35            3.1613     5.2276     1.1916 H       
  36 H36            2.3198     3.7438     1.7000 H       
  37 H37            7.3335     3.8687    -1.2472 H       
  38 H38            7.0246     5.4325    -0.4551 H       
  39 H39            7.8600     4.1351     0.4321 H       
  40 H40           -0.7737    -2.6885    -0.0092 H       
  41 H41            3.3957    -2.5979    -0.0735 H       
  42 H42            2.6009    -5.1493    -0.0911 H       
  43 H43           -1.0982    -8.0726     0.9015 H       
  44 H44           -3.0300    -6.9684     0.1011 H       
  45 H45           -2.3176    -6.7125    -1.5275 H       
  46 H46           -1.6210    -9.3772    -1.1493 H       
  47 H47            0.3972    -9.9868     0.1560 H       
  48 H48            0.6422   -10.2943    -1.5800 H       
  49 H49            1.3688    -8.8585    -0.8193 H       
  50 H50            0.1352    -7.4996    -2.4981 H       
@<TRIPOS>BOND
   1    1    2 ar
   2    1    6 ar
   3    1    7 1
   4    2    3 ar
   5    2   27 1
   6    3    4 ar
   7    3   15 1
   8    4    5 ar
   9    4   28 1
  10    5    6 ar
  11    5    8 1
  12    6   29 1
  13    7   30 1
  14    8   10 1
  15    9   10 1
  16    9   12 1
  17    9   31 1
  18    9   32 1
  19   10   11 1
  20   10   33 1
  21   11   34 1
  22   11   35 1
  23   11   36 1
  24   12   13 1
  25   13   37 1
  26   13   38 1
  27   13   39 1
  28   14   15 1
  29   14   18 1
  30   14   40 1
  31   15   16 2
  32   16   17 1
  33   16   41 1
  34   17   18 2
  35   17   42 1
  36   18   20 1
  37   19   20 1
  38   19   23 1
  39   20   21 2
  40   21   22 1
  41   22   23 1
  42   22   24 1
  43   22   43 1
  44   23   44 1
  45   23   45 1
  46   24   25 1
  47   24   26 1
  48   24   46 1
  49   25   47 1
  50   25   48 1
  51   25   49 1
  52   26   50 1

#	End of record

