#	Name: ASD01810722
#	Creating user name:	WinNT
#	Creation time:	15. 06. 2019 19:25

#	Modifying user name:	WinNT
#	Modification time:	15. 06. 2019 19:25

#	Program:	/corina/corina34_cracker 3.40 0067  02.08.2006

@<TRIPOS>MOLECULE
ASD01810722
  61   65    0    0    0
SMALL
NO_CHARGES


@<TRIPOS>ATOM
   1 N1             0.1439     1.3855    -0.0620 N.am    
   2 C2             0.0353     0.1687    -0.6313 C.2     
   3 O3             0.9765    -0.3048    -1.2381 O.2     
   4 N4            -1.1168    -0.5231    -0.5280 N.am    
   5 O5            -1.6104    -4.0627    -0.3009 O.3     
   6 C6            -0.7197    -2.9460    -0.1943 C.3     
   7 C7            -1.2349    -1.8458    -1.1468 C.3     
   8 C8            -2.7261    -2.2395    -1.3293 C.3     
   9 C9            -2.6313    -3.7850    -1.2725 C.3     
  10 C10            1.3722     2.0567    -0.0741 C.ar    
  11 C11            1.4062     3.4419    -0.1819 C.ar    
  12 C12            2.6164     4.1093    -0.1947 C.ar    
  13 C13            3.7994     3.4046    -0.1005 C.ar    
  14 C14            3.7761     2.0133     0.0087 C.ar    
  15 C15            2.5543     1.3403     0.0273 C.ar    
  16 C16            0.1191     4.2188    -0.2858 C.3     
  17 C17            5.0419     1.2558     0.1093 C.2     
  18 O18            5.0826     0.0915    -0.2375 O.2     
  19 C19            7.2490     3.0467     2.3488 C.3     
  20 C20            6.2705     3.2138     1.1663 C.3     
  21 N21            6.1505     1.8562     0.5856 N.am    
  22 C22            7.5256     1.3084     0.6472 C.3     
  23 C23            8.0765     1.7903     2.0066 C.3     
  24 C24            8.7481     3.1637     2.0665 C.3     
  25 C25            9.1620     3.7920     0.7608 C.ar    
  26 C26            8.8758     5.1219     0.5135 C.ar    
  27 C27            9.2541     5.7002    -0.6827 C.ar    
  28 C28            9.9217     4.9454    -1.6362 C.ar    
  29 C29           10.2077     3.6112    -1.3857 C.ar    
  30 C30            9.8323     3.0391    -0.1856 C.ar    
  31 O31           10.2945     5.5119    -2.8139 O.3     
  32 C32           10.9783     4.6749    -3.7487 C.3     
  33 H33           -0.6300     1.7979     0.3525 H       
  34 H34           -1.8677    -0.1453    -0.0440 H       
  35 H35           -0.7133    -2.5746     0.8305 H       
  36 H36            0.2866    -3.2465    -0.4862 H       
  37 H37           -0.7033    -1.8760    -2.0980 H       
  38 H38           -3.3370    -1.8531    -0.5134 H       
  39 H39           -3.1056    -1.9044    -2.2945 H       
  40 H40           -2.3451    -4.1825    -2.2462 H       
  41 H41           -3.5827    -4.2109    -0.9539 H       
  42 H42            2.6365     5.1858    -0.2791 H       
  43 H43            4.7432     3.9297    -0.1115 H       
  44 H44            2.5298     0.2642     0.1160 H       
  45 H45           -0.2252     4.4867     0.7131 H       
  46 H46            0.2877     5.1252    -0.8672 H       
  47 H47           -0.6362     3.6064    -0.7784 H       
  48 H48            6.8726     3.2576     3.3498 H       
  49 H49            5.3008     3.5623     1.5217 H       
  50 H50            6.6783     3.9072     0.4307 H       
  51 H51            7.5027     0.2192     0.6110 H       
  52 H52            8.1293     1.7041    -0.1695 H       
  53 H53            8.3074     1.0327     2.7554 H       
  54 H54            9.4045     3.3654     2.9131 H       
  55 H55            8.3557     5.7090     1.2559 H       
  56 H56            9.0300     6.7390    -0.8755 H       
  57 H57           10.7273     3.0215    -2.1264 H       
  58 H58           10.0589     2.0018     0.0119 H       
  59 H59           10.3398     3.8334    -4.0177 H       
  60 H60           11.2180     5.2496    -4.6434 H       
  61 H61           11.8986     4.3033    -3.2982 H       
@<TRIPOS>BOND
   1    1    2 am
   2    1   10 1
   3    1   33 1
   4    2    3 2
   5    2    4 am
   6    4    7 1
   7    4   34 1
   8    5    6 1
   9    5    9 1
  10    6    7 1
  11    6   35 1
  12    6   36 1
  13    7    8 1
  14    7   37 1
  15    8    9 1
  16    8   38 1
  17    8   39 1
  18    9   40 1
  19    9   41 1
  20   10   11 ar
  21   10   15 ar
  22   11   12 ar
  23   11   16 1
  24   12   13 ar
  25   12   42 1
  26   13   14 ar
  27   13   43 1
  28   14   15 ar
  29   14   17 1
  30   15   44 1
  31   16   45 1
  32   16   46 1
  33   16   47 1
  34   17   18 2
  35   17   21 am
  36   19   20 1
  37   19   24 1
  38   19   23 1
  39   19   48 1
  40   20   21 1
  41   20   49 1
  42   20   50 1
  43   21   22 1
  44   22   23 1
  45   22   51 1
  46   22   52 1
  47   23   24 1
  48   23   53 1
  49   24   25 1
  50   24   54 1
  51   25   26 ar
  52   25   30 ar
  53   26   27 ar
  54   26   55 1
  55   27   28 ar
  56   27   56 1
  57   28   29 ar
  58   28   31 1
  59   29   30 ar
  60   29   57 1
  61   30   58 1
  62   31   32 1
  63   32   59 1
  64   32   60 1
  65   32   61 1

#	End of record

