#	Name: ASD09116423
#	Creating user name:	WinNT
#	Creation time:	15. 06. 2019 21:21

#	Modifying user name:	WinNT
#	Modification time:	15. 06. 2019 21:21

#	Program:	/corina/corina34_cracker 3.40 0067  02.08.2006

@<TRIPOS>MOLECULE
ASD09116423
  78   84    0    0    0
SMALL
NO_CHARGES


@<TRIPOS>ATOM
   1 N1            -0.5516     3.7715    -0.1859 N.2     
   2 N2            -1.1310     4.4324    -1.2810 N.pl3   
   3 C3             0.7477     3.8088    -0.3601 C.2     
   4 N4             1.0165     4.4547    -1.5009 N.2     
   5 C5            -0.1071     4.8375    -2.0686 C.2     
   6 N6            -0.2217     5.5305    -3.2586 N.pl3   
   7 C7            -2.4934     4.6319    -1.5121 C.ar    
   8 N8             1.6968     3.2630     0.5045 N.pl3   
   9 C9             3.0525     3.4685     0.2686 C.ar    
  10 C10            3.4955     4.6553    -0.3138 C.ar    
  11 C11            3.9858     2.4918     0.6172 C.ar    
  12 N12            5.2668     2.6782     0.3983 N.ar    
  13 C13            5.7250     3.7937    -0.1596 C.ar    
  14 C14            4.8515     4.8165    -0.5298 C.ar    
  15 N15           -2.8962     5.6456    -2.2636 N.ar    
  16 N16           -4.1382     5.8790    -2.4994 N.ar    
  17 C17           -5.0950     5.1137    -1.9994 C.ar    
  18 C18           -4.7634     4.0076    -1.2117 C.ar    
  19 C19           -3.4315     3.7590    -0.9554 C.ar    
  20 C20           -6.5284     5.4118    -2.2246 C.ar    
  21 C21           -7.3930     5.4343    -1.1291 C.ar    
  22 C22           -6.8400     5.2118     0.2519 C.3     
  23 C23           -6.5509     3.7346     0.5045 C.3     
  24 C24           -5.8488     3.1076    -0.6970 C.3     
  25 C25           -7.0173     5.6625    -3.5020 C.ar    
  26 C26           -8.3637     5.9144    -3.6815 C.ar    
  27 C27           -9.2207     5.9152    -2.5959 C.ar    
  28 C28           -8.7365     5.6747    -1.3217 C.ar    
  29 C29            7.1772     3.9555    -0.3846 C.2     
  30 N30            8.0113     2.9179    -0.1747 N.am    
  31 O31            7.6189     5.0243    -0.7590 O.2     
  32 C32            9.4668     3.1183    -0.1612 C.3     
  33 C33           10.1079     2.1441    -1.1545 C.3     
  34 C34            9.6668     0.7173    -0.8205 C.3     
  35 C35            8.1458     0.6081    -0.9502 C.3     
  36 C36            7.4823     1.5659     0.0510 C.3     
  37 N37           10.3060    -0.2230    -1.7506 N.3     
  38 C38           10.0001    -1.6126    -1.3873 C.3     
  39 C39           10.5580    -2.5553    -2.4559 C.3     
  40 C40           12.0726    -2.3579    -2.5633 C.3     
  41 C41           12.3661    -0.8921    -2.8948 C.3     
  42 C42           11.7557     0.0025    -1.8134 C.3     
  43 H43            0.5745     5.7784    -3.7542 H       
  44 H44           -1.0984     5.7692    -3.5984 H       
  45 H45            1.4115     2.7402     1.2702 H       
  46 H46            2.7958     5.4302    -0.5900 H       
  47 H47            3.6506     1.5718     1.0728 H       
  48 H48            5.2294     5.7211    -0.9829 H       
  49 H49           -3.1254     2.9251    -0.3411 H       
  50 H50           -5.9163     5.7798     0.3618 H       
  51 H51           -7.5637     5.5643     0.9868 H       
  52 H52           -5.9128     3.6390     1.3831 H       
  53 H53           -7.4897     3.2110     0.6851 H       
  54 H54           -6.5779     2.9363    -1.4889 H       
  55 H55           -5.4128     2.1539    -0.3999 H       
  56 H56           -6.3478     5.6605    -4.3494 H       
  57 H57           -8.7478     6.1115    -4.6715 H       
  58 H58          -10.2736     6.1047    -2.7433 H       
  59 H59           -9.4114     5.6752    -0.4785 H       
  60 H60            9.6973     4.1427    -0.4536 H       
  61 H61            9.8528     2.9262     0.8399 H       
  62 H62            9.7908     2.3954    -2.1667 H       
  63 H63           11.1933     2.2151    -1.0847 H       
  64 H64            9.9624     0.4754     0.2004 H       
  65 H65            7.8472     0.8739    -1.9643 H       
  66 H66            7.8347    -0.4141    -0.7349 H       
  67 H67            7.7073     1.2447     1.0680 H       
  68 H68            6.4033     1.5664    -0.1039 H       
  69 H69           10.4553    -1.8449    -0.4245 H       
  70 H70            8.9198    -1.7405    -1.3184 H       
  71 H71           10.3444    -3.5874    -2.1781 H       
  72 H72           10.0930    -2.3327    -3.4163 H       
  73 H73           12.5420    -2.6178    -1.6145 H       
  74 H74           12.4681    -2.9962    -3.3534 H       
  75 H75           13.4442    -0.7358    -2.9305 H       
  76 H76           11.9295    -0.6432    -3.8620 H       
  77 H77           11.9506     1.0476    -2.0540 H       
  78 H78           12.2027    -0.2374    -0.8487 H       
@<TRIPOS>BOND
   1    1    2 1
   2    1    3 2
   3    2    7 1
   4    2    5 1
   5    3    4 1
   6    3    8 1
   7    4    5 2
   8    5    6 1
   9    6   43 1
  10    6   44 1
  11    7   15 ar
  12    7   19 ar
  13    8    9 1
  14    8   45 1
  15    9   10 ar
  16    9   11 ar
  17   10   14 ar
  18   10   46 1
  19   11   12 ar
  20   11   47 1
  21   12   13 ar
  22   13   14 ar
  23   13   29 1
  24   14   48 1
  25   15   16 ar
  26   16   17 ar
  27   17   18 ar
  28   17   20 1
  29   18   19 ar
  30   18   24 1
  31   19   49 1
  32   20   21 ar
  33   20   25 ar
  34   21   22 1
  35   21   28 ar
  36   22   23 1
  37   22   50 1
  38   22   51 1
  39   23   24 1
  40   23   52 1
  41   23   53 1
  42   24   54 1
  43   24   55 1
  44   25   26 ar
  45   25   56 1
  46   26   27 ar
  47   26   57 1
  48   27   28 ar
  49   27   58 1
  50   28   59 1
  51   29   30 am
  52   29   31 2
  53   30   32 1
  54   30   36 1
  55   32   33 1
  56   32   60 1
  57   32   61 1
  58   33   34 1
  59   33   62 1
  60   33   63 1
  61   34   35 1
  62   34   37 1
  63   34   64 1
  64   35   36 1
  65   35   65 1
  66   35   66 1
  67   36   67 1
  68   36   68 1
  69   37   38 1
  70   37   42 1
  71   38   39 1
  72   38   69 1
  73   38   70 1
  74   39   40 1
  75   39   71 1
  76   39   72 1
  77   40   41 1
  78   40   73 1
  79   40   74 1
  80   41   42 1
  81   41   75 1
  82   41   76 1
  83   42   77 1
  84   42   78 1

#	End of record

