#	Name: ASD00311073
#	Creating user name:	WinNT
#	Creation time:	15. 06. 2019 18:34

#	Modifying user name:	WinNT
#	Modification time:	15. 06. 2019 18:34

#	Program:	/corina/corina34_cracker 3.40 0067  02.08.2006

@<TRIPOS>MOLECULE
ASD00311073
  37   40    0    0    0
SMALL
NO_CHARGES


@<TRIPOS>ATOM
   1 C1            -0.0167     1.3776     0.0096 C.2     
   2 C2             0.0021    -0.0041     0.0020 C.2     
   3 C3             1.2586    -0.6766    -0.0128 C.2     
   4 C4             2.4315     0.0672    -0.0193 C.2     
   5 C5             2.3576     1.4749    -0.0111 C.2     
   6 N6             1.1650     2.0902     0.0022 N.am    
   7 C7            -1.3434    -0.5753     0.0118 C.2     
   8 C8            -2.3231     0.3266     0.0260 C.2     
   9 S9            -1.6791     1.9564     0.0358 S.3     
  10 O10            3.3825     2.1370    -0.0167 O.2     
  11 C11            3.7477    -0.6123    -0.0343 C.ar    
  12 C12            4.5915    -0.4742    -1.1332 C.ar    
  13 C13            5.8286    -1.1165    -1.1392 C.ar    
  14 C14            6.2135    -1.8938    -0.0438 C.ar    
  15 C15            5.3714    -2.0259     1.0419 C.ar    
  16 C16            4.1467    -1.3874     1.0555 C.ar    
  17 C17            6.7026    -0.9804    -2.2654 C.1     
  18 N18            7.3960    -0.8724    -3.1588 N.1     
  19 C19           -1.5961    -2.0356     0.0056 C.ar    
  20 C20           -2.2069    -2.6444     1.1013 C.ar    
  21 C21           -2.4400    -4.0043     1.0908 C.ar    
  22 C22           -2.0681    -4.7647    -0.0060 C.ar    
  23 C23           -1.4609    -4.1643    -1.0971 C.ar    
  24 C24           -1.2288    -2.8043    -1.0984 C.ar    
  25 F25           -2.2980    -6.0960    -0.0115 F       
  26 O26            1.3084    -2.0292    -0.0201 O.3     
  27 Cl27          -4.0152    -0.0612     0.0391 Cl      
  28 H28            1.1329     3.0596     0.0077 H       
  29 H29            4.2887     0.1276    -1.9773 H       
  30 H30            7.1715    -2.3926    -0.0467 H       
  31 H31            5.6731    -2.6281     1.8861 H       
  32 H32            3.4944    -1.4916     1.9099 H       
  33 H33           -2.4968    -2.0526     1.9569 H       
  34 H34           -2.9127    -4.4768     1.9391 H       
  35 H35           -1.1725    -4.7613    -1.9496 H       
  36 H36           -0.7595    -2.3365    -1.9512 H       
  37 H37            2.2057    -2.3897    -0.0301 H       
@<TRIPOS>BOND
   1    1    2 2
   2    1    6 1
   3    1    9 1
   4    2    3 1
   5    2    7 1
   6    3    4 2
   7    3   26 1
   8    4    5 1
   9    4   11 1
  10    5    6 am
  11    5   10 2
  12    6   28 1
  13    7    8 2
  14    7   19 1
  15    8    9 1
  16    8   27 1
  17   11   12 ar
  18   11   16 ar
  19   12   13 ar
  20   12   29 1
  21   13   14 ar
  22   13   17 1
  23   14   15 ar
  24   14   30 1
  25   15   16 ar
  26   15   31 1
  27   16   32 1
  28   17   18 3
  29   19   20 ar
  30   19   24 ar
  31   20   21 ar
  32   20   33 1
  33   21   22 ar
  34   21   34 1
  35   22   23 ar
  36   22   25 1
  37   23   24 ar
  38   23   35 1
  39   24   36 1
  40   26   37 1

#	End of record

