#	Name: ASD03331191
#	Creating user name:	WinNT
#	Creation time:	15. 06. 2019 20:38

#	Modifying user name:	WinNT
#	Modification time:	15. 06. 2019 20:38

#	Program:	/corina/corina34_cracker 3.40 0067  02.08.2006

@<TRIPOS>MOLECULE
ASD03331191
  55   59    0    0    0
SMALL
NO_CHARGES


@<TRIPOS>ATOM
   1 N1            -0.0459     1.4956     0.5698 N.am    
   2 C2             0.0019     0.1506     1.1632 C.3     
   3 C3             0.5966    -0.8151     0.1327 C.3     
   4 N4             1.8894    -0.2950    -0.3322 N.3     
   5 C5             1.7288     0.9911    -1.0237 C.3     
   6 C6             1.1805     2.0309    -0.0406 C.3     
   7 C7            -1.1849     2.2161     0.5803 C.2     
   8 O8            -2.2139     1.7207     0.9974 O.2     
   9 N9            -1.1831     3.4859     0.1284 N.am    
  10 C10           -2.3851     4.1963     0.0330 C.ar    
  11 C11           -2.4015     5.5681     0.2481 C.ar    
  12 C12           -3.5892     6.2664     0.1527 C.ar    
  13 C13           -4.7613     5.6010    -0.1566 C.ar    
  14 C14           -4.7483     4.2350    -0.3714 C.ar    
  15 C15           -3.5629     3.5318    -0.2826 C.ar    
  16 C16            2.5723    -1.2724    -1.1902 C.3     
  17 C17            3.7648    -0.6215    -1.8425 C.ar    
  18 C18            3.6667    -0.1914    -3.1166 C.ar    
  19 C19            4.7570     0.4260    -3.7727 C.ar    
  20 C20            5.9812     0.6017    -3.0892 C.ar    
  21 C21            6.0877     0.1346    -1.7040 C.ar    
  22 C22            4.9609    -0.4700    -1.1029 C.ar    
  23 C23            4.6451     0.8695    -5.0981 C.ar    
  24 C24            5.7129     1.4612    -5.7065 C.ar    
  25 C25            6.9155     1.6318    -5.0308 C.ar    
  26 C26            7.0563     1.2106    -3.7393 C.ar    
  27 C27            7.2686     0.2793    -0.9733 C.ar    
  28 C28            7.3259    -0.1688     0.3156 C.ar    
  29 C29            6.2212    -0.7684     0.9090 C.ar    
  30 C30            5.0527    -0.9202     0.2218 C.ar    
  31 H31            0.6285     0.1659     2.0549 H       
  32 H32           -1.0063    -0.1697     1.4260 H       
  33 H33            0.7419    -1.7929     0.5920 H       
  34 H34           -0.0837    -0.9080    -0.7138 H       
  35 H35            2.6951     1.3233    -1.4030 H       
  36 H36            1.0326     0.8731    -1.8541 H       
  37 H37            0.9515     2.9537    -0.5736 H       
  38 H38            1.9203     2.2269     0.7355 H       
  39 H39           -0.3488     3.9073    -0.1307 H       
  40 H40           -1.4865     6.0883     0.4900 H       
  41 H41           -3.6027     7.3332     0.3202 H       
  42 H42           -5.6889     6.1492    -0.2303 H       
  43 H43           -5.6653     3.7181    -0.6128 H       
  44 H44           -3.5526     2.4657    -0.4549 H       
  45 H45            2.9044    -2.1167    -0.5862 H       
  46 H46            1.8845    -1.6240    -1.9592 H       
  47 H47            2.7354    -0.3214    -3.6478 H       
  48 H48            3.7169     0.7428    -5.6354 H       
  49 H49            5.6228     1.8015    -6.7275 H       
  50 H50            7.7479     2.1026    -5.5327 H       
  51 H51            7.9949     1.3484    -3.2231 H       
  52 H52            8.1328     0.7432    -1.4253 H       
  53 H53            8.2398    -0.0563     0.8799 H       
  54 H54            6.2881    -1.1164     1.9292 H       
  55 H55            4.2021    -1.3876     0.6955 H       
@<TRIPOS>BOND
   1    1    2 1
   2    1    6 1
   3    1    7 am
   4    2    3 1
   5    2   31 1
   6    2   32 1
   7    3    4 1
   8    3   33 1
   9    3   34 1
  10    4    5 1
  11    4   16 1
  12    5    6 1
  13    5   35 1
  14    5   36 1
  15    6   37 1
  16    6   38 1
  17    7    8 2
  18    7    9 am
  19    9   10 1
  20    9   39 1
  21   10   11 ar
  22   10   15 ar
  23   11   12 ar
  24   11   40 1
  25   12   13 ar
  26   12   41 1
  27   13   14 ar
  28   13   42 1
  29   14   15 ar
  30   14   43 1
  31   15   44 1
  32   16   17 1
  33   16   45 1
  34   16   46 1
  35   17   18 ar
  36   17   22 ar
  37   18   19 ar
  38   18   47 1
  39   19   20 ar
  40   19   23 ar
  41   20   21 ar
  42   20   26 ar
  43   21   22 ar
  44   21   27 ar
  45   22   30 ar
  46   23   24 ar
  47   23   48 1
  48   24   25 ar
  49   24   49 1
  50   25   26 ar
  51   25   50 1
  52   26   51 1
  53   27   28 ar
  54   27   52 1
  55   28   29 ar
  56   28   53 1
  57   29   30 ar
  58   29   54 1
  59   30   55 1

#	End of record

