#	Name: ASD03240576
#	Creating user name:	WinNT
#	Creation time:	15. 06. 2019 20:35

#	Modifying user name:	WinNT
#	Modification time:	15. 06. 2019 20:35

#	Program:	/corina/corina34_cracker 3.40 0067  02.08.2006

@<TRIPOS>MOLECULE
ASD03240576
  51   56    0    0    0
SMALL
NO_CHARGES


@<TRIPOS>ATOM
   1 C1            -0.0166     1.3756     0.0096 C.ar    
   2 C2             0.0021    -0.0041     0.0020 C.ar    
   3 N3             1.1421    -0.6683    -0.0054 N.ar    
   4 C4             2.3145    -0.0482    -0.0054 C.ar    
   5 C5             2.3702     1.3442    -0.0124 C.ar    
   6 C6             1.1859     2.0698     0.0019 C.ar    
   7 N7             3.4816    -0.8060     0.0227 N.pl3   
   8 C8             4.3583    -0.7202     1.1006 C.ar    
   9 C9             4.9949     0.4875     1.4050 C.ar    
  10 C10            4.7646     1.6827     0.5632 C.2     
  11 N11            3.5936     2.0278    -0.0512 N.pl3   
  12 C12            4.6032    -1.8403     1.8839 C.ar    
  13 C13            5.4629    -1.7557     2.9623 C.ar    
  14 C14            6.0844    -0.5581     3.2715 C.ar    
  15 C15            5.8552     0.5632     2.4999 C.ar    
  16 N16            5.6768     2.5906     0.2885 N.2     
  17 C17            5.1459     3.5395    -0.5045 C.2     
  18 C18            3.8188     3.1998    -0.7351 C.2     
  19 C19            2.8441     3.9477    -1.5521 C.ar    
  20 C20            2.7428     5.3356    -1.4283 C.ar    
  21 C21            2.0220     3.2720    -2.4575 C.ar    
  22 C22            1.1135     3.9777    -3.2183 C.ar    
  23 C23            1.0150     5.3517    -3.0865 C.ar    
  24 C24            1.8297     6.0282    -2.1956 C.ar    
  25 C25            5.8257     4.6907    -1.0176 C.1     
  26 C26            0.0202     6.1157    -3.9217 C.3     
  27 N27           -1.0576     5.2655    -4.4449 N.3     
  28 C28           -0.4826     7.4064    -3.2537 C.3     
  29 C29           -0.3975     8.0642    -4.6411 C.3     
  30 C30            0.6709     7.0117    -4.9887 C.3     
  31 N31            6.3650     5.6040    -1.4246 N.1     
  32 H32           -0.9556     1.9092     0.0170 H       
  33 H33           -0.9306    -0.5485     0.0025 H       
  34 H34            1.2001     3.1497     0.0061 H       
  35 H35            3.6861    -1.4002    -0.7162 H       
  36 H36            4.1218    -2.7783     1.6499 H       
  37 H37            5.6509    -2.6297     3.5683 H       
  38 H38            6.7509    -0.5008     4.1193 H       
  39 H39            6.3412     1.4965     2.7432 H       
  40 H40            3.3777     5.8648    -0.7332 H       
  41 H41            2.0981     2.1997    -2.5616 H       
  42 H42            0.4777     3.4567    -3.9188 H       
  43 H43            1.7471     7.1006    -2.0977 H       
  44 H44           -0.6835     4.4439    -4.8956 H       
  45 H45           -1.7063     5.0136    -3.7143 H       
  46 H46           -1.4992     7.3309    -2.8679 H       
  47 H47            0.2164     7.8238    -2.5290 H       
  48 H48           -1.3113     7.9668    -5.2273 H       
  49 H49           -0.0152     9.0847    -4.6178 H       
  50 H50            1.6858     7.3208    -4.7385 H       
  51 H51            0.5844     6.6199    -6.0021 H       
@<TRIPOS>BOND
   1    1    2 ar
   2    1    6 ar
   3    1   32 1
   4    2    3 ar
   5    2   33 1
   6    3    4 ar
   7    4    5 ar
   8    4    7 1
   9    5    6 ar
  10    5   11 1
  11    6   34 1
  12    7    8 1
  13    7   35 1
  14    8    9 ar
  15    8   12 ar
  16    9   10 1
  17    9   15 ar
  18   10   11 1
  19   10   16 2
  20   11   18 1
  21   12   13 ar
  22   12   36 1
  23   13   14 ar
  24   13   37 1
  25   14   15 ar
  26   14   38 1
  27   15   39 1
  28   16   17 1
  29   17   18 2
  30   17   25 1
  31   18   19 1
  32   19   20 ar
  33   19   21 ar
  34   20   24 ar
  35   20   40 1
  36   21   22 ar
  37   21   41 1
  38   22   23 ar
  39   22   42 1
  40   23   24 ar
  41   23   26 1
  42   24   43 1
  43   25   31 3
  44   26   27 1
  45   26   28 1
  46   26   30 1
  47   27   44 1
  48   27   45 1
  49   28   29 1
  50   28   46 1
  51   28   47 1
  52   29   30 1
  53   29   48 1
  54   29   49 1
  55   30   50 1
  56   30   51 1

#	End of record

