#	Name: ASD03091785
#	Creating user name:	WinNT
#	Creation time:	15. 06. 2019 20:31

#	Modifying user name:	WinNT
#	Modification time:	15. 06. 2019 20:31

#	Program:	/corina/corina34_cracker 3.40 0067  02.08.2006

@<TRIPOS>MOLECULE
ASD03091785
  36   38    0    0    0
SMALL
NO_CHARGES


@<TRIPOS>ATOM
   1 C1            -0.0110     1.4371    -0.0454 C.3     
   2 C2             0.0824    -0.0877    -0.1318 C.3     
   3 N3             0.7813    -0.6045     1.0519 N.3     
   4 C4             0.0467    -0.2854     2.2827 C.3     
   5 C5            -0.0484     1.2333     2.4430 C.3     
   6 C6             1.3632     1.8234     2.5289 C.3     
   7 N7             2.0506     1.5909     1.2513 N.am    
   8 C8             1.4013     2.0293     0.0084 C.3     
   9 C9             3.2546     0.9861     1.2201 C.2     
  10 O10            3.7596     0.6897     0.1523 O.2     
  11 C11            3.9330     0.6950     2.4299 C.2     
  12 C12            5.0869    -0.0561     2.5581 C.2     
  13 C13           -0.7675     1.8271     1.2280 C.3     
  14 O14            3.5718     1.1066     3.6661 O.3     
  15 C15            4.4470     0.6410     4.5667 C.2     
  16 C16            5.3953    -0.0790     3.9331 C.2     
  17 O17            5.7835    -0.6532     1.5585 O.3     
  18 C18            6.9544    -1.3832     1.9301 C.3     
  19 H19           -0.5350     1.8211    -0.9206 H       
  20 H20           -0.9210    -0.5112    -0.1748 H       
  21 H21            0.6333    -0.3675    -1.0297 H       
  22 H22            0.9403    -1.5978     0.9729 H       
  23 H23           -0.9564    -0.7081     2.2268 H       
  24 H24            0.5717    -0.7087     3.1390 H       
  25 H25           -0.5995     1.4707     3.3530 H       
  26 H26            1.3006     2.8945     2.7207 H       
  27 H27            1.9142     1.3373     3.3341 H       
  28 H28            1.9774     1.6790    -0.8481 H       
  29 H29            1.3422     3.1176    -0.0089 H       
  30 H30           -0.7959     2.9132     1.3166 H       
  31 H31           -1.7847     1.4382     1.1809 H       
  32 H32            4.4022     0.8168     5.6314 H       
  33 H33            6.2345    -0.5793     4.3934 H       
  34 H34            7.6608    -0.7125     2.4192 H       
  35 H35            6.6804    -2.1851     2.6157 H       
  36 H36            7.4153    -1.8090     1.0387 H       
@<TRIPOS>BOND
   1    1    2 1
   2    1    8 1
   3    1   13 1
   4    1   19 1
   5    2    3 1
   6    2   20 1
   7    2   21 1
   8    3    4 1
   9    3   22 1
  10    4    5 1
  11    4   23 1
  12    4   24 1
  13    5    6 1
  14    5   13 1
  15    5   25 1
  16    6    7 1
  17    6   26 1
  18    6   27 1
  19    7    8 1
  20    7    9 am
  21    8   28 1
  22    8   29 1
  23    9   10 2
  24    9   11 1
  25   11   12 2
  26   11   14 1
  27   12   17 1
  28   12   16 1
  29   13   30 1
  30   13   31 1
  31   14   15 1
  32   15   16 2
  33   15   32 1
  34   16   33 1
  35   17   18 1
  36   18   34 1
  37   18   35 1
  38   18   36 1

#	End of record

