#	Name: ASD03082429
#	Creating user name:	WinNT
#	Creation time:	15. 06. 2019 20:27

#	Modifying user name:	WinNT
#	Modification time:	15. 06. 2019 20:27

#	Program:	/corina/corina34_cracker 3.40 0067  02.08.2006

@<TRIPOS>MOLECULE
ASD03082429
  52   55    0    0    0
SMALL
NO_CHARGES


@<TRIPOS>ATOM
   1 C1             1.9492     3.8495    -0.8501 C.ar    
   2 C2             1.0928     4.6075    -1.6381 C.ar    
   3 C3             1.2320     5.9814    -1.6879 C.ar    
   4 C4             2.2255     6.6068    -0.9521 C.ar    
   5 C5             3.0857     5.8496    -0.1606 C.ar    
   6 N6             1.8078     2.4582    -0.8012 N.pl3   
   7 C7             2.9185     1.6513    -0.5333 C.2     
   8 C8             2.8986     0.2591    -0.3415 C.2     
   9 N9             4.1600     2.0627    -0.4232 N.2     
  10 N10            4.9673     0.9504    -0.1527 N.pl3   
  11 C11            4.1668    -0.1465    -0.1077 C.2     
  12 C12            6.3528     0.9656     0.0342 C.ar    
  13 C13            7.1632    -0.0069    -0.5479 C.ar    
  14 C14            6.9596     1.9574     0.8029 C.ar    
  15 C15            8.3297     1.9372     0.9632 C.ar    
  16 N16            9.0628     0.9956     0.3999 N.ar    
  17 C17            8.5265     0.0433    -0.3392 C.ar    
  18 C18            8.9976     3.0043     1.7916 C.3     
  19 H19            9.1618    -0.7093    -0.7824 H       
  20 C20            2.9494     4.4720    -0.1154 C.ar    
  21 O21            2.5668     7.9240    -0.8299 O.3     
  22 C22            3.3779     8.0021     0.3572 C.3     
  23 O23            3.9652     6.6914     0.4569 O.3     
  24 F24            4.3715     8.9761     0.2104 F       
  25 F25            2.5849     8.2721     1.4776 F       
  26 C26            4.6126    -1.5617     0.1561 C.3     
  27 C27            4.7491    -2.3093    -1.1718 C.3     
  28 C28            5.3198    -3.6811    -0.9196 C.2     
  29 N29            5.5291    -4.5238    -1.9503 N.am    
  30 C30            6.0839    -5.8574    -1.7052 C.3     
  31 O31            5.5907    -4.0267     0.2109 O.2     
  32 C32            5.2019    -4.1063    -3.3159 C.3     
  33 H33            0.3175     4.1227    -2.2127 H       
  34 H34            0.5654     6.5688    -2.3019 H       
  35 H35            0.9395     2.0534    -0.9532 H       
  36 H36            2.0247    -0.3746    -0.3747 H       
  37 H37            6.7305    -0.7893    -1.1537 H       
  38 H38            6.3654     2.7311     1.2664 H       
  39 H39            9.0519     2.6773     2.8300 H       
  40 H40           10.0044     3.1810     1.4131 H       
  41 H41            8.4196     3.9264     1.7308 H       
  42 H42            3.6152     3.8831     0.4981 H       
  43 H43            5.5753    -1.5500     0.6671 H       
  44 H44            3.8751    -2.0643     0.7819 H       
  45 H45            3.7684    -2.4039    -1.6380 H       
  46 H46            5.4143    -1.7552    -1.8340 H       
  47 H47            5.2712    -6.5626    -1.5312 H       
  48 H48            6.6617    -6.1757    -2.5729 H       
  49 H49            6.7316    -5.8260    -0.8290 H       
  50 H50            4.8039    -3.0917    -3.3001 H       
  51 H51            6.1021    -4.1340    -3.9299 H       
  52 H52            4.4562    -4.7826    -3.7338 H       
@<TRIPOS>BOND
   1    1    2 ar
   2    1    6 1
   3    1   20 ar
   4    2    3 ar
   5    2   33 1
   6    3    4 ar
   7    3   34 1
   8    4    5 ar
   9    4   21 1
  10    5   20 ar
  11    5   23 1
  12    6    7 1
  13    6   35 1
  14    7    8 1
  15    7    9 2
  16    8   11 2
  17    8   36 1
  18    9   10 1
  19   10   11 1
  20   10   12 1
  21   11   26 1
  22   12   13 ar
  23   12   14 ar
  24   13   17 ar
  25   13   37 1
  26   14   15 ar
  27   14   38 1
  28   15   16 ar
  29   15   18 1
  30   16   17 ar
  31   17   19 1
  32   18   39 1
  33   18   40 1
  34   18   41 1
  35   20   42 1
  36   21   22 1
  37   22   23 1
  38   22   24 1
  39   22   25 1
  40   26   27 1
  41   26   43 1
  42   26   44 1
  43   27   28 1
  44   27   45 1
  45   27   46 1
  46   28   29 am
  47   28   31 2
  48   29   30 1
  49   29   32 1
  50   30   47 1
  51   30   48 1
  52   30   49 1
  53   32   50 1
  54   32   51 1
  55   32   52 1

#	End of record

