#	Name: ASD02038041
#	Creating user name:	WinNT
#	Creation time:	15. 06. 2019 20:16

#	Modifying user name:	WinNT
#	Modification time:	15. 06. 2019 20:16

#	Program:	/corina/corina34_cracker 3.40 0067  02.08.2006

@<TRIPOS>MOLECULE
ASD02038041
  42   44    0    0    0
SMALL
NO_CHARGES


@<TRIPOS>ATOM
   1 O1            -0.0176     1.4478     0.0100 O.3     
   2 N2             1.2258     3.4220     0.0087 N.am    
   3 C3             1.1736     2.0753     0.0020 C.2     
   4 C4             1.3564     6.8335    -0.1737 C.3     
   5 O5             0.4821     7.6507    -0.9547 O.3     
   6 C6             0.4174     8.9699    -0.6314 C.ar    
   7 C7            -0.4112     9.8199    -1.3488 C.ar    
   8 C8             1.1758     9.4645     0.4193 C.ar    
   9 C9             1.1101    10.8046     0.7476 C.ar    
  10 C10            0.2861    11.6557     0.0264 C.ar    
  11 C11           -0.4769    11.1600    -1.0205 C.ar    
  12 O12            2.2015     1.4274    -0.0113 O.2     
  13 O13            0.2207    12.9748     0.3502 O.3     
  14 C14            2.2866     4.4406     0.0041 C.3     
  15 C15            1.2958     5.3915    -0.6816 C.3     
  16 C16            0.2471     4.5197     0.0174 C.3     
  17 C17            0.0021    -0.0041     0.0020 C.3     
  18 C18           -1.4117    -0.5257     0.0127 C.ar    
  19 C19           -2.0714    -0.7584    -1.1799 C.ar    
  20 C20           -2.0462    -0.7765     1.2146 C.ar    
  21 C21           -3.3441    -1.2554     1.2249 C.ar    
  22 C22           -4.0066    -1.4830     0.0308 C.ar    
  23 C23           -3.3680    -1.2368    -1.1715 C.ar    
  24 Cl24          -4.1414    -1.5712     2.7343 Cl      
  25 Cl25          -5.6353    -2.0839     0.0419 Cl      
  26 H26            2.3768     7.2067    -0.2607 H       
  27 H27            1.0461     6.8643     0.8707 H       
  28 H28           -1.0049     9.4340    -2.1643 H       
  29 H29            1.8175     8.8017     0.9809 H       
  30 H30            1.7001    11.1896     1.5662 H       
  31 H31           -1.1183    11.8228    -1.5823 H       
  32 H32            0.8655    13.5262    -0.1140 H       
  33 H33            2.5806     4.7658     1.0021 H       
  34 H34            3.1390     4.1768    -0.6220 H       
  35 H35            1.2827     5.3154    -1.7688 H       
  36 H36           -0.6329     4.3241    -0.5953 H       
  37 H37           -0.0049     4.8640     1.0204 H       
  38 H38            0.5123    -0.3556    -0.8948 H       
  39 H39            0.5293    -0.3651     0.8851 H       
  40 H40           -1.5732    -0.5659    -2.1187 H       
  41 H41           -1.5287    -0.5990     2.1458 H       
  42 H42           -3.8842    -1.4141    -2.1035 H       
@<TRIPOS>BOND
   1    1   17 1
   2    1    3 1
   3    2    3 am
   4    2   14 1
   5    2   16 1
   6    3   12 2
   7    4    5 1
   8    4   15 1
   9    4   26 1
  10    4   27 1
  11    5    6 1
  12    6    7 ar
  13    6    8 ar
  14    7   11 ar
  15    7   28 1
  16    8    9 ar
  17    8   29 1
  18    9   10 ar
  19    9   30 1
  20   10   11 ar
  21   10   13 1
  22   11   31 1
  23   13   32 1
  24   14   15 1
  25   14   33 1
  26   14   34 1
  27   15   16 1
  28   15   35 1
  29   16   36 1
  30   16   37 1
  31   17   18 1
  32   17   38 1
  33   17   39 1
  34   18   19 ar
  35   18   20 ar
  36   19   23 ar
  37   19   40 1
  38   20   21 ar
  39   20   41 1
  40   21   22 ar
  41   21   24 1
  42   22   23 ar
  43   22   25 1
  44   23   42 1

#	End of record

