#	Name: ASD01150393
#	Creating user name:	WinNT
#	Creation time:	15. 06. 2019 19:04

#	Modifying user name:	WinNT
#	Modification time:	15. 06. 2019 19:04

#	Program:	/corina/corina34_cracker 3.40 0067  02.08.2006

@<TRIPOS>MOLECULE
ASD01150393
  47   50    0    0    0
SMALL
NO_CHARGES


@<TRIPOS>ATOM
   1 C1             0.6934     1.3866     0.7006 C.ar    
   2 C2             0.6507     0.0173     0.8772 C.ar    
   3 C3             1.3990    -0.8111     0.0628 C.ar    
   4 C4             2.1968    -0.2690    -0.9367 C.ar    
   5 C5             2.2417     1.1061    -1.1172 C.ar    
   6 C6             1.4892     1.9353    -0.2978 C.ar    
   7 N7             1.5316     3.3228    -0.4766 N.am    
   8 C8             0.3825     4.0172    -0.5555 C.2     
   9 N9             0.3897     5.3525    -0.7268 N.am    
  10 C10            1.5611     6.0148    -0.8225 C.2     
  11 C11            2.8160     5.2628    -0.7371 C.2     
  12 N12            2.7696     3.9704    -0.5652 N.2     
  13 O13            1.5755     7.2219    -0.9782 O.2     
  14 C14           -0.8754     6.0867    -0.8097 C.3     
  15 O15           -0.6788     3.4300    -0.4712 O.2     
  16 C16           -1.3474     6.4326     0.5790 C.ar    
  17 C17           -0.5606     6.1623     1.6560 C.ar    
  18 C18           -0.9803     6.4750     2.9478 C.ar    
  19 C19           -2.1890     7.0597     3.1696 C.ar    
  20 C20           -3.0289     7.3545     2.0820 C.ar    
  21 C21           -2.6000     7.0413     0.7681 C.ar    
  22 N22            2.9549    -1.1086    -1.7604 N.am    
  23 C23            2.4780    -2.3199    -2.1093 C.2     
  24 O24            1.3546    -2.6449    -1.7880 O.2     
  25 C25            3.3408    -3.2706    -2.8986 C.3     
  26 C26           -4.2839     7.9580     2.2716 C.ar    
  27 C27           -5.0705     8.2287     1.1945 C.ar    
  28 C28           -4.6509     7.9159    -0.0973 C.ar    
  29 C29           -3.4399     7.3360    -0.3195 C.ar    
  30 H30            0.1043     2.0311     1.3361 H       
  31 H31            0.0315    -0.4067     1.6539 H       
  32 H32            1.3637    -1.8813     0.2037 H       
  33 H33            2.8615     1.5301    -1.8934 H       
  34 H34            3.7656     5.7717    -0.8115 H       
  35 H35           -0.7270     7.0026    -1.3818 H       
  36 H36           -1.6235     5.4668    -1.3039 H       
  37 H37            0.4032     5.6982     1.5076 H       
  38 H38           -0.3368     6.2496     3.7853 H       
  39 H39           -2.5014     7.2957     4.1762 H       
  40 H40            3.8236    -0.8188    -2.0802 H       
  41 H41            4.2445    -3.4964    -2.3325 H       
  42 H42            2.7893    -4.1920    -3.0853 H       
  43 H43            3.6126    -2.8109    -3.8488 H       
  44 H44           -4.6225     8.2054     3.2669 H       
  45 H45           -6.0344     8.6925     1.3429 H       
  46 H46           -5.2947     8.1406    -0.9347 H       
  47 H47           -3.1278     7.0995    -1.3260 H       
@<TRIPOS>BOND
   1    1    2 ar
   2    1    6 ar
   3    1   30 1
   4    2    3 ar
   5    2   31 1
   6    3    4 ar
   7    3   32 1
   8    4    5 ar
   9    4   22 1
  10    5    6 ar
  11    5   33 1
  12    6    7 1
  13    7    8 am
  14    7   12 1
  15    8    9 am
  16    8   15 2
  17    9   10 am
  18    9   14 1
  19   10   11 1
  20   10   13 2
  21   11   12 2
  22   11   34 1
  23   14   16 1
  24   14   35 1
  25   14   36 1
  26   16   17 ar
  27   16   21 ar
  28   17   18 ar
  29   17   37 1
  30   18   19 ar
  31   18   38 1
  32   19   20 ar
  33   19   39 1
  34   20   21 ar
  35   20   26 ar
  36   21   29 ar
  37   22   23 am
  38   22   40 1
  39   23   24 2
  40   23   25 1
  41   25   41 1
  42   25   42 1
  43   25   43 1
  44   26   27 ar
  45   26   44 1
  46   27   28 ar
  47   27   45 1
  48   28   29 ar
  49   28   46 1
  50   29   47 1

#	End of record

