#	Name: ASD09800051
#	Creating user name:	WinNT
#	Creation time:	15. 06. 2019 21:24

#	Modifying user name:	WinNT
#	Modification time:	15. 06. 2019 21:24

#	Program:	/corina/corina34_cracker 3.40 0067  02.08.2006

@<TRIPOS>MOLECULE
ASD09800051
  59   64    0    0    0
SMALL
NO_CHARGES


@<TRIPOS>ATOM
   1 C1            -3.1976     0.7542     3.5198 C.2     
   2 N2            -4.1700    -0.0779     3.8456 N.2     
   3 C3            -4.9308    -0.6594     2.9092 C.2     
   4 C4            -4.7394    -0.4236     1.5985 C.2     
   5 C5            -2.9580     1.0415     2.1607 C.2     
   6 C6            -2.0504     1.8426     1.4765 C.2     
   7 N7            -3.7408     0.4348     1.1960 N.pl3   
   8 C8            -3.3105     0.8744    -0.0002 C.2     
   9 N9            -2.3145     1.7066     0.1665 N.2     
  10 C10           -0.9956     2.6844     2.0768 C.ar    
  11 C11            0.1129     4.8494     2.3301 C.ar    
  12 C12            1.0195     4.2567     3.2350 C.ar    
  13 C13            0.9109     2.9146     3.5358 C.ar    
  14 C14           -0.0842     2.1338     2.9650 C.ar    
  15 C15           -0.9046     4.0587     1.7446 C.ar    
  16 N16            2.0283     5.0255     3.8193 N.am    
  17 C17            3.1129     4.4247     4.3476 C.2     
  18 N18            4.0311     5.1545     5.0115 N.am    
  19 O19            3.2631     3.2243     4.2253 O.2     
  20 N20           -2.4235     1.3440     4.5051 N.pl3   
  21 C21           -3.8855     0.4661    -1.3320 C.3     
  22 C22           -5.3807     0.6995    -1.5574 C.3     
  23 C23           -4.3530     1.5800    -2.2710 C.3     
  24 C24           -3.2611    -0.7781    -1.9669 C.3     
  25 C25            0.2030     6.2110     1.9992 C.ar    
  26 C26           -1.8043     4.6490     0.8458 C.ar    
  27 C27           -1.6890     5.9734     0.5474 C.ar    
  28 C28           -0.6878     6.7522     1.1227 C.ar    
  29 O29            6.3130     6.6243     5.4467 O.3     
  30 C30            5.2657     7.2287     4.6771 C.3     
  31 C31            3.9211     6.6198     5.0908 C.3     
  32 C32            5.1700     4.5091     5.6837 C.3     
  33 C33            6.4562     5.2166     5.2423 C.3     
  34 H34           -5.7169    -1.3345     3.2137 H       
  35 H35           -5.3670    -0.9065     0.8642 H       
  36 H36            1.6076     2.4663     4.2287 H       
  37 H37           -0.1497     1.0853     3.2156 H       
  38 H38            1.9484     5.9919     3.8449 H       
  39 H39           -2.5465     1.0925     5.4339 H       
  40 H40           -1.7584     2.0085     4.2666 H       
  41 H41           -5.9195    -0.0332    -2.1582 H       
  42 H42           -5.9485     1.1483    -0.7423 H       
  43 H43           -4.2446     2.6081    -1.9255 H       
  44 H44           -4.2156     1.4266    -3.3414 H       
  45 H45           -3.4245    -1.6382    -1.3176 H       
  46 H46           -3.7233    -0.9620    -2.9367 H       
  47 H47           -2.1906    -0.6204    -2.0986 H       
  48 H48            0.9748     6.8262     2.4379 H       
  49 H49           -2.5849     4.0566     0.3919 H       
  50 H50           -2.3834     6.4256    -0.1453 H       
  51 H51           -0.6165     7.7998     0.8697 H       
  52 H52            5.2546     8.3035     4.8582 H       
  53 H53            5.4366     7.0390     3.6174 H       
  54 H54            3.1381     6.9661     4.4162 H       
  55 H55            3.6831     6.9153     6.1126 H       
  56 H56            5.0556     4.5957     6.7643 H       
  57 H57            5.2144     3.4571     5.4020 H       
  58 H58            6.6323     5.0183     4.1851 H       
  59 H59            7.2982     4.8475     5.8279 H       
@<TRIPOS>BOND
   1    1    2 2
   2    1   20 1
   3    1    5 1
   4    2    3 1
   5    3    4 2
   6    3   34 1
   7    4    7 1
   8    4   35 1
   9    5    7 1
  10    5    6 2
  11    6    9 1
  12    6   10 1
  13    7    8 1
  14    8    9 2
  15    8   21 1
  16   10   15 ar
  17   10   14 ar
  18   11   12 ar
  19   11   15 ar
  20   11   25 ar
  21   12   13 ar
  22   12   16 1
  23   13   14 ar
  24   13   36 1
  25   14   37 1
  26   15   26 ar
  27   16   17 am
  28   16   38 1
  29   17   18 am
  30   17   19 2
  31   18   32 1
  32   18   31 1
  33   20   39 1
  34   20   40 1
  35   21   22 1
  36   21   23 1
  37   21   24 1
  38   22   23 1
  39   22   41 1
  40   22   42 1
  41   23   43 1
  42   23   44 1
  43   24   45 1
  44   24   46 1
  45   24   47 1
  46   25   28 ar
  47   25   48 1
  48   26   27 ar
  49   26   49 1
  50   27   28 ar
  51   27   50 1
  52   28   51 1
  53   29   30 1
  54   29   33 1
  55   30   31 1
  56   30   52 1
  57   30   53 1
  58   31   54 1
  59   31   55 1
  60   32   33 1
  61   32   56 1
  62   32   57 1
  63   33   58 1
  64   33   59 1

#	End of record

