#	Name: ASD05140008
#	Creating user name:	WinNT
#	Creation time:	15. 06. 2019 20:57

#	Modifying user name:	WinNT
#	Modification time:	15. 06. 2019 20:57

#	Program:	/corina/corina34_cracker 3.40 0067  02.08.2006

@<TRIPOS>MOLECULE
ASD05140008
  59   62    0    0    0
SMALL
NO_CHARGES


@<TRIPOS>ATOM
   1 C1            -0.5827     3.5747    -1.6885 C.3     
   2 C2            -1.2389     3.5878    -3.0706 C.3     
   3 C3            -2.6652     3.0446    -2.9631 C.3     
   4 C4            -1.2781     5.0217    -3.6030 C.3     
   5 C5            -0.4297     2.7103    -4.0277 C.3     
   6 C6             1.0002     3.2484    -4.1300 C.3     
   7 C7             1.8209     2.3321    -5.0405 C.3     
   8 N8             1.8291     0.9713    -4.4884 N.3     
   9 C9             2.7205     0.0954    -5.2605 C.3     
  10 C10            4.1439     0.5659    -5.1066 C.2     
  11 O11            4.4088     1.4493    -4.3191 O.2     
  12 N12            5.1226     0.0049    -5.8441 N.am    
  13 C13            6.4147     0.5092    -5.7818 C.2     
  14 C14            7.2884     0.6805    -6.8423 C.2     
  15 N15            8.4782     1.2106    -6.3619 N.pl3   
  16 H16            9.2527     1.4239    -6.9055 H       
  17 C17            8.3953     1.3887    -5.0006 C.ar    
  18 C18            9.2931     1.8786    -4.0549 C.ar    
  19 C19            8.9256     1.9421    -2.7293 C.ar    
  20 C20            7.6662     1.5223    -2.3217 C.ar    
  21 C21            6.7690     1.0383    -3.2303 C.ar    
  22 C22            7.1176     0.9698    -4.5829 C.ar    
  23 C23            7.0150     0.3678    -8.1879 C.2     
  24 O24            5.9345    -0.0943    -8.4968 O.2     
  25 C25            8.0625     0.6064    -9.2447 C.3     
  26 C26            8.1906    -0.4334   -10.3598 C.3     
  27 C27            7.5778     0.9365   -10.6579 C.3     
  28 C28            0.4712     0.4159    -4.4248 C.3     
  29 C29           -0.3898     1.2750    -3.4960 C.3     
  30 H30           -0.5548     2.5532    -1.3092 H       
  31 H31            0.4334     3.9618    -1.7651 H       
  32 H32           -1.1592     4.1999    -1.0066 H       
  33 H33           -3.2417     3.6697    -2.2812 H       
  34 H34           -3.1327     3.0539    -3.9477 H       
  35 H35           -2.6373     2.0231    -2.5838 H       
  36 H36           -0.2620     5.4087    -3.6796 H       
  37 H37           -1.7456     5.0310    -4.5876 H       
  38 H38           -1.8546     5.6468    -2.9211 H       
  39 H39           -0.8953     2.7209    -5.0132 H       
  40 H40            0.9812     4.2548    -4.5483 H       
  41 H41            1.4511     3.2744    -3.1380 H       
  42 H42            1.3773     2.3174    -6.0360 H       
  43 H43            2.8433     2.7044    -5.1040 H       
  44 H44            2.6339    -0.9268    -4.8920 H       
  45 H45            2.4391     0.1273    -6.3130 H       
  46 H46            4.9242    -0.7512    -6.4184 H       
  47 H47           10.2753     2.2075    -4.3605 H       
  48 H48            9.6244     2.3221    -1.9987 H       
  49 H49            7.3944     1.5786    -1.2780 H       
  50 H50            5.7915     0.7133    -2.9059 H       
  51 H51            8.9763     1.0904    -8.9001 H       
  52 H52            9.1888    -0.6337   -10.7489 H       
  53 H53            7.5172    -1.2900   -10.3290 H       
  54 H54            6.5014     0.9811   -10.8232 H       
  55 H55            8.1730     1.6374   -11.2431 H       
  56 H56            0.0340     0.4102    -5.4232 H       
  57 H57            0.5134    -0.6035    -4.0412 H       
  58 H58            0.0393     1.2699    -2.4940 H       
  59 H59           -1.4017     0.8715    -3.4612 H       
@<TRIPOS>BOND
   1    1    2 1
   2    1   30 1
   3    1   31 1
   4    1   32 1
   5    2    3 1
   6    2    4 1
   7    2    5 1
   8    3   33 1
   9    3   34 1
  10    3   35 1
  11    4   36 1
  12    4   37 1
  13    4   38 1
  14    5   29 1
  15    5    6 1
  16    5   39 1
  17    6    7 1
  18    6   40 1
  19    6   41 1
  20    7    8 1
  21    7   42 1
  22    7   43 1
  23    8    9 1
  24    8   28 1
  25    9   10 1
  26    9   44 1
  27    9   45 1
  28   10   11 2
  29   10   12 am
  30   12   13 1
  31   12   46 1
  32   13   22 1
  33   13   14 2
  34   14   15 1
  35   14   23 1
  36   15   16 1
  37   15   17 1
  38   17   22 ar
  39   17   18 ar
  40   18   19 ar
  41   18   47 1
  42   19   20 ar
  43   19   48 1
  44   20   21 ar
  45   20   49 1
  46   21   22 ar
  47   21   50 1
  48   23   24 2
  49   23   25 1
  50   25   27 1
  51   25   26 1
  52   25   51 1
  53   26   27 1
  54   26   52 1
  55   26   53 1
  56   27   54 1
  57   27   55 1
  58   28   29 1
  59   28   56 1
  60   28   57 1
  61   29   58 1
  62   29   59 1

#	End of record

