#	Name: ASD05430204
#	Creating user name:	WinNT
#	Creation time:	15. 06. 2019 21:00

#	Modifying user name:	WinNT
#	Modification time:	15. 06. 2019 21:00

#	Program:	/corina/corina34_cracker 3.40 0067  02.08.2006

@<TRIPOS>MOLECULE
ASD05430204
  83   88    0    0    0
SMALL
NO_CHARGES


@<TRIPOS>ATOM
   1 C1             0.4050     0.5810     1.7731 C.ar    
   2 C2             0.4661    -0.7523     1.3690 C.ar    
   3 C3             1.6156    -1.2468     0.7662 C.ar    
   4 C4             2.7009    -0.4223     0.5643 C.ar    
   5 C5             2.6467     0.9161     0.9666 C.ar    
   6 C6             1.4898     1.4138     1.5737 C.ar    
   7 C7             5.3417    -0.1329     1.2362 C.3     
   8 C8             5.0526     1.2948     0.7993 C.2     
   9 C9             3.8055     1.7984     0.7522 C.2     
  10 C10            6.5490    -0.1174     2.1793 C.3     
  11 C11            7.7989     0.3769     1.4447 C.3     
  12 N12            7.5195     1.6678     0.8237 N.pl3   
  13 C13            6.2459     2.0890     0.4302 C.2     
  14 C14           -0.7162     2.4381     2.7469 C.3     
  15 O15           -0.7236     1.0630     2.3580 O.3     
  16 N16           -0.6349    -1.5953     1.5719 N.pl3   
  17 C17           -1.3205    -1.7629     2.7324 C.2     
  18 C18           -1.2271    -2.4021     0.6350 C.2     
  19 C19           -2.2438    -3.0345     1.2514 C.2     
  20 N20           -2.2779    -2.6264     2.5286 N.2     
  21 C21           -3.1834    -4.0261     0.6151 C.3     
  22 C22            8.4316     2.7665     0.5025 C.3     
  23 O23            7.6763     3.5581    -0.4384 O.3     
  24 N24            6.3192     3.1718    -0.2658 N.2     
  25 C25            8.7572     3.5819     1.7555 C.3     
  26 C26            9.7107     4.7210     1.3892 C.3     
  27 C27            9.6924     2.2420    -0.1351 C.ar    
  28 C28           10.3899     1.2084     0.4619 C.ar    
  29 C29           10.1474     2.7911    -1.3194 C.ar    
  30 C30           11.3030     2.3104    -1.9055 C.ar    
  31 C31           12.0053     1.2787    -1.3058 C.ar    
  32 C32           11.5459     0.7264    -0.1221 C.ar    
  33 F33           13.1350     0.8080    -1.8778 F       
  34 S34           10.0967     5.6877     2.8748 S.o2    
  35 O35            8.9074     6.3231     3.3232 O.2     
  36 O36           10.8246     4.8635     3.7749 O.2     
  37 C37           11.2161     6.9546     2.2171 C.3     
  38 C38           11.6566     7.8837     3.3500 C.3     
  39 C39            6.2551     0.8081     3.3634 C.3     
  40 C40            5.0610     0.2588     4.1485 C.3     
  41 O41            5.3481    -1.0730     4.5797 O.3     
  42 C42            5.5824    -1.9939     3.5124 C.3     
  43 C43            6.7984    -1.5350     2.7035 C.3     
  44 C44           12.6008     8.9523     2.7953 C.3     
  45 H45            1.6589    -2.2802     0.4554 H       
  46 H46            3.5936    -0.8097     0.0958 H       
  47 H47            1.4437     2.4468     1.8856 H       
  48 H48            4.4749    -0.5390     1.7575 H       
  49 H49            5.5672    -0.7446     0.3627 H       
  50 H50            3.6547     2.8499     0.5572 H       
  51 H51            8.6188     0.4851     2.1548 H       
  52 H52            8.0772    -0.3437     0.6756 H       
  53 H53           -1.6746     2.6928     3.1995 H       
  54 H54            0.0829     2.6073     3.4686 H       
  55 H55           -0.5514     3.0630     1.8692 H       
  56 H56           -1.1087    -1.2654     3.6673 H       
  57 H57           -0.9345    -2.5099    -0.3990 H       
  58 H58           -2.7763    -5.0317     0.7203 H       
  59 H59           -4.1545    -3.9739     1.1074 H       
  60 H60           -3.2991    -3.7898    -0.4427 H       
  61 H61            7.8375     3.9964     2.1684 H       
  62 H62            9.2295     2.9367     2.4963 H       
  63 H63           10.6304     4.3064     0.9764 H       
  64 H64            9.2384     5.3661     0.6485 H       
  65 H65           10.0314     0.7778     1.3851 H       
  66 H66            9.5994     3.5957    -1.7870 H       
  67 H67           11.6579     2.7390    -2.8311 H       
  68 H68           12.0931    -0.0781     0.3467 H       
  69 H69           12.0915     6.4743     1.7799 H       
  70 H70           10.6995     7.5341     1.4520 H       
  71 H71           10.7812     8.3640     3.7872 H       
  72 H72           12.1732     7.3042     4.1151 H       
  73 H73            7.1282     0.8550     4.0143 H       
  74 H74            6.0204     1.8068     2.9953 H       
  75 H75            4.8758     0.8902     5.0174 H       
  76 H76            4.1781     0.2515     3.5093 H       
  77 H77            5.7719    -2.9857     3.9229 H       
  78 H78            4.7068    -2.0296     2.8641 H       
  79 H79            6.9534    -2.2119     1.8633 H       
  80 H80            7.6821    -1.5371     3.3416 H       
  81 H81           13.4762     8.4720     2.3581 H       
  82 H82           12.0842     9.5318     2.0302 H       
  83 H83           12.9146     9.6142     3.6024 H       
@<TRIPOS>BOND
   1    1    2 ar
   2    1    6 ar
   3    1   15 1
   4    2    3 ar
   5    2   16 1
   6    3    4 ar
   7    3   45 1
   8    4    5 ar
   9    4   46 1
  10    5    6 ar
  11    5    9 1
  12    6   47 1
  13    7    8 1
  14    7   10 1
  15    7   48 1
  16    7   49 1
  17    8    9 2
  18    8   13 1
  19    9   50 1
  20   10   11 1
  21   10   39 1
  22   10   43 1
  23   11   12 1
  24   11   51 1
  25   11   52 1
  26   12   13 1
  27   12   22 1
  28   13   24 2
  29   14   15 1
  30   14   53 1
  31   14   54 1
  32   14   55 1
  33   16   17 1
  34   16   18 1
  35   17   20 2
  36   17   56 1
  37   18   19 2
  38   18   57 1
  39   19   20 1
  40   19   21 1
  41   21   58 1
  42   21   59 1
  43   21   60 1
  44   22   23 1
  45   22   25 1
  46   22   27 1
  47   23   24 1
  48   25   26 1
  49   25   61 1
  50   25   62 1
  51   26   34 1
  52   26   63 1
  53   26   64 1
  54   27   28 ar
  55   27   29 ar
  56   28   32 ar
  57   28   65 1
  58   29   30 ar
  59   29   66 1
  60   30   31 ar
  61   30   67 1
  62   31   32 ar
  63   31   33 1
  64   32   68 1
  65   34   35 2
  66   34   36 2
  67   34   37 1
  68   37   38 1
  69   37   69 1
  70   37   70 1
  71   38   44 1
  72   38   71 1
  73   38   72 1
  74   39   40 1
  75   39   73 1
  76   39   74 1
  77   40   41 1
  78   40   75 1
  79   40   76 1
  80   41   42 1
  81   42   43 1
  82   42   77 1
  83   42   78 1
  84   43   79 1
  85   43   80 1
  86   44   81 1
  87   44   82 1
  88   44   83 1

#	End of record

