#	Name: ASD03320177
#	Creating user name:	WinNT
#	Creation time:	15. 06. 2019 20:36

#	Modifying user name:	WinNT
#	Modification time:	15. 06. 2019 20:36

#	Program:	/corina/corina34_cracker 3.40 0067  02.08.2006

@<TRIPOS>MOLECULE
ASD03320177
  43   45    0    0    0
SMALL
NO_CHARGES


@<TRIPOS>ATOM
   1 C1            -0.0078     1.3451    -0.1946 C.ar    
   2 C2             0.0216    -0.0348     0.0279 C.ar    
   3 C3            -1.1505    -0.7584     0.0451 C.ar    
   4 C4            -2.3674    -0.1222    -0.1582 C.ar    
   5 C5            -2.4074     1.2602    -0.3824 C.ar    
   6 C6            -1.2274     1.9926    -0.3945 C.ar    
   7 C7             1.2499     2.1174    -0.2118 C.2     
   8 O8             1.2238     3.3177    -0.4054 O.2     
   9 N9             2.4273     1.4924    -0.0131 N.am    
  10 C10            3.6269     2.2061    -0.1264 C.ar    
  11 C11           -3.7069     1.9405    -0.6007 C.ar    
  12 C12            3.6889     3.5305     0.2864 C.ar    
  13 C13            4.8720     4.2336     0.1743 C.ar    
  14 C14            5.9984     3.6173    -0.3510 C.ar    
  15 C15            5.9372     2.2943    -0.7636 C.ar    
  16 C16            4.7564     1.5880    -0.6464 C.ar    
  17 O17            7.1629     4.3106    -0.4619 O.3     
  18 C18            8.2829     3.6138    -1.0115 C.3     
  19 F19            7.9755     3.1855    -2.3074 F       
  20 F20            9.3894     4.4688    -1.0532 F       
  21 F21            8.5803     2.5049    -0.2122 F       
  22 O22           -3.5185    -0.8394    -0.1403 O.3     
  23 C23           -4.0464     3.0887     0.1210 C.ar    
  24 C24           -5.2654     3.6905    -0.1137 C.ar    
  25 N25           -6.1045     3.1962    -1.0038 N.ar    
  26 C26           -5.8228     2.1150    -1.7057 C.ar    
  27 C27           -4.6234     1.4545    -1.5380 C.ar    
  28 C28           -3.4037    -2.2445     0.0934 C.3     
  29 H29            0.9657    -0.5349     0.1863 H       
  30 H30           -1.1225    -1.8243     0.2170 H       
  31 H31           -1.2531     3.0585    -0.5666 H       
  32 H32            2.4438     0.5482     0.2084 H       
  33 H33            2.8119     4.0106     0.6947 H       
  34 H34            4.9204     5.2636     0.4954 H       
  35 H35            6.8145     1.8153    -1.1728 H       
  36 H36            4.7091     0.5579    -0.9674 H       
  37 H37           -3.3647     3.4983     0.8516 H       
  38 H38           -5.5366     4.5779     0.4389 H       
  39 H39           -6.5391     1.7446    -2.4242 H       
  40 H40           -4.3992     0.5703    -2.1161 H       
  41 H41           -4.3954    -2.6968     0.0824 H       
  42 H42           -2.7908    -2.6939    -0.6880 H       
  43 H43           -2.9375    -2.4146     1.0638 H       
@<TRIPOS>BOND
   1    1    2 ar
   2    1    7 1
   3    1    6 ar
   4    2    3 ar
   5    2   29 1
   6    3    4 ar
   7    3   30 1
   8    4    5 ar
   9    4   22 1
  10    5    6 ar
  11    5   11 1
  12    6   31 1
  13    7    8 2
  14    7    9 am
  15    9   10 1
  16    9   32 1
  17   10   12 ar
  18   10   16 ar
  19   11   23 ar
  20   11   27 ar
  21   12   13 ar
  22   12   33 1
  23   13   14 ar
  24   13   34 1
  25   14   15 ar
  26   14   17 1
  27   15   16 ar
  28   15   35 1
  29   16   36 1
  30   17   18 1
  31   18   19 1
  32   18   20 1
  33   18   21 1
  34   22   28 1
  35   23   24 ar
  36   23   37 1
  37   24   25 ar
  38   24   38 1
  39   25   26 ar
  40   26   27 ar
  41   26   39 1
  42   27   40 1
  43   28   41 1
  44   28   42 1
  45   28   43 1

#	End of record

