#	Name: ASD01814425
#	Creating user name:	WinNT
#	Creation time:	15. 06. 2019 19:32

#	Modifying user name:	WinNT
#	Modification time:	15. 06. 2019 19:32

#	Program:	/corina/corina34_cracker 3.40 0067  02.08.2006

@<TRIPOS>MOLECULE
ASD01814425
  59   64    0    0    0
SMALL
NO_CHARGES


@<TRIPOS>ATOM
   1 C1            -0.0167     1.3818     0.0096 C.ar    
   2 C2             0.0021    -0.0041     0.0020 C.ar    
   3 C3             1.1970    -0.6935    -0.0127 C.ar    
   4 C4             2.3990     0.0036    -0.0204 C.ar    
   5 C5             2.3750     1.4118    -0.0131 C.ar    
   6 C6             1.1663     2.0939     0.0022 C.ar    
   7 N7             3.6103    -0.6575    -0.0347 N.pl3   
   8 N8             4.7456    -0.0608    -0.0419 N.2     
   9 C9             4.8828     1.2398    -0.0366 C.2     
  10 C10            3.6771     2.1039    -0.0219 C.2     
  11 C11            6.0123     2.1723    -0.0425 C.2     
  12 N12            5.4768     3.4119    -0.0316 N.am    
  13 N13            4.0816     3.3386    -0.0196 N.2     
  14 C14            3.5988    -2.1224    -0.0414 C.3     
  15 C15            3.5818    -2.6181    -1.4645 C.ar    
  16 C16            4.7733    -2.8541    -2.1262 C.ar    
  17 C17            4.7635    -3.3086    -3.4294 C.ar    
  18 C18            3.5505    -3.5295    -4.0784 C.ar    
  19 C19            2.3533    -3.2901    -3.4070 C.ar    
  20 C20            2.3747    -2.8408    -2.1022 C.ar    
  21 O21            7.1981     1.8866    -0.0544 O.2     
  22 C22            6.2491     4.6568    -0.0324 C.3     
  23 C23            3.5337    -4.0176    -5.4797 C.ar    
  24 C24            5.8946     5.4780    -1.2749 C.3     
  25 O25            6.6055     6.7173    -1.2439 O.3     
  26 C26            6.2939     7.5408    -0.1184 C.3     
  27 C27            6.6644     6.8025     1.1705 C.3     
  28 C28            5.9109     5.4698     1.2210 C.3     
  29 C29            4.7254    -4.2594    -6.1593 C.ar    
  30 N30            4.7119    -4.6931    -7.4032 N.ar    
  31 C31            3.5846    -4.9145    -8.0509 C.ar    
  32 C32            2.3601    -4.6980    -7.4454 C.ar    
  33 C33            2.3220    -4.2477    -6.1370 C.ar    
  34 C34            3.6314    -5.4107    -9.4731 C.3     
  35 H35           -0.9605     1.9069     0.0170 H       
  36 H36           -0.9294    -0.5506     0.0080 H       
  37 H37            1.1982    -1.7735    -0.0178 H       
  38 H38            1.1511     3.1738     0.0077 H       
  39 H39            4.4906    -2.4951     0.4625 H       
  40 H40            2.7107    -2.4812     0.4789 H       
  41 H41            5.7129    -2.6822    -1.6224 H       
  42 H42            5.6944    -3.4922    -3.9453 H       
  43 H43            1.4102    -3.4594    -3.9055 H       
  44 H44            1.4473    -2.6549    -1.5808 H       
  45 H45            7.3141     4.4248    -0.0408 H       
  46 H46            6.1728     4.9216    -2.1699 H       
  47 H47            4.8225     5.6742    -1.2872 H       
  48 H48            6.8597     8.4704    -0.1803 H       
  49 H49            5.2269     7.7640    -0.1156 H       
  50 H50            7.7380     6.6148     1.1870 H       
  51 H51            6.3868     7.4107     2.0314 H       
  52 H52            4.8379     5.6587     1.2545 H       
  53 H53            6.2125     4.9138     2.1087 H       
  54 H54            5.6690    -4.0894    -5.6620 H       
  55 H55            1.4435    -4.8822    -7.9862 H       
  56 H56            1.3799    -4.0703    -5.6397 H       
  57 H57            3.6388    -6.5007    -9.4776 H       
  58 H58            2.7551    -5.0511   -10.0124 H       
  59 H59            4.5342    -5.0392    -9.9580 H       
@<TRIPOS>BOND
   1    1    2 ar
   2    1    6 ar
   3    1   35 1
   4    2    3 ar
   5    2   36 1
   6    3    4 ar
   7    3   37 1
   8    4    5 ar
   9    4    7 1
  10    5    6 ar
  11    5   10 1
  12    6   38 1
  13    7    8 1
  14    7   14 1
  15    8    9 2
  16    9   10 1
  17    9   11 1
  18   10   13 2
  19   11   12 am
  20   11   21 2
  21   12   13 1
  22   12   22 1
  23   14   15 1
  24   14   39 1
  25   14   40 1
  26   15   16 ar
  27   15   20 ar
  28   16   17 ar
  29   16   41 1
  30   17   18 ar
  31   17   42 1
  32   18   19 ar
  33   18   23 1
  34   19   20 ar
  35   19   43 1
  36   20   44 1
  37   22   24 1
  38   22   28 1
  39   22   45 1
  40   23   29 ar
  41   23   33 ar
  42   24   25 1
  43   24   46 1
  44   24   47 1
  45   25   26 1
  46   26   27 1
  47   26   48 1
  48   26   49 1
  49   27   28 1
  50   27   50 1
  51   27   51 1
  52   28   52 1
  53   28   53 1
  54   29   30 ar
  55   29   54 1
  56   30   31 ar
  57   31   32 ar
  58   31   34 1
  59   32   33 ar
  60   32   55 1
  61   33   56 1
  62   34   57 1
  63   34   58 1
  64   34   59 1

#	End of record

