#	Name: ASD07930452
#	Creating user name:	WinNT
#	Creation time:	15. 06. 2019 21:12

#	Modifying user name:	WinNT
#	Modification time:	15. 06. 2019 21:12

#	Program:	/corina/corina34_cracker 3.40 0067  02.08.2006

@<TRIPOS>MOLECULE
ASD07930452
  48   50    0    0    0
SMALL
NO_CHARGES


@<TRIPOS>ATOM
   1 C1            -0.1232     1.4506    -0.2386 C.ar    
   2 N2             1.3056    10.1090    -0.7897 N.2     
   3 N3             2.3271     8.1785     0.0417 N.pl3   
   4 C4             3.7064     7.6800     0.0270 C.3     
   5 C5             4.4380     8.1784     1.2809 C.3     
   6 S6             4.3322     9.9954     1.3196 S.o2    
   7 N7             2.7065    10.2734     1.0821 N.am    
   8 C8             2.0873     9.5368     0.0823 C.2     
   9 C9             4.4231     8.1968    -1.2221 C.3     
  10 C10            3.6967     6.1731     0.0155 C.ar    
  11 C11            2.5014     5.4900     0.1214 C.ar    
  12 C12            2.4930     4.1011     0.1103 C.ar    
  13 C13            3.6873     3.4025    -0.0071 C.ar    
  14 C14            4.8807     4.0898    -0.1127 C.ar    
  15 C15            4.8863     5.4743    -0.1068 C.ar    
  16 N16            1.2829     3.4069     0.2179 N.am    
  17 C17            1.1109     2.2458    -0.4446 C.2     
  18 O18            1.9674     1.8508    -1.2109 O.2     
  19 O19            4.5919    10.4880     2.6269 O.2     
  20 O20            4.9620    10.5617     0.1786 O.2     
  21 F21            6.0547     6.1446    -0.2107 F       
  22 N22           -0.2742     0.3114    -0.8992 N.ar    
  23 C23           -1.3589    -0.4232    -0.7415 C.ar    
  24 C24           -2.3525     0.0141     0.1336 C.ar    
  25 C25           -2.1572     1.2177     0.8103 C.ar    
  26 N26           -1.0436     1.8953     0.6054 N.ar    
  27 O27           -3.4826    -0.7137     0.3220 O.3     
  28 C28           -4.4470    -0.1895     1.2370 C.3     
  29 C29            1.9672    11.2470     1.8894 C.3     
  30 H30            2.0091    12.2243     1.4085 H       
  31 H31            0.9280    10.9305     1.9790 H       
  32 H32            2.4144    11.3108     2.8814 H       
  33 H33            1.1485    11.0652    -0.7464 H       
  34 H34            1.5848     7.5546     0.0188 H       
  35 H35            3.9654     7.7637     2.1713 H       
  36 H36            5.4834     7.8720     1.2425 H       
  37 H37            4.4312     9.2867    -1.2116 H       
  38 H38            5.4481     7.8259    -1.2324 H       
  39 H39            3.9008     7.8458    -2.1121 H       
  40 H40            1.5736     6.0353     0.2130 H       
  41 H41            3.6830     2.3225    -0.0156 H       
  42 H42            5.8099     3.5468    -0.2041 H       
  43 H43            0.5678     3.7612     0.7692 H       
  44 H44           -1.4757    -1.3503    -1.2831 H       
  45 H45           -2.9051     1.5880     1.4956 H       
  46 H46           -5.2991    -0.8668     1.2944 H       
  47 H47           -3.9949    -0.0900     2.2238 H       
  48 H48           -4.7825     0.7881     0.8908 H       
@<TRIPOS>BOND
   1    1   22 ar
   2    1   17 1
   3    1   26 ar
   4    2    8 2
   5    2   33 1
   6    3    4 1
   7    3    8 1
   8    3   34 1
   9    4    5 1
  10    4    9 1
  11    4   10 1
  12    5    6 1
  13    5   35 1
  14    5   36 1
  15    6    7 am
  16    6   19 2
  17    6   20 2
  18    7    8 1
  19    7   29 1
  20    9   37 1
  21    9   38 1
  22    9   39 1
  23   10   11 ar
  24   10   15 ar
  25   11   12 ar
  26   11   40 1
  27   12   13 ar
  28   12   16 1
  29   13   14 ar
  30   13   41 1
  31   14   15 ar
  32   14   42 1
  33   15   21 1
  34   16   17 am
  35   16   43 1
  36   17   18 2
  37   22   23 ar
  38   23   24 ar
  39   23   44 1
  40   24   25 ar
  41   24   27 1
  42   25   26 ar
  43   25   45 1
  44   27   28 1
  45   28   46 1
  46   28   47 1
  47   28   48 1
  48   29   30 1
  49   29   31 1
  50   29   32 1

#	End of record

