#	Name: ASD01940072
#	Creating user name:	WinNT
#	Creation time:	15. 06. 2019 20:11

#	Modifying user name:	WinNT
#	Modification time:	15. 06. 2019 20:11

#	Program:	/corina/corina34_cracker 3.40 0067  02.08.2006

@<TRIPOS>MOLECULE
ASD01940072
  35   36    0    0    0
SMALL
NO_CHARGES


@<TRIPOS>ATOM
   1 F1             1.8565     1.4513     2.1384 F       
   2 C2             1.0192     2.0887     1.2913 C.ar    
   3 C3             1.3453     2.2024    -0.0536 C.ar    
   4 C4             0.4779     2.8605    -0.9240 C.ar    
   5 C5            -0.7064     3.3986    -0.4431 C.ar    
   6 C6            -1.0258     3.2827     0.8973 C.ar    
   7 C7            -0.1687     2.6245     1.7626 C.ar    
   8 N8             2.5437     1.6573    -0.5347 N.pl3   
   9 N9             0.8022     2.9787    -2.2821 N.am    
  10 C10            2.5870     0.3238    -0.9528 C.ar    
  11 C11            1.4325    -0.4471    -0.9407 C.ar    
  12 C12            1.4785    -1.7647    -1.3545 C.ar    
  13 C13            2.6723    -2.3167    -1.7800 C.ar    
  14 C14            3.8256    -1.5529    -1.7940 C.ar    
  15 C15            3.7862    -0.2323    -1.3874 C.ar    
  16 F16            4.9123     0.5139    -1.4015 F       
  17 F17           -0.4885     2.5089     3.0702 F       
  18 S18            0.3879     4.3480    -3.1162 S.o2    
  19 O19            0.9483     4.1547    -4.4077 O.2     
  20 O20           -1.0174     4.4564    -2.9361 O.2     
  21 C21            1.2466     5.6866    -2.2437 C.3     
  22 F22            2.6258     5.4537    -2.2741 F       
  23 F23            0.9658     6.9062    -2.8689 F       
  24 F24            0.8106     5.7323    -0.9151 F       
  25 C25            2.7176    -3.7545    -2.2294 C.3     
  26 F26            2.4659    -3.8216    -3.6039 F       
  27 F27            3.9828    -4.2875    -1.9604 F       
  28 F28            1.7461    -4.4890    -1.5410 F       
  29 H29           -1.3797     3.9088    -1.1160 H       
  30 H30           -1.9485     3.7029     1.2693 H       
  31 H31            3.3430     2.2052    -0.5775 H       
  32 H32            1.2692     2.2584    -2.7337 H       
  33 H33            0.4992    -0.0174    -0.6079 H       
  34 H34            0.5803    -2.3643    -1.3451 H       
  35 H35            4.7566    -1.9874    -2.1271 H       
@<TRIPOS>BOND
   1    1    2 1
   2    2    3 ar
   3    2    7 ar
   4    3    4 ar
   5    3    8 1
   6    4    5 ar
   7    4    9 1
   8    5    6 ar
   9    5   29 1
  10    6    7 ar
  11    6   30 1
  12    7   17 1
  13    8   10 1
  14    8   31 1
  15    9   18 am
  16    9   32 1
  17   10   11 ar
  18   10   15 ar
  19   11   12 ar
  20   11   33 1
  21   12   13 ar
  22   12   34 1
  23   13   14 ar
  24   13   25 1
  25   14   15 ar
  26   14   35 1
  27   15   16 1
  28   18   19 2
  29   18   20 2
  30   18   21 1
  31   21   22 1
  32   21   23 1
  33   21   24 1
  34   25   26 1
  35   25   27 1
  36   25   28 1

#	End of record

