#	Name: ASD01140325
#	Creating user name:	WinNT
#	Creation time:	15. 06. 2019 19:00

#	Modifying user name:	WinNT
#	Modification time:	15. 06. 2019 19:00

#	Program:	/corina/corina34_cracker 3.40 0067  02.08.2006

@<TRIPOS>MOLECULE
ASD01140325
  57   61    0    0    0
SMALL
NO_CHARGES


@<TRIPOS>ATOM
   1 C1            -0.0169     1.3931     0.0097 C.ar    
   2 C2             0.0021    -0.0041     0.0020 C.ar    
   3 C3             1.2150    -0.6814    -0.0010 C.ar    
   4 C4             2.4238     0.0271     0.0039 C.ar    
   5 C5             2.3885     1.4240    -0.0123 C.ar    
   6 C6             1.1680     2.0938     0.0022 C.ar    
   7 C7             3.6697    -0.7454     0.0578 C.2     
   8 N8             4.7615    -0.5287    -0.5854 N.2     
   9 C9             4.8912     0.5820    -1.5358 C.3     
  10 C10            4.6768     1.8641    -0.7738 C.2     
  11 N11            3.5560     2.1891    -0.0769 N.pl3   
  12 C12            3.7748     3.3965     0.5089 C.2     
  13 C13            5.5449     2.9014    -0.6424 C.2     
  14 N14            4.9560     3.8249     0.1608 N.2     
  15 C15            3.6700    -1.9186     0.9650 C.ar    
  16 N16            2.5807    -2.2094     1.6649 N.ar    
  17 C17            4.8117    -2.7094     1.0709 C.ar    
  18 C18            4.7970    -3.8022     1.9225 C.ar    
  19 C19            3.6400    -4.0666     2.6394 C.ar    
  20 C20            2.5395    -3.2412     2.4808 C.ar    
  21 C21           -1.2280    -0.7373    -0.0022 C.1     
  22 C22           -2.2364    -1.3384    -0.0057 C.1     
  23 C23            6.8806     3.0050    -1.2591 C.2     
  24 N24            7.7316     4.0106    -1.1375 N.2     
  25 O25            7.4726     2.0947    -2.0487 O.3     
  26 N26            8.5675     2.4946    -2.3837 N.2     
  27 C27            8.8034     3.6644    -1.8668 C.2     
  28 C28           10.0549     4.4830    -2.0528 C.3     
  29 C29            9.8946     5.3894    -3.2750 C.3     
  30 Si30          -3.8685    -2.3112    -0.0113 Si      
  31 C31           -3.5025    -4.1379    -0.0213 C.3     
  32 C32           -4.8518    -1.8831     1.5120 C.3     
  33 C33           -4.8513    -1.8664    -1.5302 C.3     
  34 H34           -0.9586     1.9219     0.0170 H       
  35 H35            1.2262    -1.7613    -0.0069 H       
  36 H36            1.1507     3.1737     0.0075 H       
  37 H37            5.8880     0.5765    -1.9767 H       
  38 H38            4.1393     0.4876    -2.3193 H       
  39 H39            3.0834     3.9159     1.1558 H       
  40 H40            5.6959    -2.4742     0.4970 H       
  41 H41            5.6669    -4.4339     2.0253 H       
  42 H42            3.5960    -4.9110     3.3113 H       
  43 H43            1.6368    -3.4440     3.0379 H       
  44 H44           10.2241     5.0946    -1.1666 H       
  45 H45           10.9052     3.8178    -2.2029 H       
  46 H46            9.7255     4.7778    -4.1612 H       
  47 H47            9.0443     6.0546    -3.1249 H       
  48 H48           10.7998     5.9815    -3.4095 H       
  49 H49           -2.9275    -4.3981     0.8673 H       
  50 H50           -4.4388    -4.6960    -0.0246 H       
  51 H51           -2.9272    -4.3883    -0.9126 H       
  52 H52           -5.0659    -0.8144     1.5178 H       
  53 H53           -5.7881    -2.4412     1.5088 H       
  54 H54           -4.2768    -2.1434     2.4007 H       
  55 H55           -4.2760    -2.1168    -2.4215 H       
  56 H56           -5.7876    -2.4245    -1.5335 H       
  57 H57           -5.0654    -0.7977    -1.5244 H       
@<TRIPOS>BOND
   1    1    2 ar
   2    1    6 ar
   3    1   34 1
   4    2    3 ar
   5    2   21 1
   6    3    4 ar
   7    3   35 1
   8    4    5 ar
   9    4    7 1
  10    5    6 ar
  11    5   11 1
  12    6   36 1
  13    7    8 2
  14    7   15 1
  15    8    9 1
  16    9   10 1
  17    9   37 1
  18    9   38 1
  19   10   11 1
  20   10   13 2
  21   11   12 1
  22   12   14 2
  23   12   39 1
  24   13   14 1
  25   13   23 1
  26   15   16 ar
  27   15   17 ar
  28   16   20 ar
  29   17   18 ar
  30   17   40 1
  31   18   19 ar
  32   18   41 1
  33   19   20 ar
  34   19   42 1
  35   20   43 1
  36   21   22 3
  37   22   30 1
  38   23   24 2
  39   23   25 1
  40   24   27 1
  41   25   26 1
  42   26   27 2
  43   27   28 1
  44   28   29 1
  45   28   44 1
  46   28   45 1
  47   29   46 1
  48   29   47 1
  49   29   48 1
  50   30   31 1
  51   30   32 1
  52   30   33 1
  53   31   49 1
  54   31   50 1
  55   31   51 1
  56   32   52 1
  57   32   53 1
  58   32   54 1
  59   33   55 1
  60   33   56 1
  61   33   57 1

#	End of record

