#	Name: ASD00431080
#	Creating user name:	WinNT
#	Creation time:	15. 06. 2019 18:35

#	Modifying user name:	WinNT
#	Modification time:	15. 06. 2019 18:35

#	Program:	/corina/corina34_cracker 3.40 0067  02.08.2006

@<TRIPOS>MOLECULE
ASD00431080
  54   56    0    0    0
SMALL
NO_CHARGES


@<TRIPOS>ATOM
   1 N1             0.3725     1.1401    -0.0516 N.am    
   2 C2             0.3623    -0.2066     0.0008 C.2     
   3 O3             1.4083    -0.8192     0.0950 O.2     
   4 N4            -0.8073    -0.8742    -0.0511 N.am    
   5 C5            -0.8184    -2.3380     0.0059 C.3     
   6 C6             1.6439     1.8658     0.0049 C.3     
   7 C7             2.2443     1.9528    -1.3997 C.3     
   8 C8             1.4058     3.2557     0.5364 C.ar    
   9 C9             2.3049     3.8186     1.4188 C.ar    
  10 C10            2.0831     5.1062     1.9097 C.ar    
  11 C11            0.9515     5.8160     1.5037 C.ar    
  12 C12            0.0607     5.2416     0.6211 C.ar    
  13 C13            0.2893     3.9666     0.1341 C.ar    
  14 S14            4.5126     4.9639     3.4685 S.3     
  15 C15            4.8546     6.3608     4.3926 C.2     
  16 N16            3.9309     7.2538     4.2172 N.2     
  17 C17            2.9448     6.9445     3.4020 C.2     
  18 C18            3.0416     5.7153     2.8555 C.2     
  19 O19            5.9359     6.5127     5.1943 O.3     
  20 C20            6.1248     7.7207     5.7890 C.ar    
  21 C21            5.2377     8.1623     6.7599 C.ar    
  22 C22            5.4297     9.3894     7.3639 C.ar    
  23 C23            6.5094    10.1803     6.9998 C.ar    
  24 C24            7.3965     9.7389     6.0291 C.ar    
  25 C25            7.2079     8.5093     5.4290 C.ar    
  26 O26            6.6981    11.3886     7.5942 O.3     
  27 C27            7.8734    12.1148     7.2290 C.3     
  28 C28            7.6617    13.6034     7.5120 C.3     
  29 C29            9.0625    11.6046     8.0455 C.3     
  30 H30           -0.4617     1.6287    -0.1308 H       
  31 H31           -1.6418    -0.3854    -0.1263 H       
  32 H32           -1.8465    -2.6960    -0.0488 H       
  33 H33           -0.2491    -2.7386    -0.8329 H       
  34 H34           -0.3679    -2.6686     0.9417 H       
  35 H35            2.3343     1.3384     0.6632 H       
  36 H36            1.5539     2.4802    -2.0579 H       
  37 H37            3.1903     2.4927    -1.3576 H       
  38 H38            2.4165     0.9475    -1.7841 H       
  39 H39            3.1781     3.2640     1.7292 H       
  40 H40            0.7739     6.8126     1.8802 H       
  41 H41           -0.8150     5.7896     0.3063 H       
  42 H42           -0.4091     3.5229    -0.5599 H       
  43 H43            2.1276     7.6176     3.1891 H       
  44 H44            4.3968     7.5466     7.0432 H       
  45 H45            4.7389     9.7333     8.1195 H       
  46 H46            8.2370    10.3550     5.7454 H       
  47 H47            7.9011     8.1637     4.6764 H       
  48 H48            8.0737    11.9717     6.1672 H       
  49 H49            7.4614    13.7465     8.5739 H       
  50 H50            8.5581    14.1574     7.2335 H       
  51 H51            6.8145    13.9669     6.9303 H       
  52 H52            9.2133    10.5441     7.8439 H       
  53 H53            9.9590    12.1585     7.7670 H       
  54 H54            8.8622    11.7477     9.1074 H       
@<TRIPOS>BOND
   1    1    2 am
   2    1    6 1
   3    1   30 1
   4    2    3 2
   5    2    4 am
   6    4    5 1
   7    4   31 1
   8    5   32 1
   9    5   33 1
  10    5   34 1
  11    6    7 1
  12    6    8 1
  13    6   35 1
  14    7   36 1
  15    7   37 1
  16    7   38 1
  17    8    9 ar
  18    8   13 ar
  19    9   10 ar
  20    9   39 1
  21   10   11 ar
  22   10   18 1
  23   11   12 ar
  24   11   40 1
  25   12   13 ar
  26   12   41 1
  27   13   42 1
  28   14   15 1
  29   14   18 1
  30   15   16 2
  31   15   19 1
  32   16   17 1
  33   17   18 2
  34   17   43 1
  35   19   20 1
  36   20   21 ar
  37   20   25 ar
  38   21   22 ar
  39   21   44 1
  40   22   23 ar
  41   22   45 1
  42   23   24 ar
  43   23   26 1
  44   24   25 ar
  45   24   46 1
  46   25   47 1
  47   26   27 1
  48   27   28 1
  49   27   29 1
  50   27   48 1
  51   28   49 1
  52   28   50 1
  53   28   51 1
  54   29   52 1
  55   29   53 1
  56   29   54 1

#	End of record

