#	Name: ASD09800040
#	Creating user name:	WinNT
#	Creation time:	15. 06. 2019 21:24

#	Modifying user name:	WinNT
#	Modification time:	15. 06. 2019 21:24

#	Program:	/corina/corina34_cracker 3.40 0067  02.08.2006

@<TRIPOS>MOLECULE
ASD09800040
  62   67    0    0    0
SMALL
NO_CHARGES


@<TRIPOS>ATOM
   1 C1            -3.2263     1.2297     2.8709 C.2     
   2 N2            -4.3116     0.5730     3.2383 N.2     
   3 C3            -5.0257    -0.1388     2.3567 C.2     
   4 C4            -4.6708    -0.2175     1.0613 C.2     
   5 C5            -2.8131     1.1863     1.5239 C.2     
   6 C6            -1.7569     1.7386     0.8075 C.2     
   7 N7            -3.5486     0.4455     0.6174 N.pl3   
   8 C8            -2.9481     0.5712    -0.5797 C.2     
   9 N9            -1.8924     1.3361    -0.4669 N.2     
  10 C10           -0.6886     2.6049     1.3459 C.ar    
  11 C11            0.1769     4.8251     1.8950 C.ar    
  12 C12            1.3602     4.2229     2.3748 C.ar    
  13 C13            1.4999     2.8513     2.3290 C.ar    
  14 C14            0.4887     2.0477     1.8206 C.ar    
  15 C15           -0.8577     4.0116     1.3753 C.ar    
  16 N16            2.3889     5.0142     2.8901 N.am    
  17 C17            3.6525     4.5458     2.9130 C.2     
  18 N18            4.6265     5.2636     3.5067 N.am    
  19 O19            3.9137     3.4758     2.3981 O.2     
  20 C20            5.9167     4.7337     3.6188 C.ar    
  21 C21            7.9568     4.4784     4.8565 C.ar    
  22 C22            6.6831     5.0020     4.7456 C.ar    
  23 C23            6.4301     3.9346     2.6068 C.ar    
  24 C24            7.7081     3.4112     2.7216 C.ar    
  25 C25            8.4715     3.6870     3.8476 C.ar    
  26 N26           -2.5035     1.9593     3.7999 N.pl3   
  27 C27           -3.4181    -0.0749    -1.8575 C.3     
  28 C28           -4.8329     0.2553    -2.3373 C.3     
  29 C29           -3.6215     0.8308    -3.0738 C.3     
  30 C30           -2.8992    -1.4918    -2.1101 C.3     
  31 C31            0.0090     6.2188     1.9226 C.ar    
  32 C32           -2.0318     4.6112     0.8983 C.ar    
  33 C33           -2.1626     5.9668     0.9406 C.ar    
  34 C34           -1.1446     6.7684     1.4515 C.ar    
  35 O35            8.2135     2.6281     1.7326 O.3     
  36 C36            9.5373     2.1228     1.9177 C.3     
  37 H37           -5.9077    -0.6629     2.6939 H       
  38 H38           -5.2643    -0.7993     0.3716 H       
  39 H39            2.4073     2.3961     2.6974 H       
  40 H40            0.6205     0.9761     1.7949 H       
  41 H41            2.1941     5.9010     3.2315 H       
  42 H42            4.4332     6.1475     3.8563 H       
  43 H43            8.5513     4.6881     5.7335 H       
  44 H44            6.2832     5.6206     5.5355 H       
  45 H45            5.8345     3.7208     1.7315 H       
  46 H46            9.4678     3.2796     3.9368 H       
  47 H47           -2.7397     1.9171     4.7397 H       
  48 H48           -1.7611     2.5126     3.5107 H       
  49 H49           -5.3938    -0.5368    -2.8333 H       
  50 H50           -5.4237     0.9399    -1.7287 H       
  51 H51           -3.4155     1.8939    -2.9497 H       
  52 H52           -3.3855     0.4172    -4.0543 H       
  53 H53           -3.1811    -2.1359    -1.2772 H       
  54 H54           -3.3335    -1.8789    -3.0319 H       
  55 H55           -1.8132    -1.4702    -2.2013 H       
  56 H56            0.7908     6.8520     2.3155 H       
  57 H57           -2.8287     4.0015     0.4989 H       
  58 H58           -3.0681     6.4261     0.5724 H       
  59 H59           -1.2716     7.8407     1.4737 H       
  60 H60           10.2336     2.9556     2.0165 H       
  61 H61            9.5704     1.5126     2.8203 H       
  62 H62            9.8177     1.5148     1.0576 H       
@<TRIPOS>BOND
   1    1    2 2
   2    1   26 1
   3    1    5 1
   4    2    3 1
   5    3    4 2
   6    3   37 1
   7    4    7 1
   8    4   38 1
   9    5    7 1
  10    5    6 2
  11    6    9 1
  12    6   10 1
  13    7    8 1
  14    8    9 2
  15    8   27 1
  16   10   15 ar
  17   10   14 ar
  18   11   12 ar
  19   11   15 ar
  20   11   31 ar
  21   12   13 ar
  22   12   16 1
  23   13   14 ar
  24   13   39 1
  25   14   40 1
  26   15   32 ar
  27   16   17 am
  28   16   41 1
  29   17   18 am
  30   17   19 2
  31   18   20 1
  32   18   42 1
  33   20   23 ar
  34   20   22 ar
  35   21   22 ar
  36   21   25 ar
  37   21   43 1
  38   22   44 1
  39   23   24 ar
  40   23   45 1
  41   24   25 ar
  42   24   35 1
  43   25   46 1
  44   26   47 1
  45   26   48 1
  46   27   28 1
  47   27   29 1
  48   27   30 1
  49   28   29 1
  50   28   49 1
  51   28   50 1
  52   29   51 1
  53   29   52 1
  54   30   53 1
  55   30   54 1
  56   30   55 1
  57   31   34 ar
  58   31   56 1
  59   32   33 ar
  60   32   57 1
  61   33   34 ar
  62   33   58 1
  63   34   59 1
  64   35   36 1
  65   36   60 1
  66   36   61 1
  67   36   62 1

#	End of record

