#	Name: ASD02039368
#	Creating user name:	WinNT
#	Creation time:	15. 06. 2019 20:18

#	Modifying user name:	WinNT
#	Modification time:	15. 06. 2019 20:18

#	Program:	/corina/corina34_cracker 3.40 0067  02.08.2006

@<TRIPOS>MOLECULE
ASD02039368
  47   49    0    0    0
SMALL
NO_CHARGES


@<TRIPOS>ATOM
   1 C1            -0.0875     1.3444     0.4754 C.ar    
   2 C2             0.1979    -0.0129     0.5145 C.ar    
   3 C3            -0.8407    -0.9224     0.5925 C.ar    
   4 C4            -2.4084     0.7720     0.6061 C.ar    
   5 C5            -1.4124     1.7426     0.5220 C.ar    
   6 C6            -3.8326     1.1823     0.6570 C.ar    
   7 C7             1.0203     2.3625     0.3903 C.3     
   8 N8             1.4062     2.5483    -1.0107 N.am    
   9 C9             0.6534     3.4735    -1.8613 C.3     
  10 C10            2.4539     1.8682    -1.5170 C.2     
  11 C11            3.1415     0.8565    -0.6960 C.2     
  12 C12            4.1351     0.0196    -1.1125 C.2     
  13 N13            2.9061     0.5913     0.6144 N.2     
  14 C14            3.7028    -0.3629     1.0005 C.2     
  15 N15            4.4798    -0.7416    -0.0474 N.pl3   
  16 O16            2.8316     2.0897    -2.6517 O.2     
  17 C17            5.5061    -1.7869    -0.0286 C.3     
  18 C18           -4.1693     2.5324     0.7339 C.ar    
  19 C19            1.5555     4.6398    -2.2697 C.3     
  20 C20            0.1723     2.7380    -3.1137 C.3     
  21 N21           -2.0936    -0.5169     0.6295 N.ar    
  22 C22           -4.8409     0.2181     0.6221 C.ar    
  23 C23           -6.1672     0.6066     0.6693 C.ar    
  24 C24           -6.4950     1.9469     0.7504 C.ar    
  25 C25           -5.4981     2.9089     0.7805 C.ar    
  26 F26           -5.8257     4.2172     0.8603 F       
  27 F27           -4.5219    -1.0922     0.5420 F       
  28 H28            1.2216    -0.3558     0.4840 H       
  29 H29           -0.6219    -1.9796     0.6231 H       
  30 H30           -1.6700     2.7913     0.5030 H       
  31 H31            0.6743     3.3111     0.8008 H       
  32 H32            1.8805     2.0119     0.9607 H       
  33 H33           -0.2068     3.8548    -1.3110 H       
  34 H34            4.5642    -0.0271    -2.1025 H       
  35 H35            3.7419    -0.7836     1.9945 H       
  36 H36            5.0557    -2.7432    -0.2943 H       
  37 H37            6.2880    -1.5414    -0.7473 H       
  38 H38            5.9384    -1.8537     0.9698 H       
  39 H39           -3.3932     3.2831     0.7574 H       
  40 H40            2.3444     4.2757    -2.9279 H       
  41 H41            0.9637     5.3910    -2.7927 H       
  42 H42            2.0011     5.0835    -1.3794 H       
  43 H43           -0.3786     1.8441    -2.8211 H       
  44 H44           -0.4792     3.3932    -3.6921 H       
  45 H45            1.0318     2.4527    -3.7203 H       
  46 H46           -6.9484    -0.1387     0.6424 H       
  47 H47           -7.5322     2.2458     0.7863 H       
@<TRIPOS>BOND
   1    1    2 ar
   2    1    7 1
   3    1    5 ar
   4    2    3 ar
   5    2   28 1
   6    3   21 ar
   7    3   29 1
   8    4    5 ar
   9    4    6 1
  10    4   21 ar
  11    5   30 1
  12    6   18 ar
  13    6   22 ar
  14    7    8 1
  15    7   31 1
  16    7   32 1
  17    8    9 1
  18    8   10 am
  19    9   20 1
  20    9   19 1
  21    9   33 1
  22   10   11 1
  23   10   16 2
  24   11   12 2
  25   11   13 1
  26   12   15 1
  27   12   34 1
  28   13   14 2
  29   14   15 1
  30   14   35 1
  31   15   17 1
  32   17   36 1
  33   17   37 1
  34   17   38 1
  35   18   25 ar
  36   18   39 1
  37   19   40 1
  38   19   41 1
  39   19   42 1
  40   20   43 1
  41   20   44 1
  42   20   45 1
  43   22   23 ar
  44   22   27 1
  45   23   24 ar
  46   23   46 1
  47   24   25 ar
  48   24   47 1
  49   25   26 1

#	End of record

