#	Name: ASD01010002
#	Creating user name:	WinNT
#	Creation time:	15. 06. 2019 18:56

#	Modifying user name:	WinNT
#	Modification time:	15. 06. 2019 18:56

#	Program:	/corina/corina34_cracker 3.40 0067  02.08.2006

@<TRIPOS>MOLECULE
ASD01010002
  18   18    0    0    0
SMALL
NO_CHARGES


@<TRIPOS>ATOM
   1 C1            -0.0179     1.4699     0.0101 C.2     
   2 C2             0.0021    -0.0041     0.0020 C.ar    
   3 C3             1.2234    -0.6918    -0.0133 C.ar    
   4 O4             2.3925    -0.0021    -0.0203 O.3     
   5 C5             1.2345    -2.0782    -0.0209 C.ar    
   6 C6             0.0467    -2.7815    -0.0134 C.ar    
   7 C7            -1.1694    -2.1064     0.0014 C.ar    
   8 C8            -1.1962    -0.7225     0.0154 C.ar    
   9 O9             1.0260     2.0917     0.0035 O.2     
  10 O10           -1.1939     2.1277     0.0193 O.3     
  11 N11           -2.3685    -2.8282     0.0084 N.pl3   
  12 H12            2.7395     0.1926     0.8610 H       
  13 H13            2.1748    -2.6092    -0.0331 H       
  14 H14            0.0616    -3.8614    -0.0194 H       
  15 H15           -2.1410    -0.1995     0.0318 H       
  16 H16           -1.1564     3.0939     0.0244 H       
  17 H17           -2.3510    -3.7980     0.0030 H       
  18 H18           -3.2172    -2.3585     0.0187 H       
@<TRIPOS>BOND
   1    1    2 1
   2    1    9 2
   3    1   10 1
   4    2    3 ar
   5    2    8 ar
   6    3    4 1
   7    3    5 ar
   8    4   12 1
   9    5    6 ar
  10    5   13 1
  11    6    7 ar
  12    6   14 1
  13    7    8 ar
  14    7   11 1
  15    8   15 1
  16   10   16 1
  17   11   17 1
  18   11   18 1

#	End of record

