#	Name: ASD01150079
#	Creating user name:	WinNT
#	Creation time:	15. 06. 2019 19:03

#	Modifying user name:	WinNT
#	Modification time:	15. 06. 2019 19:03

#	Program:	/corina/corina34_cracker 3.40 0067  02.08.2006

@<TRIPOS>MOLECULE
ASD01150079
  22   21    0    0    0
SMALL
NO_CHARGES


@<TRIPOS>ATOM
   1 C1            -0.0187     1.5258     0.0104 C.3     
   2 C2             0.0021    -0.0041     0.0020 C.3     
   3 C3             1.4167     2.0553    -0.0004 C.3     
   4 N4            -1.3761    -0.5125     0.0124 N.3     
   5 N5             0.6878    -0.4765    -1.2033 N.pl3   
   6 C6             1.6020    -1.4729    -1.1161 C.1     
   7 N7             2.3684    -2.3082    -1.0431 N.1     
   8 C8            -1.5251    -1.6097     0.9778 C.3     
   9 C9            -2.9702    -2.1119     0.9600 C.3     
  10 H10           -0.5459     1.8868    -0.8726 H       
  11 H11           -0.5289     1.8773     0.9072 H       
  12 H12            0.5293    -0.3651     0.8851 H       
  13 H13            1.4019     3.1452     0.0056 H       
  14 H14            1.9439     1.6943     0.8826 H       
  15 H15            1.9269     1.7038    -0.8972 H       
  16 H16           -2.0335     0.2287     0.2032 H       
  17 H17            0.4874    -0.0761    -2.0638 H       
  18 H18           -0.8538    -2.4250     0.7077 H       
  19 H19           -1.2774    -1.2509     1.9768 H       
  20 H20           -3.6415    -1.2967     1.2301 H       
  21 H21           -3.2179    -2.4707    -0.0390 H       
  22 H22           -3.0808    -2.9260     1.6763 H       
@<TRIPOS>BOND
   1    1    2 1
   2    1    3 1
   3    1   10 1
   4    1   11 1
   5    2    4 1
   6    2    5 1
   7    2   12 1
   8    3   13 1
   9    3   14 1
  10    3   15 1
  11    4    8 1
  12    4   16 1
  13    5    6 1
  14    5   17 1
  15    6    7 3
  16    8    9 1
  17    8   18 1
  18    8   19 1
  19    9   20 1
  20    9   21 1
  21    9   22 1

#	End of record

