#	Name: ASD08070264
#	Creating user name:	WinNT
#	Creation time:	15. 06. 2019 21:14

#	Modifying user name:	WinNT
#	Modification time:	15. 06. 2019 21:14

#	Program:	/corina/corina34_cracker 3.40 0067  02.08.2006

@<TRIPOS>MOLECULE
ASD08070264
  43   44    0    0    0
SMALL
NO_CHARGES


@<TRIPOS>ATOM
   1 P1            -0.5270     1.5043    -0.1299 P.3     
   2 O2            -0.6738     0.0376    -0.2634 O.2     
   3 O3             1.0361     1.8900    -0.1366 O.3     
   4 O4            -1.2647     2.2319    -1.3621 O.3     
   5 O5            -1.1928     1.9864     1.2545 O.3     
   6 C6            -2.5465     1.6973     1.6093 C.3     
   7 C7            -2.8534     2.2987     2.9823 C.3     
   8 C8            -1.8333     1.7886     4.0021 C.3     
   9 C9            -2.0136     0.2814     4.1938 C.3     
  10 C10           -0.9118    -0.2514     5.1119 C.3     
  11 C11           -3.3802     0.0075     4.8250 C.3     
  12 C12           -3.5178     4.5189     3.7349 C.2     
  13 O13           -4.1812     3.9944     4.6085 O.2     
  14 N14           -2.7769     3.7596     2.9037 N.am    
  15 O15           -4.9445     9.1294     4.9963 O.3     
  16 C16           -4.8947    10.2950     4.1524 C.3     
  17 O17           -3.7049    10.0984     3.3661 O.3     
  18 C18           -3.5311     8.7476     3.2979 C.ar    
  19 C19           -4.2945     8.1497     4.3020 C.ar    
  20 C20           -4.2917     6.7764     4.4456 C.ar    
  21 C21           -3.5240     5.9873     3.5846 C.ar    
  22 C22           -2.7623     6.5917     2.5821 C.ar    
  23 C23           -2.7685     7.9628     2.4439 C.ar    
  24 H24            1.5022     1.6289    -0.9426 H       
  25 H25           -1.2089     3.1970    -1.3396 H       
  26 H26           -3.2169     2.1283     0.8657 H       
  27 H27           -2.6900     0.6174     1.6453 H       
  28 H28           -3.8559     2.0035     3.2923 H       
  29 H29           -0.8253     1.9908     3.6399 H       
  30 H30           -1.9860     2.2968     4.9542 H       
  31 H31           -1.9535    -0.2176     3.2266 H       
  32 H32           -0.9719     0.2477     6.0791 H       
  33 H33           -1.0403    -1.3251     5.2485 H       
  34 H34            0.0618    -0.0562     4.6622 H       
  35 H35           -3.4773     0.5834     5.7453 H       
  36 H36           -4.1668     0.2991     4.1291 H       
  37 H37           -3.4699    -1.0552     5.0502 H       
  38 H38           -2.1929     4.1803     2.2534 H       
  39 H39           -5.7745    10.3409     3.5107 H       
  40 H40           -4.8107    11.1999     4.7541 H       
  41 H41           -4.8817     6.3126     5.2223 H       
  42 H42           -2.1678     5.9845     1.9155 H       
  43 H43           -2.1789     8.4282     1.6679 H       
@<TRIPOS>BOND
   1    1    2 2
   2    1    3 1
   3    1    4 1
   4    1    5 1
   5    3   24 1
   6    4   25 1
   7    5    6 1
   8    6    7 1
   9    6   26 1
  10    6   27 1
  11    7    8 1
  12    7   14 1
  13    7   28 1
  14    8    9 1
  15    8   29 1
  16    8   30 1
  17    9   10 1
  18    9   11 1
  19    9   31 1
  20   10   32 1
  21   10   33 1
  22   10   34 1
  23   11   35 1
  24   11   36 1
  25   11   37 1
  26   12   13 2
  27   12   14 am
  28   12   21 1
  29   14   38 1
  30   15   16 1
  31   15   19 1
  32   16   17 1
  33   16   39 1
  34   16   40 1
  35   17   18 1
  36   18   19 ar
  37   18   23 ar
  38   19   20 ar
  39   20   21 ar
  40   20   41 1
  41   21   22 ar
  42   22   23 ar
  43   22   42 1
  44   23   43 1

#	End of record

