#	Name: ASD01910212
#	Creating user name:	WinNT
#	Creation time:	15. 06. 2019 19:55

#	Modifying user name:	WinNT
#	Modification time:	15. 06. 2019 19:55

#	Program:	/corina/corina34_cracker 3.40 0067  02.08.2006

@<TRIPOS>MOLECULE
ASD01910212
  48   51    0    0    0
SMALL
NO_CHARGES


@<TRIPOS>ATOM
   1 C1             0.9952     1.4958    -0.4131 C.2     
   2 C2             0.9792    -0.0112    -0.4128 C.3     
   3 C3             0.8864    -0.5207     1.0273 C.3     
   4 C4             0.9032    -2.0510     1.0308 C.3     
   5 C5            -0.3098    -2.5728     0.2542 C.3     
   6 N6            -0.3067    -1.9724    -1.0868 N.am    
   7 C7            -0.2329    -0.5098    -1.2058 C.3     
   8 C8            -0.3704    -2.7485    -2.1868 C.2     
   9 C9            -0.3597    -4.2210    -2.0543 C.ar    
  10 O10           -0.4367    -2.2379    -3.2879 O.2     
  11 C11           -1.2377    -4.8516    -1.1714 C.ar    
  12 C12           -1.2226    -6.2260    -1.0524 C.ar    
  13 C13           -0.3396    -6.9789    -1.8059 C.ar    
  14 C14            0.5336    -6.3600    -2.6827 C.ar    
  15 C15            0.5244    -4.9869    -2.8157 C.ar    
  16 N16            1.9461     2.2635    -0.8838 N.2     
  17 C17            1.5284     3.5318    -0.6698 C.2     
  18 N18            0.3595     3.4601    -0.0873 N.2     
  19 O19            0.0388     2.2999     0.0618 O.3     
  20 C20            2.2592     4.7720    -1.0281 C.ar    
  21 C21            1.7016     6.0177    -0.7446 C.ar    
  22 C22            2.3833     7.1687    -1.0783 C.ar    
  23 C23            3.6240     7.0878    -1.6968 C.ar    
  24 C24            4.1819     5.8483    -1.9805 C.ar    
  25 C25            3.5074     4.6939    -1.6438 C.ar    
  26 O26            4.2930     8.2235    -2.0253 O.3     
  27 C27            5.5641     8.0673    -2.6592 C.3     
  28 H28            1.8941    -0.3848    -0.8726 H       
  29 H29            1.7350    -0.1469     1.6002 H       
  30 H30           -0.0405    -0.1667     1.4787 H       
  31 H31            1.8185    -2.4059     0.5572 H       
  32 H32            0.8606    -2.4130     2.0581 H       
  33 H33           -0.2499    -3.6578     0.1688 H       
  34 H34           -1.2253    -2.2953     0.7767 H       
  35 H35           -1.1421    -0.0640    -0.8023 H       
  36 H36           -0.1223    -0.2336    -2.2544 H       
  37 H37           -1.9272    -4.2650    -0.5824 H       
  38 H38           -1.9012    -6.7152    -0.3693 H       
  39 H39           -0.3318    -8.0546    -1.7091 H       
  40 H40            1.2206    -6.9534    -3.2677 H       
  41 H41            1.2063    -4.5049    -3.5007 H       
  42 H42            0.7364     6.0812    -0.2642 H       
  43 H43            1.9518     8.1341    -0.8589 H       
  44 H44            5.1470     5.7884    -2.4616 H       
  45 H45            3.9419     3.7301    -1.8644 H       
  46 H46            5.9895     9.0491    -2.8670 H       
  47 H47            6.2330     7.5134    -2.0005 H       
  48 H48            5.4393     7.5202    -3.5937 H       
@<TRIPOS>BOND
   1    1    2 1
   2    1   16 2
   3    1   19 1
   4    2    3 1
   5    2    7 1
   6    2   28 1
   7    3    4 1
   8    3   29 1
   9    3   30 1
  10    4    5 1
  11    4   31 1
  12    4   32 1
  13    5    6 1
  14    5   33 1
  15    5   34 1
  16    6    7 1
  17    6    8 am
  18    7   35 1
  19    7   36 1
  20    8    9 1
  21    8   10 2
  22    9   11 ar
  23    9   15 ar
  24   11   12 ar
  25   11   37 1
  26   12   13 ar
  27   12   38 1
  28   13   14 ar
  29   13   39 1
  30   14   15 ar
  31   14   40 1
  32   15   41 1
  33   16   17 1
  34   17   18 2
  35   17   20 1
  36   18   19 1
  37   20   21 ar
  38   20   25 ar
  39   21   22 ar
  40   21   42 1
  41   22   23 ar
  42   22   43 1
  43   23   24 ar
  44   23   26 1
  45   24   25 ar
  46   24   44 1
  47   25   45 1
  48   26   27 1
  49   27   46 1
  50   27   47 1
  51   27   48 1

#	End of record

