#	Name: ASD04910246
#	Creating user name:	WinNT
#	Creation time:	15. 06. 2019 20:55

#	Modifying user name:	WinNT
#	Modification time:	15. 06. 2019 20:55

#	Program:	/corina/corina34_cracker 3.40 0067  02.08.2006

@<TRIPOS>MOLECULE
ASD04910246
  34   35    0    0    0
SMALL
NO_CHARGES


@<TRIPOS>ATOM
   1 C1            -0.0187     1.5258     0.0104 C.3     
   2 C2             0.0021    -0.0041     0.0020 C.3     
   3 C3             0.6310    -0.5127     1.3007 C.3     
   4 C4             0.6518    -2.0426     1.2923 C.3     
   5 O5             1.3220     2.0204     0.0003 O.3     
   6 C6            -0.1066     2.0780    -2.4333 C.ar    
   7 C7            -0.7475     2.0250    -1.2105 C.ar    
   8 C8            -2.0697     2.4359    -1.1186 C.ar    
   9 C9            -2.7020     2.8872    -2.2648 C.ar    
  10 C10           -1.9957     2.9131    -3.4605 C.ar    
  11 N11           -0.7353     2.5127    -3.5078 N.ar    
  12 N12           -2.6226     3.3660    -4.6254 N.pl3   
  13 N13           -3.9443     3.8187    -4.7289 N.2     
  14 C14           -4.1654     4.1569    -5.9731 C.2     
  15 C15           -2.9943     3.9323    -6.7059 C.2     
  16 C16           -2.0569     3.4513    -5.8575 C.2     
  17 C17           -2.8086     4.1872    -8.1795 C.3     
  18 F18           -3.9971     4.6904    -8.7192 F       
  19 F19           -1.7810     5.1180    -8.3659 F       
  20 F20           -2.4751     2.9897    -8.8215 F       
  21 H21           -0.5289     1.8773     0.9072 H       
  22 H22           -1.0175    -0.3808    -0.0798 H       
  23 H23            0.5883    -0.3548    -0.8473 H       
  24 H24            1.6506    -0.1360     1.3826 H       
  25 H25            0.0448    -0.1620     2.1500 H       
  26 H26           -0.3678    -2.4193     1.2104 H       
  27 H27            1.2380    -2.3933     0.4429 H       
  28 H28            1.0998    -2.4050     2.2175 H       
  29 H29            1.8365     1.7462    -0.7712 H       
  30 H30            0.9238     1.7635    -2.5092 H       
  31 H31           -2.5936     2.4042    -0.1748 H       
  32 H32           -3.7307     3.2143    -2.2296 H       
  33 H33           -5.0935     4.5433    -6.3677 H       
  34 H34           -1.0430     3.1815    -6.1138 H       
@<TRIPOS>BOND
   1    1    2 1
   2    1    5 1
   3    1    7 1
   4    1   21 1
   5    2    3 1
   6    2   22 1
   7    2   23 1
   8    3    4 1
   9    3   24 1
  10    3   25 1
  11    4   26 1
  12    4   27 1
  13    4   28 1
  14    5   29 1
  15    6    7 ar
  16    6   11 ar
  17    6   30 1
  18    7    8 ar
  19    8    9 ar
  20    8   31 1
  21    9   10 ar
  22    9   32 1
  23   10   11 ar
  24   10   12 1
  25   12   13 1
  26   12   16 1
  27   13   14 2
  28   14   15 1
  29   14   33 1
  30   15   16 2
  31   15   17 1
  32   16   34 1
  33   17   18 1
  34   17   19 1
  35   17   20 1

#	End of record

