#	Name: ASD01816568
#	Creating user name:	WinNT
#	Creation time:	15. 06. 2019 19:35

#	Modifying user name:	WinNT
#	Modification time:	15. 06. 2019 19:35

#	Program:	/corina/corina34_cracker 3.40 0067  02.08.2006

@<TRIPOS>MOLECULE
ASD01816568
  66   72    0    0    0
SMALL
NO_CHARGES


@<TRIPOS>ATOM
   1 C1            -0.0167     1.3813     0.0096 C.ar    
   2 C2             0.0021    -0.0041     0.0020 C.ar    
   3 C3             1.1984    -0.6909    -0.0131 C.ar    
   4 C4             2.4015     0.0059    -0.0204 C.ar    
   5 C5             2.3790     1.4106    -0.0127 C.ar    
   6 C6             1.1663     2.0916     0.0022 C.ar    
   7 N7             3.6053    -0.6772    -0.0347 N.pl3   
   8 C8             4.7970    -0.0586    -0.0423 C.2     
   9 C9             4.9000     1.3103    -0.0359 C.2     
  10 C10            3.6670     2.1301    -0.0207 C.2     
  11 C11            5.9971     2.2729    -0.0408 C.2     
  12 N12            5.4246     3.4960    -0.0295 N.am    
  13 N13            4.0323     3.3799    -0.0176 N.2     
  14 C14            6.1265     4.7081    -0.0291 C.ar    
  15 O15            7.1915     2.0229    -0.0524 O.2     
  16 C16            3.5779    -2.1419    -0.0413 C.3     
  17 C17            3.5555    -2.6375    -1.4643 C.ar    
  18 C18            4.7443    -2.8864    -2.1258 C.ar    
  19 C19            4.7305    -3.3401    -3.4295 C.ar    
  20 C20            3.5158    -3.5479    -4.0794 C.ar    
  21 C21            2.3196    -3.2958    -3.4077 C.ar    
  22 C22            2.3459    -2.8471    -2.1018 C.ar    
  23 C23            6.4004     5.3550     1.1717 C.ar    
  24 C24            3.4947    -4.0348    -5.4806 C.ar    
  25 C25            4.2687    -3.4124    -6.4554 C.ar    
  26 C26            6.5554     5.2640    -1.2265 C.ar    
  27 C27            7.2475     6.4599    -1.2231 C.ar    
  28 C28            7.5141     7.1036    -0.0290 C.ar    
  29 C29            7.0935     6.5513     1.1673 C.ar    
  30 F30            5.9895     4.8153     2.3400 F       
  31 N31            4.2534    -3.8413    -7.7017 N.ar    
  32 C32            3.5093    -4.8712    -8.0753 C.ar    
  33 C33            2.7088    -5.5443    -7.1562 C.ar    
  34 C34            2.7005    -5.1303    -5.8391 C.ar    
  35 Cl35           0.8012    -3.5518    -4.2093 Cl      
  36 N36            3.5273    -5.2850    -9.4014 N.3     
  37 C37            4.4310    -4.4467   -10.2026 C.3     
  38 C38            4.4663    -4.9730   -11.6399 C.3     
  39 O39            3.1372    -4.9940   -12.1674 O.3     
  40 C40            2.2305    -5.8016   -11.4117 C.3     
  41 C41            2.1725    -5.2837    -9.9722 C.3     
  42 H42           -0.9602     1.9068     0.0170 H       
  43 H43           -0.9289    -0.5516     0.0083 H       
  44 H44            1.2004    -1.7709    -0.0189 H       
  45 H45            1.1506     3.1715     0.0081 H       
  46 H46            5.6983    -0.6536    -0.0534 H       
  47 H47            4.4656    -2.5242     0.4626 H       
  48 H48            2.6861    -2.4910     0.4791 H       
  49 H49            5.6856    -2.7252    -1.6214 H       
  50 H50            5.6597    -3.5333    -3.9449 H       
  51 H51            1.4206    -2.6518    -1.5801 H       
  52 H52            4.8881    -2.5690    -6.1880 H       
  53 H53            6.3485     4.7620    -2.1601 H       
  54 H54            7.5812     6.8922    -2.1548 H       
  55 H55            8.0557     8.0380    -0.0300 H       
  56 H56            7.3034     7.0568     2.0983 H       
  57 H57            2.1049    -6.3833    -7.4689 H       
  58 H58            2.0894    -5.6341    -5.1049 H       
  59 H59            4.0707    -3.4180   -10.2005 H       
  60 H60            5.4338    -4.4827    -9.7771 H       
  61 H61            5.0902    -4.3209   -12.2511 H       
  62 H62            4.8770    -5.9827   -11.6477 H       
  63 H63            1.2374    -5.7487   -11.8579 H       
  64 H64            2.5762    -6.8353   -11.4129 H       
  65 H65            1.5267    -5.9306    -9.3783 H       
  66 H66            1.7761    -4.2683    -9.9664 H       
@<TRIPOS>BOND
   1    1    2 ar
   2    1    6 ar
   3    1   42 1
   4    2    3 ar
   5    2   43 1
   6    3    4 ar
   7    3   44 1
   8    4    5 ar
   9    4    7 1
  10    5    6 ar
  11    5   10 1
  12    6   45 1
  13    7    8 1
  14    7   16 1
  15    8    9 2
  16    8   46 1
  17    9   10 1
  18    9   11 1
  19   10   13 2
  20   11   12 am
  21   11   15 2
  22   12   13 1
  23   12   14 1
  24   14   26 ar
  25   14   23 ar
  26   16   17 1
  27   16   47 1
  28   16   48 1
  29   17   18 ar
  30   17   22 ar
  31   18   19 ar
  32   18   49 1
  33   19   20 ar
  34   19   50 1
  35   20   21 ar
  36   20   24 1
  37   21   22 ar
  38   21   35 1
  39   22   51 1
  40   23   30 1
  41   23   29 ar
  42   24   25 ar
  43   24   34 ar
  44   25   31 ar
  45   25   52 1
  46   26   27 ar
  47   26   53 1
  48   27   28 ar
  49   27   54 1
  50   28   29 ar
  51   28   55 1
  52   29   56 1
  53   31   32 ar
  54   32   33 ar
  55   32   36 1
  56   33   34 ar
  57   33   57 1
  58   34   58 1
  59   36   37 1
  60   36   41 1
  61   37   38 1
  62   37   59 1
  63   37   60 1
  64   38   39 1
  65   38   61 1
  66   38   62 1
  67   39   40 1
  68   40   41 1
  69   40   63 1
  70   40   64 1
  71   41   65 1
  72   41   66 1

#	End of record

