#	Name: ASD01560006
#	Creating user name:	WinNT
#	Creation time:	15. 06. 2019 19:22

#	Modifying user name:	WinNT
#	Modification time:	15. 06. 2019 19:22

#	Program:	/corina/corina34_cracker 3.40 0067  02.08.2006

@<TRIPOS>MOLECULE
ASD01560006
  83   89    0    0    0
SMALL
NO_CHARGES


@<TRIPOS>ATOM
   1 C1             3.2051     3.0769     1.6529 C.3     
   2 C2             4.4922     2.6676     0.8962 C.3     
   3 C3             4.2404     3.1267    -0.5531 C.3     
   4 O4             2.9180     3.6882    -0.5999 O.3     
   5 C5             2.6186     4.1727     0.7268 C.3     
   6 C6             4.3311     1.9294    -1.5013 C.3     
   7 O7             4.2124     2.3812    -2.8518 O.3     
   8 C8             4.4202     1.3580    -3.8275 C.3     
   9 C9             3.4244     0.2478    -3.6110 C.ar    
  10 C10            4.2371     1.9351    -5.2075 C.ar    
  11 C11            5.8183     0.8120    -3.6927 C.ar    
  12 C12            6.8374     1.6266    -3.2357 C.ar    
  13 C13            8.1199     1.1258    -3.1122 C.ar    
  14 C14            8.3833    -0.1897    -3.4453 C.ar    
  15 C15            7.3640    -1.0046    -3.9014 C.ar    
  16 C16            6.0806    -0.5049    -4.0208 C.ar    
  17 C17            3.6106    -0.6570    -2.5827 C.ar    
  18 C18            2.6972    -1.6754    -2.3842 C.ar    
  19 C19            1.5972    -1.7887    -3.2138 C.ar    
  20 C20            1.4105    -0.8833    -4.2415 C.ar    
  21 C21            2.3216     0.1377    -4.4373 C.ar    
  22 C22            3.8188     3.2439    -5.3594 C.ar    
  23 C23            3.6508     3.7733    -6.6253 C.ar    
  24 C24            3.9015     2.9940    -7.7392 C.ar    
  25 C25            4.3206     1.6855    -7.5873 C.ar    
  26 C26            4.4928     1.1575    -6.3214 C.ar    
  27 O27            4.6737     1.2511     0.9477 O.3     
  28 O28            2.3071     1.9712     1.7668 O.3     
  29 N29            1.1710     4.2898     0.9188 N.pl3   
  30 C30            0.5375     5.1013     1.8195 C.2     
  31 C31           -0.8321     4.8806     1.6443 C.2     
  32 N32           -0.9689     3.9603     0.6616 N.2     
  33 C33            0.2092     3.6144     0.2286 C.2     
  34 N34            0.9536     5.9788     2.7434 N.2     
  35 C35            0.1045     6.6333     3.4851 C.2     
  36 N36           -1.2369     6.4663     3.3669 N.am    
  37 C37           -1.7410     5.6007     2.4591 C.2     
  38 O38           -2.9444     5.4436     2.3448 O.2     
  39 C39           -2.1443     7.2285     4.2283 C.3     
  40 C40           -2.5052     8.5497     3.5464 C.3     
  41 C41           -3.5483     9.2891     4.3867 C.3     
  42 C42           -3.9092    10.6103     3.7049 C.3     
  43 C43           -2.6542    11.4755     3.5728 C.3     
  44 C44           -1.6111    10.7362     2.7324 C.3     
  45 C45           -1.2502     9.4149     3.4143 C.3     
  46 H46            3.4443     3.4841     2.6352 H       
  47 H47            5.3596     3.1779     1.3150 H       
  48 H48            4.9739     3.8820    -0.8354 H       
  49 H49            3.1092     5.1294     0.9058 H       
  50 H50            5.2918     1.4321    -1.3677 H       
  51 H51            3.5256     1.2291    -1.2803 H       
  52 H52            6.6316     2.6544    -2.9755 H       
  53 H53            8.9162     1.7624    -2.7558 H       
  54 H54            9.3854    -0.5808    -3.3494 H       
  55 H55            7.5698    -2.0322    -4.1620 H       
  56 H56            5.2843    -1.1416    -4.3772 H       
  57 H57            4.4700    -0.5685    -1.9346 H       
  58 H58            2.8431    -2.3828    -1.5813 H       
  59 H59            0.8840    -2.5847    -3.0591 H       
  60 H60            0.5513    -0.9720    -4.8898 H       
  61 H61            2.1757     0.8451    -5.2403 H       
  62 H62            3.6230     3.8527    -4.4892 H       
  63 H63            3.3233     4.7955    -6.7440 H       
  64 H64            3.7696     3.4074    -8.7282 H       
  65 H65            4.5162     1.0766    -8.4575 H       
  66 H66            4.8203     0.1352    -6.2026 H       
  67 H67            4.7782     0.9003     1.8428 H       
  68 H68            2.6659     1.2225     2.2625 H       
  69 H69            0.3964     2.8950    -0.5548 H       
  70 H70            0.4812     7.3314     4.2180 H       
  71 H71           -3.0514     6.6499     4.4026 H       
  72 H72           -1.6551     7.4329     5.1807 H       
  73 H73           -2.9132     8.3478     2.5560 H       
  74 H74           -4.4423     8.6727     4.4808 H       
  75 H75           -3.1402     9.4909     5.3771 H       
  76 H76           -4.3172    10.4084     2.7145 H       
  77 H77           -4.6523    11.1370     4.3035 H       
  78 H78           -2.9113    12.4168     3.0870 H       
  79 H79           -2.2462    11.6774     4.5632 H       
  80 H80           -2.0191    10.5343     1.7421 H       
  81 H81           -0.7171    11.3525     2.6384 H       
  82 H82           -0.8422     9.6168     4.4047 H       
  83 H83           -0.5071     8.8882     2.8157 H       
@<TRIPOS>BOND
   1    1   28 1
   2    1    2 1
   3    1    5 1
   4    1   46 1
   5    2   27 1
   6    2    3 1
   7    2   47 1
   8    3    4 1
   9    3    6 1
  10    3   48 1
  11    4    5 1
  12    5   29 1
  13    5   49 1
  14    6    7 1
  15    6   50 1
  16    6   51 1
  17    7    8 1
  18    8    9 1
  19    8   10 1
  20    8   11 1
  21    9   17 ar
  22    9   21 ar
  23   10   22 ar
  24   10   26 ar
  25   11   12 ar
  26   11   16 ar
  27   12   13 ar
  28   12   52 1
  29   13   14 ar
  30   13   53 1
  31   14   15 ar
  32   14   54 1
  33   15   16 ar
  34   15   55 1
  35   16   56 1
  36   17   18 ar
  37   17   57 1
  38   18   19 ar
  39   18   58 1
  40   19   20 ar
  41   19   59 1
  42   20   21 ar
  43   20   60 1
  44   21   61 1
  45   22   23 ar
  46   22   62 1
  47   23   24 ar
  48   23   63 1
  49   24   25 ar
  50   24   64 1
  51   25   26 ar
  52   25   65 1
  53   26   66 1
  54   27   67 1
  55   28   68 1
  56   29   30 1
  57   29   33 1
  58   30   31 2
  59   30   34 1
  60   31   32 1
  61   31   37 1
  62   32   33 2
  63   33   69 1
  64   34   35 2
  65   35   36 1
  66   35   70 1
  67   36   37 am
  68   36   39 1
  69   37   38 2
  70   39   40 1
  71   39   71 1
  72   39   72 1
  73   40   41 1
  74   40   45 1
  75   40   73 1
  76   41   42 1
  77   41   74 1
  78   41   75 1
  79   42   43 1
  80   42   76 1
  81   42   77 1
  82   43   44 1
  83   43   78 1
  84   43   79 1
  85   44   45 1
  86   44   80 1
  87   44   81 1
  88   45   82 1
  89   45   83 1

#	End of record

