#	Name: ASD01000147
#	Creating user name:	WinNT
#	Creation time:	15. 06. 2019 18:54

#	Modifying user name:	WinNT
#	Modification time:	15. 06. 2019 18:54

#	Program:	/corina/corina34_cracker 3.40 0067  02.08.2006

@<TRIPOS>MOLECULE
ASD01000147
  52   55    0    0    0
SMALL
NO_CHARGES


@<TRIPOS>ATOM
   1 C1             0.6669     1.3122     0.0015 C.ar    
   2 C2            -1.6207     2.3421    -0.1694 C.3     
   3 C3            -2.1331     1.0669     0.4257 C.ar    
   4 C4             0.0760    -0.0676     0.0298 C.3     
   5 C5             1.8359     3.8231    -0.0432 C.ar    
   6 C6             0.4637     3.6928    -0.1152 C.ar    
   7 C7            -0.1243     2.4361    -0.0918 C.ar    
   8 C8             2.0460     1.4449     0.0778 C.ar    
   9 C9             2.6295     2.6956     0.0556 C.ar    
  10 C10           -3.4366     1.0332     0.9005 C.ar    
  11 C11           -3.9471    -0.1221     1.4570 C.ar    
  12 C12           -3.1559    -1.2525     1.5419 C.ar    
  13 C13           -1.8594    -1.2168     1.0815 C.ar    
  14 C14           -1.3425    -0.0568     0.5226 C.ar    
  15 C15            0.1077    -0.6440    -1.3623 C.ar    
  16 C16            0.1488    -2.0144    -1.5411 C.ar    
  17 C17            0.1779    -2.5452    -2.8162 C.ar    
  18 C18            0.1661    -1.7020    -3.9178 C.ar    
  19 C19            0.1249    -0.3273    -3.7357 C.ar    
  20 C20            0.0901     0.1984    -2.4586 C.ar    
  21 S21            1.0724    -1.1150     1.1255 S.3     
  22 C22            0.9196    -0.2864     2.7320 C.3     
  23 C23            1.6209    -1.1214     3.8052 C.3     
  24 C24            1.4940    -0.4331     5.1398 C.2     
  25 N25            0.9969    -2.4493     3.8779 N.3     
  26 O26            2.3092     0.5875     5.4488 O.3     
  27 O27            0.6584    -0.7999     5.9317 O.2     
  28 O28            0.1952    -2.2217    -5.1731 O.3     
  29 C29            0.1807    -1.2939    -6.2599 C.3     
  30 H30           -1.9159     2.3886    -1.2176 H       
  31 H31           -2.0643     3.1849     0.3608 H       
  32 H32            2.2882     4.8037    -0.0617 H       
  33 H33           -0.1558     4.5740    -0.1929 H       
  34 H34            2.6665     0.5644     0.1553 H       
  35 H35            3.7036     2.7929     0.1121 H       
  36 H36           -4.0550     1.9161     0.8345 H       
  37 H37           -4.9620    -0.1427     1.8257 H       
  38 H38           -3.5513    -2.1587     1.9764 H       
  39 H39           -1.2419    -2.1004     1.1475 H       
  40 H40            0.1584    -2.6704    -0.6833 H       
  41 H41            0.2103    -3.6157    -2.9554 H       
  42 H42            0.1156     0.3312    -4.5916 H       
  43 H43            0.0532     1.2683    -2.3164 H       
  44 H44            1.3826     0.6989     2.6781 H       
  45 H45           -0.1347    -0.1790     2.9866 H       
  46 H46            2.6753    -1.2289     3.5506 H       
  47 H47            0.0183    -2.3767     4.1126 H       
  48 H48            1.1251    -2.9568     3.0152 H       
  49 H49            2.1900     0.9975     6.3164 H       
  50 H50            0.2070    -1.8391    -7.2034 H       
  51 H51           -0.7276    -0.6931    -6.2126 H       
  52 H52            1.0515    -0.6419    -6.1926 H       
@<TRIPOS>BOND
   1    1    4 1
   2    1    8 ar
   3    1    7 ar
   4    2    3 1
   5    2    7 1
   6    2   30 1
   7    2   31 1
   8    3   10 ar
   9    3   14 ar
  10    4   15 1
  11    4   21 1
  12    4   14 1
  13    5    6 ar
  14    5    9 ar
  15    5   32 1
  16    6    7 ar
  17    6   33 1
  18    8    9 ar
  19    8   34 1
  20    9   35 1
  21   10   11 ar
  22   10   36 1
  23   11   12 ar
  24   11   37 1
  25   12   13 ar
  26   12   38 1
  27   13   14 ar
  28   13   39 1
  29   15   16 ar
  30   15   20 ar
  31   16   17 ar
  32   16   40 1
  33   17   18 ar
  34   17   41 1
  35   18   19 ar
  36   18   28 1
  37   19   20 ar
  38   19   42 1
  39   20   43 1
  40   21   22 1
  41   22   23 1
  42   22   44 1
  43   22   45 1
  44   23   24 1
  45   23   25 1
  46   23   46 1
  47   24   26 1
  48   24   27 2
  49   25   47 1
  50   25   48 1
  51   26   49 1
  52   28   29 1
  53   29   50 1
  54   29   51 1
  55   29   52 1

#	End of record

