#	Name: ASD01412002
#	Creating user name:	WinNT
#	Creation time:	15. 06. 2019 19:19

#	Modifying user name:	WinNT
#	Modification time:	15. 06. 2019 19:19

#	Program:	/corina/corina34_cracker 3.40 0067  02.08.2006

@<TRIPOS>MOLECULE
ASD01412002
  76   80    0    0    0
SMALL
NO_CHARGES


@<TRIPOS>ATOM
   1 C1            -1.1720     3.2495    -0.6261 C.ar    
   2 C2            -0.9747     1.9108    -1.0220 C.ar    
   3 C3            -2.0431     1.0032    -0.9786 C.ar    
   4 C4            -3.2692     1.4145    -0.5546 C.ar    
   5 C5            -3.4747     2.7444    -0.1588 C.ar    
   6 C6            -2.4223     3.6582    -0.1916 C.ar    
   7 N7             0.0366     3.9016    -0.7713 N.pl3   
   8 C8             0.9677     3.0074    -1.2428 C.2     
   9 C9             0.3830     1.7927    -1.4042 C.2     
  10 C10            2.3841     3.3195    -1.5301 C.2     
  11 C11            2.9065     4.4909    -2.2454 C.2     
  12 C12            4.2418     4.3486    -2.2639 C.2     
  13 O13            4.5701     3.2112    -1.6323 O.3     
  14 C14            3.4748     2.5840    -1.1815 C.2     
  15 C15            1.0596     0.5410    -1.9008 C.3     
  16 C16            0.9714    -0.5464    -0.8281 C.3     
  17 C17            1.6583    -1.8171    -1.3322 C.3     
  18 C18            0.9639    -2.3008    -2.6069 C.3     
  19 C19            1.0521    -1.2134    -3.6797 C.3     
  20 C20            0.3652     0.0573    -3.1755 C.3     
  21 C21           -4.8086     3.1767     0.2986 C.2     
  22 O22           -4.9896     4.3291     0.6423 O.2     
  23 N23           -5.8269     2.2946     0.3356 N.am    
  24 C24           -7.1518     2.7240     0.7899 C.3     
  25 C25           -8.1038     1.5570     0.7363 C.2     
  26 C26           -7.0560     3.2385     2.2276 C.3     
  27 C27           -7.6648     3.8428    -0.1190 C.3     
  28 C28           -8.8161    -0.4849    -0.2458 C.ar    
  29 O29           -8.9733     1.4447     1.5744 O.2     
  30 C30           -9.1907    -1.0737     0.9583 C.ar    
  31 C31          -10.0108    -2.1787     0.9606 C.ar    
  32 C32          -10.4688    -2.7103    -0.2511 C.ar    
  33 C33          -10.0897    -2.1144    -1.4600 C.ar    
  34 C34           -9.2689    -1.0099    -1.4525 C.ar    
  35 C35          -11.3443    -3.8904    -0.2539 C.2     
  36 C36          -12.3913    -3.9569     0.5974 C.2     
  37 N37           -7.9890     0.6381    -0.2429 N.am    
  38 C38            0.2854     5.3139    -0.4720 C.3     
  39 C39          -12.7888    -2.8057     1.3234 C.2     
  40 O40          -12.2148    -1.7477     1.1478 O.2     
  41 O41          -13.8039    -2.8838     2.2090 O.3     
  42 H42           -1.8928    -0.0223    -1.2820 H       
  43 H43           -4.0893     0.7125    -0.5230 H       
  44 H44           -2.5827     4.6817     0.1136 H       
  45 H45            2.3335     5.3016    -2.6705 H       
  46 H46            4.9394     5.0387    -2.7151 H       
  47 H47            3.4598     1.6498    -0.6398 H       
  48 H48            2.1065     0.7548    -2.1162 H       
  49 H49            1.4661    -0.2018     0.0800 H       
  50 H50           -0.0755    -0.7602    -0.6127 H       
  51 H51            2.7052    -1.6033    -1.5476 H       
  52 H52            1.5955    -2.5918    -0.5680 H       
  53 H53            1.4532    -3.2061    -2.9661 H       
  54 H54           -0.0830    -2.5146    -2.3916 H       
  55 H55            2.0990    -0.9996    -3.8950 H       
  56 H56            0.5574    -1.5580    -4.5878 H       
  57 H57           -0.6817    -0.1565    -2.9601 H       
  58 H58            0.4280     0.8320    -3.9397 H       
  59 H59           -5.6825     1.3754     0.0614 H       
  60 H60           -6.3675     4.0825     2.2663 H       
  61 H61           -8.0418     3.5580     2.5656 H       
  62 H62           -6.6906     2.4414     2.8751 H       
  63 H63           -7.7330     3.4762    -1.1433 H       
  64 H64           -8.6506     4.1623     0.2190 H       
  65 H65           -6.9762     4.6868    -0.0803 H       
  66 H66           -8.8370    -0.6629     1.8924 H       
  67 H67          -10.3005    -2.6354     1.8954 H       
  68 H68          -10.4403    -2.5213    -2.3969 H       
  69 H69           -8.9762    -0.5494    -2.3845 H       
  70 H70          -11.1509    -4.7047    -0.9365 H       
  71 H71          -12.9254    -4.8868     0.7250 H       
  72 H72           -7.3312     0.7578    -0.9456 H       
  73 H73            0.5976     5.4155     0.5674 H       
  74 H74            1.0716     5.6909    -1.1260 H       
  75 H75           -0.6280     5.8861    -0.6346 H       
  76 H76          -14.0021    -2.0489     2.6547 H       
@<TRIPOS>BOND
   1    1    2 ar
   2    1    7 1
   3    1    6 ar
   4    2    3 ar
   5    2    9 1
   6    3    4 ar
   7    3   42 1
   8    4    5 ar
   9    4   43 1
  10    5    6 ar
  11    5   21 1
  12    6   44 1
  13    7    8 1
  14    7   38 1
  15    8    9 2
  16    8   10 1
  17    9   15 1
  18   10   11 1
  19   10   14 2
  20   11   12 2
  21   11   45 1
  22   12   13 1
  23   12   46 1
  24   13   14 1
  25   14   47 1
  26   15   16 1
  27   15   20 1
  28   15   48 1
  29   16   17 1
  30   16   49 1
  31   16   50 1
  32   17   18 1
  33   17   51 1
  34   17   52 1
  35   18   19 1
  36   18   53 1
  37   18   54 1
  38   19   20 1
  39   19   55 1
  40   19   56 1
  41   20   57 1
  42   20   58 1
  43   21   22 2
  44   21   23 am
  45   23   24 1
  46   23   59 1
  47   24   25 1
  48   24   26 1
  49   24   27 1
  50   25   29 2
  51   25   37 am
  52   26   60 1
  53   26   61 1
  54   26   62 1
  55   27   63 1
  56   27   64 1
  57   27   65 1
  58   28   30 ar
  59   28   34 ar
  60   28   37 1
  61   30   31 ar
  62   30   66 1
  63   31   32 ar
  64   31   67 1
  65   32   33 ar
  66   32   35 1
  67   33   34 ar
  68   33   68 1
  69   34   69 1
  70   35   36 2
  71   35   70 1
  72   36   39 1
  73   36   71 1
  74   37   72 1
  75   38   73 1
  76   38   74 1
  77   38   75 1
  78   39   40 2
  79   39   41 1
  80   41   76 1

#	End of record

