#	Name: ASD01940327
#	Creating user name:	WinNT
#	Creation time:	15. 06. 2019 20:12

#	Modifying user name:	WinNT
#	Modification time:	15. 06. 2019 20:12

#	Program:	/corina/corina34_cracker 3.40 0067  02.08.2006

@<TRIPOS>MOLECULE
ASD01940327
  46   48    0    0    0
SMALL
NO_CHARGES


@<TRIPOS>ATOM
   1 C1            -0.0574     1.3278    -2.1275 C.3     
   2 C2            -0.0707     0.2776    -3.2400 C.3     
   3 C3             1.2381     0.6168    -2.5238 C.3     
   4 S4            -0.2417     3.0657    -2.6139 S.o2    
   5 O5             0.9095     3.5112    -3.3177 O.2     
   6 O6            -1.5479     3.3063    -3.1190 O.2     
   7 N7            -0.1959     3.9017    -1.1852 N.am    
   8 C8             0.9799     4.5558    -0.7935 C.ar    
   9 C9             0.9316     5.8811    -0.3629 C.ar    
  10 C10            2.0994     6.5240     0.0243 C.ar    
  11 C11            3.3085     5.8474    -0.0182 C.ar    
  12 C12            3.3537     4.5321    -0.4464 C.ar    
  13 C13            2.1925     3.8847    -0.8280 C.ar    
  14 C14            2.2463     2.4503    -1.2872 C.3     
  15 N15           -0.2926     6.5625    -0.3216 N.pl3   
  16 C16           -0.3138     7.9601    -0.2780 C.ar    
  17 C17           -0.0176     8.6980    -1.4200 C.ar    
  18 C18           -0.0402    10.0793    -1.3727 C.ar    
  19 C19           -0.3564    10.7270    -0.1914 C.ar    
  20 C20           -0.6506     9.9956     0.9448 C.ar    
  21 C21           -0.6360     8.6145     0.9031 C.ar    
  22 I22           -0.3888    12.8207    -0.1239 I       
  23 F23            0.2920     8.0654    -2.5729 F       
  24 F24            4.4449     6.4733     0.3587 F       
  25 F25            2.0576     7.8082     0.4418 F       
  26 C26           -0.6914     0.9463    -0.7883 C.3     
  27 C27           -0.4535     2.0481     0.2121 C.2     
  28 C28           -1.4627     2.5695     0.8645 C.2     
  29 H29           -0.5311    -0.6851    -3.0179 H       
  30 H30           -0.1902     0.6309    -4.2642 H       
  31 H31            1.9796     1.1933    -3.0769 H       
  32 H32            1.6387    -0.1227    -1.8305 H       
  33 H33           -0.9829     3.9387    -0.6194 H       
  34 H34            4.2978     4.0085    -0.4788 H       
  35 H35            2.3421     2.4196    -2.3725 H       
  36 H36            3.1044     1.9552    -0.8325 H       
  37 H37            1.3314     1.9386    -0.9885 H       
  38 H38           -1.1250     6.0646    -0.3233 H       
  39 H39            0.1895    10.6533    -2.2582 H       
  40 H40           -0.8963    10.5046     1.8651 H       
  41 H41           -0.8704     8.0446     1.7900 H       
  42 H42           -1.7635     0.8021    -0.9218 H       
  43 H43           -0.2430     0.0220    -0.4242 H       
  44 H44            0.5490     2.4077     0.3911 H       
  45 H45           -1.2922     3.3591     1.5814 H       
  46 H46           -2.4652     2.2099     0.6855 H       
@<TRIPOS>BOND
   1    1    2 1
   2    1    3 1
   3    1    4 1
   4    1   26 1
   5    2    3 1
   6    2   29 1
   7    2   30 1
   8    3   31 1
   9    3   32 1
  10    4    5 2
  11    4    6 2
  12    4    7 am
  13    7    8 1
  14    7   33 1
  15    8    9 ar
  16    8   13 ar
  17    9   10 ar
  18    9   15 1
  19   10   11 ar
  20   10   25 1
  21   11   12 ar
  22   11   24 1
  23   12   13 ar
  24   12   34 1
  25   13   14 1
  26   14   35 1
  27   14   36 1
  28   14   37 1
  29   15   16 1
  30   15   38 1
  31   16   17 ar
  32   16   21 ar
  33   17   18 ar
  34   17   23 1
  35   18   19 ar
  36   18   39 1
  37   19   20 ar
  38   19   22 1
  39   20   21 ar
  40   20   40 1
  41   21   41 1
  42   26   27 1
  43   26   42 1
  44   26   43 1
  45   27   28 2
  46   27   44 1
  47   28   45 1
  48   28   46 1

#	End of record

