#	Name: ASD08830248
#	Creating user name:	WinNT
#	Creation time:	15. 06. 2019 21:20

#	Modifying user name:	WinNT
#	Modification time:	15. 06. 2019 21:20

#	Program:	/corina/corina34_cracker 3.40 0067  02.08.2006

@<TRIPOS>MOLECULE
ASD08830248
  60   64    0    0    0
SMALL
NO_CHARGES


@<TRIPOS>ATOM
   1 C1            -0.2584     1.4480     0.1561 C.ar    
   2 C2            -0.2801     0.0721     0.2605 C.ar    
   3 C3             0.9140    -0.6361     0.4005 C.ar    
   4 C4             2.1263     0.0501     0.4340 C.ar    
   5 C5             2.1385     1.4327     0.3279 C.ar    
   6 C6             0.9440     2.1292     0.1892 C.ar    
   7 C7             0.8929    -2.1127     0.5138 C.ar    
   8 C8            -0.1562    -2.7696     1.1887 C.ar    
   9 C9            -0.1253    -4.1777     1.2661 C.ar    
  10 N10            0.8870    -4.8307     0.7025 N.ar    
  11 C11            1.8502    -4.1730     0.0790 C.ar    
  12 N12            1.8594    -2.8497    -0.0231 N.ar    
  13 C13           -1.3227    -2.3449     1.8600 C.2     
  14 N14           -1.9484    -3.3962     2.3072 N.2     
  15 N15           -1.2385    -4.5525     1.9598 N.pl3   
  16 N16            2.8858    -4.8927    -0.4935 N.pl3   
  17 C17            2.9636    -6.2786    -0.3052 C.ar    
  18 C18            3.4695    -7.0889    -1.3130 C.ar    
  19 C19            2.5399    -6.8415     0.8914 C.ar    
  20 C20            2.6164    -8.2076     1.0771 C.ar    
  21 C21            3.1172    -9.0186     0.0670 C.ar    
  22 C22            3.5457    -8.4550    -1.1277 C.ar    
  23 N23            3.1952   -10.4032     0.2553 N.3     
  24 C24            3.7516   -11.0657    -0.9326 C.3     
  25 C25            3.8943   -12.5645    -0.6577 C.3     
  26 N26            2.5798   -13.1241    -0.3134 N.3     
  27 C27            2.0234   -12.4616     0.8746 C.3     
  28 C28            1.8807   -10.9628     0.5996 C.3     
  29 N29            3.3526     2.1261     0.3614 N.am    
  30 C30            4.4624     1.5674    -0.1610 C.2     
  31 C31            5.7603     2.2455    -0.0261 C.2     
  32 C32            6.8555     1.6941    -0.5416 C.2     
  33 O33            4.3903     0.5024    -0.7441 O.2     
  34 C34            2.6617   -14.5774    -0.1157 C.3     
  35 H35           -1.1834     1.9940     0.0436 H       
  36 H36           -1.2215    -0.4566     0.2342 H       
  37 H37            3.0534    -0.4931     0.5426 H       
  38 H38            0.9552     3.2060     0.1063 H       
  39 H39           -1.6427    -1.3207     1.9824 H       
  40 H40           -1.4945    -5.4630     2.1749 H       
  41 H41            3.5574    -4.4370    -1.0248 H       
  42 H42            3.8031    -6.6506    -2.2420 H       
  43 H43            2.1508    -6.2108     1.6770 H       
  44 H44            2.2872    -8.6454     2.0079 H       
  45 H45            3.9348    -9.0857    -1.9133 H       
  46 H46            3.0835   -10.9134    -1.7803 H       
  47 H47            4.7302   -10.6429    -1.1599 H       
  48 H48            4.2797   -13.0624    -1.5475 H       
  49 H49            4.5836   -12.7179     0.1726 H       
  50 H50            1.0448   -12.8844     1.1019 H       
  51 H51            2.6915   -12.6138     1.7223 H       
  52 H52            1.4953   -10.4649     1.4894 H       
  53 H53            1.1913   -10.8094    -0.2307 H       
  54 H54            3.3961     3.0090     0.7606 H       
  55 H55            5.8243     3.1912     0.4917 H       
  56 H56            6.7916     0.7485    -1.0594 H       
  57 H57            7.8087     2.1921    -0.4425 H       
  58 H58            3.3574   -14.7953     0.6946 H       
  59 H59            1.6753   -14.9658     0.1380 H       
  60 H60            3.0131   -15.0496    -1.0332 H       
@<TRIPOS>BOND
   1    1    2 ar
   2    1    6 ar
   3    1   35 1
   4    2    3 ar
   5    2   36 1
   6    3    4 ar
   7    3    7 1
   8    4    5 ar
   9    4   37 1
  10    5    6 ar
  11    5   29 1
  12    6   38 1
  13    7    8 ar
  14    7   12 ar
  15    8    9 ar
  16    8   13 1
  17    9   10 ar
  18    9   15 1
  19   10   11 ar
  20   11   12 ar
  21   11   16 1
  22   13   14 2
  23   13   39 1
  24   14   15 1
  25   15   40 1
  26   16   17 1
  27   16   41 1
  28   17   18 ar
  29   17   19 ar
  30   18   22 ar
  31   18   42 1
  32   19   20 ar
  33   19   43 1
  34   20   21 ar
  35   20   44 1
  36   21   22 ar
  37   21   23 1
  38   22   45 1
  39   23   24 1
  40   23   28 1
  41   24   25 1
  42   24   46 1
  43   24   47 1
  44   25   26 1
  45   25   48 1
  46   25   49 1
  47   26   27 1
  48   26   34 1
  49   27   28 1
  50   27   50 1
  51   27   51 1
  52   28   52 1
  53   28   53 1
  54   29   30 am
  55   29   54 1
  56   30   31 1
  57   30   33 2
  58   31   32 2
  59   31   55 1
  60   32   56 1
  61   32   57 1
  62   34   58 1
  63   34   59 1
  64   34   60 1

#	End of record

