#	Name: ASD04590291
#	Creating user name:	WinNT
#	Creation time:	15. 06. 2019 20:50

#	Modifying user name:	WinNT
#	Modification time:	15. 06. 2019 20:50

#	Program:	/corina/corina34_cracker 3.40 0067  02.08.2006

@<TRIPOS>MOLECULE
ASD04590291
  55   59    0    0    0
SMALL
NO_CHARGES


@<TRIPOS>ATOM
   1 C1            -0.0037     1.3870    -0.0782 C.ar    
   2 C2             0.0061    -0.0108     0.0130 C.ar    
   3 C3             1.2128    -0.6977     0.1064 C.ar    
   4 C4             2.4113     0.0158     0.1084 C.ar    
   5 C5             2.3823     1.4207     0.0159 C.ar    
   6 C6             1.1671     2.0890    -0.0765 C.ar    
   7 N7             3.7142    -0.3538     0.1845 N.2     
   8 C8             4.4756     0.7124     0.1457 C.2     
   9 N9             3.6975     1.8347     0.0417 N.pl3   
  10 C10            5.9518     0.7047     0.2057 C.2     
  11 C11            6.7735    -0.4411     0.3131 C.2     
  12 C12            8.0631    -0.0241     0.3372 C.2     
  13 N13            8.0641     1.3320     0.2490 N.pl3   
  14 N14            6.7349     1.7648     0.1629 N.2     
  15 N15            6.3326    -1.7725     0.3827 N.am    
  16 C16            7.2281    -2.7746     0.4835 C.2     
  17 C17            6.7649    -4.1734     0.5566 C.ar    
  18 O18            8.4181    -2.5258     0.5143 O.2     
  19 C19            6.1512    -6.2271    -0.5370 C.ar    
  20 C20            5.8931    -6.8024     0.6940 C.ar    
  21 C21            6.0622    -6.0725     1.8566 C.ar    
  22 C22            6.4963    -4.7616     1.7973 C.ar    
  23 C23            6.5860    -4.9174    -0.6146 C.ar    
  24 F24            6.6612    -4.0505     2.9341 F       
  25 F25            6.8372    -4.3571    -1.8181 F       
  26 C26           -1.2679    -0.7576     0.0106 C.2     
  27 O27           -2.2280    -0.3238     0.6173 O.2     
  28 N28           -1.3663    -1.9201    -0.6641 N.am    
  29 C29           -2.5840    -2.7407    -0.5806 C.3     
  30 C30           -3.0466    -3.0716    -2.0036 C.3     
  31 N31           -1.9360    -3.6819    -2.7466 N.3     
  32 C32           -0.8129    -2.7460    -2.8901 C.3     
  33 C33           -0.2611    -2.3988    -1.5084 C.3     
  34 C34           -2.3850    -4.1703    -4.0573 C.3     
  35 H35           -0.9439     1.9128    -0.1548 H       
  36 H36            1.2212    -1.7754     0.1771 H       
  37 H37            1.1492     3.1665    -0.1476 H       
  38 H38            4.0129     2.7507    -0.0057 H       
  39 H39            8.9348    -0.6571     0.4132 H       
  40 H40            8.8495     1.9013     0.2431 H       
  41 H41            5.3834    -1.9710     0.3581 H       
  42 H42            6.0166    -6.8041    -1.4399 H       
  43 H43            5.5536    -7.8262     0.7475 H       
  44 H44            5.8580    -6.5293     2.8137 H       
  45 H45           -2.3676    -3.6634    -0.0422 H       
  46 H46           -3.3651    -2.1852    -0.0616 H       
  47 H47           -3.8829    -3.7694    -1.9612 H       
  48 H48           -3.3609    -2.1566    -2.5058 H       
  49 H49           -0.0291    -3.2077    -3.4907 H       
  50 H50           -1.1583    -1.8356    -3.3800 H       
  51 H51            0.4950    -1.6192    -1.6013 H       
  52 H52            0.1789    -3.2875    -1.0559 H       
  53 H53           -2.7794    -3.3377    -4.6397 H       
  54 H54           -1.5433    -4.6173    -4.5863 H       
  55 H55           -3.1655    -4.9184    -3.9183 H       
@<TRIPOS>BOND
   1    1    2 ar
   2    1    6 ar
   3    1   35 1
   4    2    3 ar
   5    2   26 1
   6    3    4 ar
   7    3   36 1
   8    4    5 ar
   9    4    7 1
  10    5    6 ar
  11    5    9 1
  12    6   37 1
  13    7    8 2
  14    8    9 1
  15    8   10 1
  16    9   38 1
  17   10   11 1
  18   10   14 2
  19   11   12 2
  20   11   15 1
  21   12   13 1
  22   12   39 1
  23   13   14 1
  24   13   40 1
  25   15   16 am
  26   15   41 1
  27   16   17 1
  28   16   18 2
  29   17   22 ar
  30   17   23 ar
  31   19   20 ar
  32   19   23 ar
  33   19   42 1
  34   20   21 ar
  35   20   43 1
  36   21   22 ar
  37   21   44 1
  38   22   24 1
  39   23   25 1
  40   26   27 2
  41   26   28 am
  42   28   29 1
  43   28   33 1
  44   29   30 1
  45   29   45 1
  46   29   46 1
  47   30   31 1
  48   30   47 1
  49   30   48 1
  50   31   32 1
  51   31   34 1
  52   32   33 1
  53   32   49 1
  54   32   50 1
  55   33   51 1
  56   33   52 1
  57   34   53 1
  58   34   54 1
  59   34   55 1

#	End of record

