#	Name: ASD01120357
#	Creating user name:	WinNT
#	Creation time:	15. 06. 2019 18:59

#	Modifying user name:	WinNT
#	Modification time:	15. 06. 2019 18:59

#	Program:	/corina/corina34_cracker 3.40 0067  02.08.2006

@<TRIPOS>MOLECULE
ASD01120357
  43   45    0    0    0
SMALL
NO_CHARGES


@<TRIPOS>ATOM
   1 C1            -0.2602     1.1511    -0.0746 C.ar    
   2 C2            -0.1945    -0.2332     0.0195 C.ar    
   3 C3             1.0125    -0.8876    -0.0860 C.ar    
   4 C4             2.1800    -0.1574    -0.2894 C.ar    
   5 C5             2.1106     1.2466    -0.3850 C.ar    
   6 C6             0.8705     1.8886    -0.2739 C.ar    
   7 N7             3.4998    -0.5145    -0.4322 N.pl3   
   8 C8             4.2532     0.6297    -0.6140 C.2     
   9 C9             3.4316     1.7125    -0.5891 C.2     
  10 C10            3.8518     3.1508    -0.7501 C.3     
  11 C11            3.8115     3.5312    -2.2315 C.3     
  12 C12            4.2317     4.9694    -2.3925 C.2     
  13 O13            4.2718     5.5242    -3.6141 O.3     
  14 O14            4.5326     5.6231    -1.4219 O.2     
  15 C15            5.7093     0.6695    -0.8038 C.2     
  16 O16            6.2736     1.7356    -0.9555 O.2     
  17 O17            6.4200    -0.4764    -0.8097 O.3     
  18 C18            4.0219    -1.8828    -0.3969 C.3     
  19 C19            4.4726    -2.2126     1.0028 C.ar    
  20 C20            3.5479    -2.6063     1.9520 C.ar    
  21 C21            3.9613    -2.9087     3.2359 C.ar    
  22 C22            5.2995    -2.8179     3.5706 C.ar    
  23 C23            6.2243    -2.4251     2.6212 C.ar    
  24 C24            5.8114    -2.1268     1.3361 C.ar    
  25 N25            1.0685    -2.3631     0.0172 N.pl3   
  26 O26            1.5301    -3.0206    -0.8984 O.2     
  27 O27            0.6528    -2.9199     1.0175 O.2     
  28 H28           -1.2157     1.6480     0.0063 H       
  29 H29           -1.0990    -0.8019     0.1774 H       
  30 H30            0.8094     2.9644    -0.3464 H       
  31 H31            3.1709     3.7930    -0.1915 H       
  32 H32            4.8654     3.2779    -0.3698 H       
  33 H33            4.4925     2.8890    -2.7902 H       
  34 H34            2.7980     3.4040    -2.6118 H       
  35 H35            4.5475     6.4496    -3.6672 H       
  36 H36            7.3754    -0.3998    -0.9380 H       
  37 H37            3.2392    -2.5783    -0.6998 H       
  38 H38            4.8671    -1.9670    -1.0800 H       
  39 H39            2.5025    -2.6772     1.6905 H       
  40 H40            3.2388    -3.2156     3.9777 H       
  41 H41            5.6224    -3.0535     4.5739 H       
  42 H42            7.2697    -2.3538     2.8828 H       
  43 H43            6.5340    -1.8199     0.5944 H       
@<TRIPOS>BOND
   1    1    2 ar
   2    1    6 ar
   3    1   28 1
   4    2    3 ar
   5    2   29 1
   6    3   25 1
   7    3    4 ar
   8    4    5 ar
   9    4    7 1
  10    5    6 ar
  11    5    9 1
  12    6   30 1
  13    7    8 1
  14    7   18 1
  15    8    9 2
  16    8   15 1
  17    9   10 1
  18   10   11 1
  19   10   31 1
  20   10   32 1
  21   11   12 1
  22   11   33 1
  23   11   34 1
  24   12   13 1
  25   12   14 2
  26   13   35 1
  27   15   16 2
  28   15   17 1
  29   17   36 1
  30   18   19 1
  31   18   37 1
  32   18   38 1
  33   19   20 ar
  34   19   24 ar
  35   20   21 ar
  36   20   39 1
  37   21   22 ar
  38   21   40 1
  39   22   23 ar
  40   22   41 1
  41   23   24 ar
  42   23   42 1
  43   24   43 1
  44   25   26 2
  45   25   27 2

#	End of record

