#	Name: ASD01700006
#	Creating user name:	WinNT
#	Creation time:	15. 06. 2019 19:22

#	Modifying user name:	WinNT
#	Modification time:	15. 06. 2019 19:22

#	Program:	/corina/corina34_cracker 3.40 0067  02.08.2006

@<TRIPOS>MOLECULE
ASD01700006
  96  102    0    0    0
SMALL
NO_CHARGES


@<TRIPOS>ATOM
   1 C1             0.0988     1.1500     1.0150 C.3     
   2 N2            -0.1747    -0.2885     1.1321 N.3     
   3 C3            -1.6179    -0.5604     1.0362 C.3     
   4 C4             0.3600    -0.8246     2.3875 C.3     
   5 C5            -0.0100    -2.2772     2.5412 C.ar    
   6 C6            -1.0245    -2.8509     1.8018 C.ar    
   7 C7            -1.8142    -2.0569     0.7926 C.3     
   8 C8             0.6998    -3.0427     3.4565 C.ar    
   9 C9             0.4003    -4.3762     3.6388 C.ar    
  10 C10           -0.6275    -4.9625     2.8957 C.ar    
  11 C11           -1.3374    -4.1889     1.9762 C.ar    
  12 Cl12          -2.6167    -4.9062     1.0474 Cl      
  13 Cl13           1.2964    -5.3224     4.7858 Cl      
  14 C14           -0.9604    -6.3893     3.0822 C.2     
  15 N15           -0.2819    -7.3341     2.4015 N.am    
  16 O16           -1.8464    -6.7115     3.8497 O.2     
  17 C17           -0.5334    -8.7524     2.6690 C.3     
  18 C18            0.2485    -9.1807     3.8840 C.2     
  19 C19           -0.0961    -9.5844     1.4618 C.3     
  20 C20           -0.9601    -9.2412     0.2757 C.ar    
  21 C21           -0.6277    -8.1725    -0.5352 C.ar    
  22 C22           -2.0821    -9.9989    -0.0046 C.ar    
  23 C23           -2.8745    -9.6841    -1.0924 C.ar    
  24 C24           -2.5454    -8.6113    -1.9000 C.ar    
  25 C25           -1.4204    -7.8575    -1.6233 C.ar    
  26 O26            0.9444    -8.3832     4.4667 O.2     
  27 O27            0.1718   -10.4483     4.3189 O.3     
  28 C28            0.9519   -10.7901     5.4950 C.3     
  29 C29            0.7417   -12.2437     5.8321 C.ar    
  30 C30            1.5705   -13.2065     5.2871 C.ar    
  31 C31            1.3777   -14.5399     5.5963 C.ar    
  32 C32            0.3564   -14.9106     6.4510 C.ar    
  33 C33           -0.4718   -13.9477     6.9967 C.ar    
  34 C34           -0.2763   -12.6139     6.6909 C.ar    
  35 C35           -0.5893     1.8851     2.1363 C.ar    
  36 C36           -1.9068     2.2798     1.9980 C.ar    
  37 C37           -2.5380     2.9541     3.0265 C.ar    
  38 C38           -1.8517     3.2333     4.1935 C.ar    
  39 C39           -0.5344     2.8377     4.3323 C.ar    
  40 C40            0.0954     2.1596     3.3054 C.ar    
  41 C41            1.5848     1.3870     1.0964 C.ar    
  42 C42            2.0702     2.6622     1.3182 C.ar    
  43 C43            3.4333     2.8796     1.3928 C.ar    
  44 C44            4.3110     1.8218     1.2461 C.ar    
  45 C45            3.8256     0.5464     1.0253 C.ar    
  46 C46            2.4624     0.3283     0.9550 C.ar    
  47 S47           -4.3038   -10.6504    -1.4502 S.o2    
  48 O48           -4.4936   -10.4904    -2.8494 O.2     
  49 O49           -4.0145   -11.9243    -0.8911 O.2     
  50 C50           -5.6403    -9.8398    -0.5297 C.3     
  51 C51           -0.4185     1.6537    -0.3077 C.ar    
  52 C52           -0.5819     0.7780    -1.3648 C.ar    
  53 C53           -1.0564     1.2400    -2.5781 C.ar    
  54 C54           -1.3678     2.5778    -2.7344 C.ar    
  55 C55           -1.2053     3.4533    -1.6771 C.ar    
  56 C56           -0.7349     2.9905    -0.4624 C.ar    
  57 H57           -2.1072    -0.2736     1.9670 H       
  58 H58           -2.0427     0.0045     0.2065 H       
  59 H59            1.4458    -0.7281     2.3864 H       
  60 H60           -0.0499    -0.2585     3.2240 H       
  61 H61           -2.8719    -2.3029     0.8863 H       
  62 H62           -1.4735    -2.3079    -0.2119 H       
  63 H63            1.4943    -2.5895     4.0308 H       
  64 H64            0.3730    -7.0751     1.7345 H       
  65 H65           -1.5975    -8.9050     2.8493 H       
  66 H66            0.9457    -9.3656     1.2278 H       
  67 H67           -0.2016   -10.6443     1.6936 H       
  68 H68            0.2510    -7.5831    -0.3186 H       
  69 H69           -2.3392   -10.8369     0.6263 H       
  70 H70           -3.1643    -8.3655    -2.7502 H       
  71 H71           -1.1633    -7.0195    -2.2542 H       
  72 H72            2.0084   -10.6127     5.2943 H       
  73 H73            0.6329   -10.1725     6.3346 H       
  74 H74            2.3684   -12.9169     4.6193 H       
  75 H75            2.0248   -15.2922     5.1699 H       
  76 H76            0.2053   -15.9524     6.6920 H       
  77 H77           -1.2700   -14.2373     7.6642 H       
  78 H78           -0.9234   -11.8616     7.1173 H       
  79 H79           -2.4430     2.0617     1.0862 H       
  80 H80           -3.5671     3.2631     2.9181 H       
  81 H81           -2.3446     3.7607     4.9968 H       
  82 H82            0.0018     3.0561     5.2439 H       
  83 H83            1.1234     1.8473     3.4152 H       
  84 H84            1.3845     3.4887     1.4327 H       
  85 H85            3.8126     3.8760     1.5653 H       
  86 H86            5.3760     1.9917     1.3037 H       
  87 H87            4.5113    -0.2800     0.9104 H       
  88 H88            2.0830    -0.6687     0.7862 H       
  89 H89           -5.7475    -8.8115    -0.8748 H       
  90 H90           -6.5737   -10.3778    -0.6953 H       
  91 H91           -5.4027    -9.8432     0.5341 H       
  92 H92           -0.3385    -0.2671    -1.2427 H       
  93 H93           -1.1834     0.5560    -3.4042 H       
  94 H94           -1.7379     2.9389    -3.6826 H       
  95 H95           -1.4483     4.4985    -1.7992 H       
  96 H96           -0.6115     3.6738     0.3648 H       
@<TRIPOS>BOND
   1    1    2 1
   2    1   35 1
   3    1   41 1
   4    1   51 1
   5    2    3 1
   6    2    4 1
   7    3    7 1
   8    3   57 1
   9    3   58 1
  10    4    5 1
  11    4   59 1
  12    4   60 1
  13    5    6 ar
  14    5    8 ar
  15    6    7 1
  16    6   11 ar
  17    7   61 1
  18    7   62 1
  19    8    9 ar
  20    8   63 1
  21    9   10 ar
  22    9   13 1
  23   10   11 ar
  24   10   14 1
  25   11   12 1
  26   14   15 am
  27   14   16 2
  28   15   17 1
  29   15   64 1
  30   17   18 1
  31   17   19 1
  32   17   65 1
  33   18   26 2
  34   18   27 1
  35   19   20 1
  36   19   66 1
  37   19   67 1
  38   20   21 ar
  39   20   22 ar
  40   21   25 ar
  41   21   68 1
  42   22   23 ar
  43   22   69 1
  44   23   24 ar
  45   23   47 1
  46   24   25 ar
  47   24   70 1
  48   25   71 1
  49   27   28 1
  50   28   29 1
  51   28   72 1
  52   28   73 1
  53   29   30 ar
  54   29   34 ar
  55   30   31 ar
  56   30   74 1
  57   31   32 ar
  58   31   75 1
  59   32   33 ar
  60   32   76 1
  61   33   34 ar
  62   33   77 1
  63   34   78 1
  64   35   36 ar
  65   35   40 ar
  66   36   37 ar
  67   36   79 1
  68   37   38 ar
  69   37   80 1
  70   38   39 ar
  71   38   81 1
  72   39   40 ar
  73   39   82 1
  74   40   83 1
  75   41   42 ar
  76   41   46 ar
  77   42   43 ar
  78   42   84 1
  79   43   44 ar
  80   43   85 1
  81   44   45 ar
  82   44   86 1
  83   45   46 ar
  84   45   87 1
  85   46   88 1
  86   47   48 2
  87   47   49 2
  88   47   50 1
  89   50   89 1
  90   50   90 1
  91   50   91 1
  92   51   52 ar
  93   51   56 ar
  94   52   53 ar
  95   52   92 1
  96   53   54 ar
  97   53   93 1
  98   54   55 ar
  99   54   94 1
 100   55   56 ar
 101   55   95 1
 102   56   96 1

#	End of record

