#	Name: ASD01811263
#	Creating user name:	WinNT
#	Creation time:	15. 06. 2019 19:26

#	Modifying user name:	WinNT
#	Modification time:	15. 06. 2019 19:26

#	Program:	/corina/corina34_cracker 3.40 0067  02.08.2006

@<TRIPOS>MOLECULE
ASD01811263
  59   62    0    0    0
SMALL
NO_CHARGES


@<TRIPOS>ATOM
   1 C1            -7.3586     2.2284    -4.0005 C.1     
   2 C2            -6.3775     3.0185    -3.3194 C.ar    
   3 C3            -5.2092     2.4241    -2.8383 C.ar    
   4 C4            -4.2683     3.1911    -2.1831 C.ar    
   5 C5            -4.4804     4.5463    -2.0017 C.ar    
   6 C6            -5.6361     5.1416    -2.4754 C.ar    
   7 C7            -6.5822     4.3878    -3.1384 C.ar    
   8 N8            -8.1369     1.6017    -4.5408 N.1     
   9 N9            -2.4219     7.7924    -0.2281 N.am    
  10 C10           -1.8689     7.3011    -1.4976 C.3     
  11 C11           -2.9427     6.4798    -2.2181 C.3     
  12 C12           -3.4482     5.3777    -1.2844 C.3     
  13 C13           -4.0771     6.0094    -0.0404 C.3     
  14 C14           -3.0162     6.8254     0.7048 C.3     
  15 C15           -2.3797     9.1045     0.0772 C.2     
  16 C16           -3.0205     9.5954     1.3119 C.ar    
  17 C17           -3.9804    10.6119     1.2453 C.ar    
  18 C18           -4.5810    11.0738     2.3936 C.ar    
  19 C19           -4.2380    10.5334     3.6294 C.ar    
  20 C20           -3.2759     9.5123     3.7064 C.ar    
  21 C21           -2.6738     9.0424     2.5449 C.ar    
  22 O22           -1.8133     9.8835    -0.6650 O.2     
  23 S23           -5.0096    11.1298     5.0969 S.3     
  24 C24           -6.1055    12.3841     4.3883 C.3     
  25 C25           -4.3570    11.2027    -0.0889 C.3     
  26 N26           -2.8547     8.5717     7.1117 N.2     
  27 N27           -3.4000     9.2797     6.1879 N.2     
  28 C28           -2.9092     8.9362     5.0172 C.2     
  29 N29           -1.9947     7.9429     5.2433 N.pl3   
  30 C30           -1.9917     7.7421     6.5905 C.2     
  31 C31           -1.1475     6.7449     7.3416 C.3     
  32 C32           -0.3491     7.4683     8.4279 C.3     
  33 H33           -5.0427     1.3663    -2.9786 H       
  34 H34           -3.3642     2.7327    -1.8104 H       
  35 H35           -5.7955     6.1999    -2.3301 H       
  36 H36           -7.4817     4.8546    -3.5119 H       
  37 H37           -1.5765     8.1466    -2.1204 H       
  38 H38           -1.0004     6.6732    -1.2992 H       
  39 H39           -3.7722     7.1298    -2.4964 H       
  40 H40           -2.5160     6.0298    -3.1145 H       
  41 H41           -2.6137     4.7428    -0.9866 H       
  42 H42           -4.8960     6.6638    -0.3391 H       
  43 H43           -4.4579     5.2246     0.6132 H       
  44 H44           -2.2412     6.1587     1.0828 H       
  45 H45           -3.4808     7.3570     1.5353 H       
  46 H46           -5.3207    11.8586     2.3359 H       
  47 H47           -1.9366     8.2549     2.5973 H       
  48 H48           -5.5105    13.1327     3.8651 H       
  49 H49           -6.7931    11.9114     3.6870 H       
  50 H50           -6.6727    12.8635     5.1861 H       
  51 H51           -5.1253    10.5861    -0.5555 H       
  52 H52           -4.7403    12.2128     0.0562 H       
  53 H53           -3.4779    11.2367    -0.7324 H       
  54 H54           -1.4594     7.4783     4.5811 H       
  55 H55           -1.7925     5.9967     7.8022 H       
  56 H56           -0.4607     6.2566     6.6503 H       
  57 H57            0.2959     8.2166     7.9673 H       
  58 H58           -1.0359     7.9567     9.1192 H       
  59 H59            0.2615     6.7471     8.9711 H       
@<TRIPOS>BOND
   1    1    2 1
   2    1    8 3
   3    2    3 ar
   4    2    7 ar
   5    3    4 ar
   6    3   33 1
   7    4    5 ar
   8    4   34 1
   9    5    6 ar
  10    5   12 1
  11    6    7 ar
  12    6   35 1
  13    7   36 1
  14    9   10 1
  15    9   14 1
  16    9   15 am
  17   10   11 1
  18   10   37 1
  19   10   38 1
  20   11   12 1
  21   11   39 1
  22   11   40 1
  23   12   13 1
  24   12   41 1
  25   13   14 1
  26   13   42 1
  27   13   43 1
  28   14   44 1
  29   14   45 1
  30   15   16 1
  31   15   22 2
  32   16   17 ar
  33   16   21 ar
  34   17   18 ar
  35   17   25 1
  36   18   19 ar
  37   18   46 1
  38   19   20 ar
  39   19   23 1
  40   20   21 ar
  41   20   28 1
  42   21   47 1
  43   23   24 1
  44   24   48 1
  45   24   49 1
  46   24   50 1
  47   25   51 1
  48   25   52 1
  49   25   53 1
  50   26   27 1
  51   26   30 2
  52   27   28 2
  53   28   29 1
  54   29   30 1
  55   29   54 1
  56   30   31 1
  57   31   32 1
  58   31   55 1
  59   31   56 1
  60   32   57 1
  61   32   58 1
  62   32   59 1

#	End of record

