#	Name: ASD08170187
#	Creating user name:	WinNT
#	Creation time:	15. 06. 2019 21:17

#	Modifying user name:	WinNT
#	Modification time:	15. 06. 2019 21:17

#	Program:	/corina/corina34_cracker 3.40 0067  02.08.2006

@<TRIPOS>MOLECULE
ASD08170187
  66   69    0    0    0
SMALL
NO_CHARGES


@<TRIPOS>ATOM
   1 N1            -0.0150     1.2583     0.0090 N.2     
   2 N2             0.0021    -0.0041     0.0020 N.2     
   3 C3             1.1271     1.8769     0.0014 C.2     
   4 S4             2.3826     0.7116    -0.0169 S.3     
   5 C5             1.1681    -0.5677    -0.0121 C.2     
   6 C6             1.4387    -2.0502    -0.0227 C.3     
   7 C7             1.5165    -2.5442    -1.4687 C.3     
   8 C8             1.7912    -4.0493    -1.4794 C.3     
   9 C9             1.8690    -4.5432    -2.9254 C.3     
  10 C10            2.1395    -6.0257    -2.9359 C.2     
  11 N11            1.2478    -6.9651    -2.9329 N.2     
  12 S12            3.7275    -6.7933    -2.9623 S.3     
  13 C13            2.9647    -8.3272    -2.9581 C.2     
  14 N14            1.6777    -8.1521    -2.9433 N.2     
  15 N15            3.6154    -9.5562    -2.9730 N.am    
  16 C16            2.8993   -10.6980    -2.9678 C.2     
  17 O17            1.6874   -10.6536    -2.9501 O.2     
  18 C18            3.6044   -12.0297    -2.9839 C.3     
  19 N19            1.3017     3.2566     0.0067 N.am    
  20 C20            0.2284     4.0717     0.0214 C.2     
  21 O21           -0.8897     3.6019     0.0299 O.2     
  22 C22            0.4176     5.5667     0.0272 C.3     
  23 C23           -0.9288     6.2434     0.0438 C.ar    
  24 C24           -1.2877     7.0939    -0.9852 C.ar    
  25 C25           -1.8072     6.0093     1.0852 C.ar    
  26 C26           -3.0423     6.6300     1.1005 C.ar    
  27 C27           -3.3987     7.4852     0.0746 C.ar    
  28 C28           -2.5227     7.7147    -0.9699 C.ar    
  29 C29            2.5840   -13.1386    -2.9741 C.ar    
  30 C30            1.2094     5.9758     1.2708 C.3     
  31 O31            2.5273     5.4282     1.1979 O.3     
  32 C32            2.5713   -14.0572    -1.9411 C.ar    
  33 C33            1.6352   -15.0743    -1.9322 C.ar    
  34 C34            0.7116   -15.1727    -2.9560 C.ar    
  35 C35            0.7237   -14.2536    -3.9885 C.ar    
  36 C36            1.6570   -13.2339    -3.9952 C.ar    
  37 C37            4.4624   -12.1373    -4.2461 C.3     
  38 O38            5.5030   -11.1591    -4.1995 O.3     
  39 H39            2.3843    -2.2506     0.4811 H       
  40 H40            0.6334    -2.5702     0.4961 H       
  41 H41            0.5709    -2.3438    -1.9724 H       
  42 H42            2.3218    -2.0242    -1.9874 H       
  43 H43            2.7368    -4.2496    -0.9756 H       
  44 H44            0.9858    -4.5693    -0.9606 H       
  45 H45            0.9234    -4.3429    -3.4291 H       
  46 H46            2.6743    -4.0232    -3.4441 H       
  47 H47            4.5846    -9.5917    -2.9871 H       
  48 H48            4.2413   -12.1143    -2.1034 H       
  49 H49            2.1959     3.6323    -0.0001 H       
  50 H50            0.9643     5.8672    -0.8667 H       
  51 H51           -0.6031     7.2737    -1.8008 H       
  52 H52           -1.5287     5.3411     1.8867 H       
  53 H53           -3.7288     6.4465     1.9137 H       
  54 H54           -4.3638     7.9699     0.0864 H       
  55 H55           -2.8012     8.3828    -1.7714 H       
  56 H56            1.2699     7.0629     1.3217 H       
  57 H57            0.7077     5.5978     2.1616 H       
  58 H58            3.0869     5.6477     1.9553 H       
  59 H59            3.2929   -13.9803    -1.1413 H       
  60 H60            1.6258   -15.7924    -1.1255 H       
  61 H61           -0.0193   -15.9678    -2.9494 H       
  62 H62            0.0023   -14.3306    -4.7885 H       
  63 H63            1.6665   -12.5158    -4.8018 H       
  64 H64            4.9020   -13.1331    -4.3028 H       
  65 H65            3.8401   -11.9643    -5.1242 H       
  66 H66            6.0874   -11.1695    -4.9699 H       
@<TRIPOS>BOND
   1    1    2 1
   2    1    3 2
   3    2    5 2
   4    3    4 1
   5    3   19 1
   6    4    5 1
   7    5    6 1
   8    6    7 1
   9    6   39 1
  10    6   40 1
  11    7    8 1
  12    7   41 1
  13    7   42 1
  14    8    9 1
  15    8   43 1
  16    8   44 1
  17    9   10 1
  18    9   45 1
  19    9   46 1
  20   10   11 2
  21   10   12 1
  22   11   14 1
  23   12   13 1
  24   13   14 2
  25   13   15 1
  26   15   16 am
  27   15   47 1
  28   16   17 2
  29   16   18 1
  30   18   29 1
  31   18   37 1
  32   18   48 1
  33   19   20 am
  34   19   49 1
  35   20   21 2
  36   20   22 1
  37   22   23 1
  38   22   30 1
  39   22   50 1
  40   23   24 ar
  41   23   25 ar
  42   24   28 ar
  43   24   51 1
  44   25   26 ar
  45   25   52 1
  46   26   27 ar
  47   26   53 1
  48   27   28 ar
  49   27   54 1
  50   28   55 1
  51   29   32 ar
  52   29   36 ar
  53   30   31 1
  54   30   56 1
  55   30   57 1
  56   31   58 1
  57   32   33 ar
  58   32   59 1
  59   33   34 ar
  60   33   60 1
  61   34   35 ar
  62   34   61 1
  63   35   36 ar
  64   35   62 1
  65   36   63 1
  66   37   38 1
  67   37   64 1
  68   37   65 1
  69   38   66 1

#	End of record

