#	Name: ASD01590001
#	Creating user name:	WinNT
#	Creation time:	15. 06. 2019 19:22

#	Modifying user name:	WinNT
#	Modification time:	15. 06. 2019 19:22

#	Program:	/corina/corina34_cracker 3.40 0067  02.08.2006

@<TRIPOS>MOLECULE
ASD01590001
  33   34    0    0    0
SMALL
NO_CHARGES


@<TRIPOS>ATOM
   1 C1            -1.1831    -0.5994     0.9804 C.ar    
   2 C2            -0.0215    -0.0410     0.4452 C.ar    
   3 C3            -0.0685     1.1906    -0.1971 C.ar    
   4 C4            -1.2612     1.8678    -0.3090 C.ar    
   5 C5            -2.4338     1.3141     0.2259 C.ar    
   6 C6            -2.3853     0.0680     0.8685 C.ar    
   7 O7            -1.1309    -1.8048     1.6078 O.3     
   8 O8             1.1588    -0.7029     0.5528 O.3     
   9 C9            -3.7043     2.0313     0.1094 C.2     
  10 C10           -4.8891     1.3284     0.0355 C.2     
  11 C11           -6.1723     2.0444     0.0749 C.2     
  12 O12           -6.1940     3.2432     0.2838 O.2     
  13 C13           -7.4344     1.3095    -0.1389 C.ar    
  14 C14           -8.6159     1.7592     0.4563 C.ar    
  15 C15           -9.7935     1.0721     0.2552 C.ar    
  16 C16           -9.8094    -0.0673    -0.5376 C.ar    
  17 C17           -8.6336    -0.5217    -1.1347 C.ar    
  18 C18           -7.4514     0.1652    -0.9422 C.ar    
  19 O19           -8.6527    -1.6383    -1.9108 O.3     
  20 O20          -10.9722    -0.7413    -0.7319 O.3     
  21 C21           -4.8688    -0.0989    -0.0796 C.1     
  22 N22           -4.8527    -1.2311    -0.1709 N.1     
  23 H23            0.8338     1.6177    -0.6092 H       
  24 H24           -1.2944     2.8250    -0.8081 H       
  25 H25           -3.2848    -0.3633     1.2823 H       
  26 H26           -0.9574    -1.7468     2.5573 H       
  27 H27            1.3425    -1.3016    -0.1841 H       
  28 H28           -3.7143     3.1109     0.0812 H       
  29 H29           -8.6062     2.6449     1.0741 H       
  30 H30          -10.7060     1.4207     0.7158 H       
  31 H31           -6.5403    -0.1856    -1.4039 H       
  32 H32           -8.8271    -1.4644    -2.8459 H       
  33 H33          -11.4782    -0.4397    -1.4987 H       
@<TRIPOS>BOND
   1    1    2 ar
   2    1    7 1
   3    1    6 ar
   4    2    3 ar
   5    2    8 1
   6    3    4 ar
   7    3   23 1
   8    4    5 ar
   9    4   24 1
  10    5    6 ar
  11    5    9 1
  12    6   25 1
  13    7   26 1
  14    8   27 1
  15    9   10 2
  16    9   28 1
  17   10   11 1
  18   10   21 1
  19   11   12 2
  20   11   13 1
  21   13   14 ar
  22   13   18 ar
  23   14   15 ar
  24   14   29 1
  25   15   16 ar
  26   15   30 1
  27   16   17 ar
  28   16   20 1
  29   17   18 ar
  30   17   19 1
  31   18   31 1
  32   19   32 1
  33   20   33 1
  34   21   22 3

#	End of record

