#	Name: ASD03331048
#	Creating user name:	WinNT
#	Creation time:	15. 06. 2019 20:38

#	Modifying user name:	WinNT
#	Modification time:	15. 06. 2019 20:38

#	Program:	/corina/corina34_cracker 3.40 0067  02.08.2006

@<TRIPOS>MOLECULE
ASD03331048
  53   55    0    0    0
SMALL
NO_CHARGES


@<TRIPOS>ATOM
   1 C1            -0.0989     1.1685     0.6112 C.ar    
   2 C2            -0.0835    -0.2992     0.4321 C.2     
   3 N3            -1.1666    -1.1163     0.4868 N.pl3   
   4 C4            -0.7291    -2.3924     0.2722 C.2     
   5 C5             0.6116    -2.3306     0.0885 C.2     
   6 N6             0.9806    -1.0320     0.1874 N.2     
   7 C7             1.5063    -3.4710    -0.1766 C.2     
   8 N8             2.8283    -3.2664    -0.3404 N.am    
   9 C9             0.5848     1.9916    -0.2872 C.ar    
  10 O10            1.0517    -4.5969    -0.2476 O.2     
  11 C11            3.7178    -4.4002    -0.6040 C.3     
  12 C12            3.7278    -4.7028    -2.1038 C.3     
  13 C13            5.1141    -4.0591    -0.1511 C.2     
  14 C14            4.1138    -3.4398    -2.8763 C.3     
  15 C15           -2.5737    -0.7815     0.7237 C.3     
  16 C16           -3.4280    -1.9769     0.2803 C.3     
  17 O17           -2.8976    -3.1846     0.8329 O.3     
  18 C18           -1.6446    -3.5896     0.2615 C.3     
  19 O19            5.4822    -2.9036    -0.1384 O.2     
  20 N20            5.9538    -5.0382     0.2398 N.am    
  21 C21            7.2708    -4.6994     0.7846 C.3     
  22 C22            4.7441    -5.8089    -2.3942 C.3     
  23 C23            2.3353    -5.1621    -2.5406 C.3     
  24 C24            0.5666     3.3629    -0.1153 C.ar    
  25 C25           -0.1274     3.9209     0.9448 C.ar    
  26 C26           -0.8080     3.1074     1.8406 C.ar    
  27 C27           -0.8013     1.7369     1.6750 C.ar    
  28 F28           -0.1420     5.2619     1.1083 F       
  29 F29           -1.4826     3.6584     2.8734 F       
  30 F30            1.2627     1.4481    -1.3218 F       
  31 H31            3.1908    -2.3685    -0.2838 H       
  32 H32            3.3627    -5.2750    -0.0593 H       
  33 H33            5.1059    -3.1125    -2.5651 H       
  34 H34            4.1209    -3.6553    -3.9447 H       
  35 H35            3.3898    -2.6517    -2.6694 H       
  36 H36           -2.7328    -0.5885     1.7846 H       
  37 H37           -2.8451     0.1005     0.1435 H       
  38 H38           -4.4520    -1.8389     0.6274 H       
  39 H39           -3.4215    -2.0431    -0.8077 H       
  40 H40           -1.7979    -3.9285    -0.7631 H       
  41 H41           -1.2095    -4.3928     0.8561 H       
  42 H42            5.6861    -5.9671     0.1604 H       
  43 H43            7.8034    -5.6146     1.0433 H       
  44 H44            7.8411    -4.1456     0.0388 H       
  45 H45            7.1479    -4.0860     1.6772 H       
  46 H46            4.4388    -6.7248    -1.8884 H       
  47 H47            4.7916    -5.9857    -3.4687 H       
  48 H48            5.7261    -5.5041    -2.0324 H       
  49 H49            1.6112    -4.3741    -2.3337 H       
  50 H50            2.3424    -5.3776    -3.6091 H       
  51 H51            2.0602    -6.0619    -1.9903 H       
  52 H52            1.0950     4.0002    -0.8089 H       
  53 H53           -1.3314     1.1051     2.3723 H       
@<TRIPOS>BOND
   1    1    2 1
   2    1    9 ar
   3    1   27 ar
   4    2    3 1
   5    2    6 2
   6    3    4 1
   7    3   15 1
   8    4    5 2
   9    4   18 1
  10    5    6 1
  11    5    7 1
  12    7    8 am
  13    7   10 2
  14    8   11 1
  15    8   31 1
  16    9   24 ar
  17    9   30 1
  18   11   12 1
  19   11   13 1
  20   11   32 1
  21   12   14 1
  22   12   22 1
  23   12   23 1
  24   13   19 2
  25   13   20 am
  26   14   33 1
  27   14   34 1
  28   14   35 1
  29   15   16 1
  30   15   36 1
  31   15   37 1
  32   16   17 1
  33   16   38 1
  34   16   39 1
  35   17   18 1
  36   18   40 1
  37   18   41 1
  38   20   21 1
  39   20   42 1
  40   21   43 1
  41   21   44 1
  42   21   45 1
  43   22   46 1
  44   22   47 1
  45   22   48 1
  46   23   49 1
  47   23   50 1
  48   23   51 1
  49   24   25 ar
  50   24   52 1
  51   25   26 ar
  52   25   28 1
  53   26   27 ar
  54   26   29 1
  55   27   53 1

#	End of record

