#	Name: ASD01884183
#	Creating user name:	WinNT
#	Creation time:	15. 06. 2019 19:47

#	Modifying user name:	WinNT
#	Modification time:	15. 06. 2019 19:47

#	Program:	/corina/corina34_cracker 3.40 0067  02.08.2006

@<TRIPOS>MOLECULE
ASD01884183
  36   39    0    0    0
SMALL
NO_CHARGES


@<TRIPOS>ATOM
   1 C1            -0.0180     1.4770     0.0102 C.ar    
   2 C2             0.0021    -0.0041     0.0020 C.ar    
   3 C3             0.7767    -0.6954    -0.9315 C.ar    
   4 C4             0.7991    -2.0674    -0.9444 C.ar    
   5 C5             0.0452    -2.8107    -0.0212 C.ar    
   6 C6            -0.7247    -2.1054     0.9072 C.ar    
   7 C7            -0.7478    -0.7253     0.9301 C.ar    
   8 N8            -0.0378    -4.1856     0.0945 N.am    
   9 C9            -0.8176    -4.7036     1.0480 C.2     
  10 S10           -1.5321    -3.3257     1.9018 S.3     
  11 C11            0.7141    -5.0579    -0.8110 C.3     
  12 C12            2.0902    -5.3518    -0.2103 C.3     
  13 C13            2.9874    -6.3446    -0.9521 C.3     
  14 O14           -0.9999    -5.8839     1.2828 O.2     
  15 C15            3.3167    -4.8506    -0.9754 C.3     
  16 F16            3.0941    -4.1586    -2.1707 F       
  17 F17            4.4151    -4.4194    -0.2239 F       
  18 C18            1.1882     2.2014     0.0025 C.ar    
  19 C19            1.1534     3.5968     0.0099 C.ar    
  20 C20           -0.0580     4.2556     0.0245 C.ar    
  21 C21           -1.2449     3.5411     0.0320 C.ar    
  22 C22           -1.2307     2.1612     0.0196 C.ar    
  23 C23            2.4431     1.5117    -0.0122 C.1     
  24 N24            3.4386     0.9646    -0.0239 N.1     
  25 H25            1.3641    -0.1445    -1.6511 H       
  26 H26            1.4047    -2.5831    -1.6750 H       
  27 H27           -1.3519    -0.2058     1.6592 H       
  28 H28            0.1709    -5.9927    -0.9494 H       
  29 H29            0.8364    -4.5627    -1.7743 H       
  30 H30            2.1388    -5.3459     0.8786 H       
  31 H31            3.6266    -6.9915    -0.3513 H       
  32 H32            2.5974    -6.7883    -1.8681 H       
  33 H33            2.0748     4.1603     0.0045 H       
  34 H34           -0.0816     5.3353     0.0305 H       
  35 H35           -2.1878     4.0677     0.0435 H       
  36 H36           -2.1604     1.6117     0.0252 H       
@<TRIPOS>BOND
   1    1    2 1
   2    1   18 ar
   3    1   22 ar
   4    2    3 ar
   5    2    7 ar
   6    3    4 ar
   7    3   25 1
   8    4    5 ar
   9    4   26 1
  10    5    6 ar
  11    5    8 1
  12    6    7 ar
  13    6   10 1
  14    7   27 1
  15    8    9 am
  16    8   11 1
  17    9   10 1
  18    9   14 2
  19   11   12 1
  20   11   28 1
  21   11   29 1
  22   12   13 1
  23   12   15 1
  24   12   30 1
  25   13   15 1
  26   13   31 1
  27   13   32 1
  28   15   16 1
  29   15   17 1
  30   18   19 ar
  31   18   23 1
  32   19   20 ar
  33   19   33 1
  34   20   21 ar
  35   20   34 1
  36   21   22 ar
  37   21   35 1
  38   22   36 1
  39   23   24 3

#	End of record

