#	Name: ASD02690057
#	Creating user name:	WinNT
#	Creation time:	15. 06. 2019 20:26

#	Modifying user name:	WinNT
#	Modification time:	15. 06. 2019 20:26

#	Program:	/corina/corina34_cracker 3.40 0067  02.08.2006

@<TRIPOS>MOLECULE
ASD02690057
  32   33    0    0    0
SMALL
NO_CHARGES


@<TRIPOS>ATOM
   1 C1            -0.0144     1.2087     0.0087 C.2     
   2 O2             0.0021    -0.0041     0.0020 O.2     
   3 N3             4.0242     2.2109    -0.8694 N.3     
   4 C4             3.7186     1.8800     0.5283 C.3     
   5 C5             2.3950     1.1148     0.5951 C.3     
   6 C6             1.2803     1.9799     0.0005 C.3     
   7 C7             1.6459     2.3507    -1.4395 C.3     
   8 C8             2.9913     3.0801    -1.4473 C.3     
   9 C9            -1.3280     3.3243     0.0264 C.ar    
  10 C10           -1.2962     1.9257     0.0187 C.ar    
  11 C11           -2.5100     1.2177     0.0201 C.ar    
  12 C12           -3.6798     1.9289     0.0291 C.ar    
  13 C13           -3.6344     3.3199     0.0365 C.ar    
  14 N14           -2.4773     3.9654     0.0345 N.ar    
  15 O15           -4.7911     4.0248     0.0453 O.3     
  16 C16           -4.6825     5.4496     0.0526 C.3     
  17 H17            4.9376     2.6318    -0.9500 H       
  18 H18            4.5170     1.2612     0.9379 H       
  19 H19            3.6369     2.7985     1.1094 H       
  20 H20            2.4805     0.1894     0.0256 H       
  21 H21            2.1607     0.8830     1.6341 H       
  22 H22            1.1676     2.8872     0.5938 H       
  23 H23            1.7196     1.4447    -2.0410 H       
  24 H24            0.8765     3.0019    -1.8541 H       
  25 H25            2.9129     3.9930    -0.8570 H       
  26 H26            3.2613     3.3329    -2.4726 H       
  27 H27           -0.4029     3.8816     0.0299 H       
  28 H28           -2.5198     0.1378     0.0139 H       
  29 H29           -4.6297     1.4150     0.0301 H       
  30 H30           -5.6795     5.8900     0.0594 H       
  31 H31           -4.1386     5.7680     0.9420 H       
  32 H32           -4.1464     5.7777    -0.8379 H       
@<TRIPOS>BOND
   1    1    2 2
   2    1    6 1
   3    1   10 1
   4    3    4 1
   5    3    8 1
   6    3   17 1
   7    4    5 1
   8    4   18 1
   9    4   19 1
  10    5    6 1
  11    5   20 1
  12    5   21 1
  13    6    7 1
  14    6   22 1
  15    7    8 1
  16    7   23 1
  17    7   24 1
  18    8   25 1
  19    8   26 1
  20    9   10 ar
  21    9   14 ar
  22    9   27 1
  23   10   11 ar
  24   11   12 ar
  25   11   28 1
  26   12   13 ar
  27   12   29 1
  28   13   14 ar
  29   13   15 1
  30   15   16 1
  31   16   30 1
  32   16   31 1
  33   16   32 1

#	End of record

