#	Name: ASD01916736
#	Creating user name:	WinNT
#	Creation time:	15. 06. 2019 20:07

#	Modifying user name:	WinNT
#	Modification time:	15. 06. 2019 20:07

#	Program:	/corina/corina34_cracker 3.40 0067  02.08.2006

@<TRIPOS>MOLECULE
ASD01916736
  36   37    0    0    0
SMALL
NO_CHARGES


@<TRIPOS>ATOM
   1 C1            -0.0557     1.4818     0.2614 C.2     
   2 C2            -0.0597    -0.0251     0.2489 C.3     
   3 C3             1.3501    -0.5413     0.5438 C.3     
   4 C4             1.3462    -2.0132     0.5316 C.1     
   5 C5             1.3432    -3.1872     0.5218 C.1     
   6 O6             0.9734     2.0837     0.4843 O.2     
   7 N7            -1.1946     2.1607     0.0195 N.am    
   8 C8             1.3394    -4.6191     0.5099 C.ar    
   9 C9             2.5227    -5.3167     0.7555 C.ar    
  10 C10            2.5027    -6.6999     0.7405 C.ar    
  11 C11            1.3002    -7.3428     0.4805 C.ar    
  12 C12            0.1647    -6.5896     0.2456 C.ar    
  13 N13            0.2086    -5.2731     0.2707 N.ar    
  14 C14           -2.4108     1.4386    -0.3622 C.3     
  15 C15           -1.2153     3.5552     0.1328 C.ar    
  16 C16           -0.4996     4.3368    -0.7646 C.ar    
  17 C17           -0.5222     5.7140    -0.6499 C.ar    
  18 C18           -1.2573     6.3134     0.3582 C.ar    
  19 C19           -1.9704     5.5371     1.2526 C.ar    
  20 C20           -1.9562     4.1604     1.1393 C.ar    
  21 Cl21           0.3724     6.6925    -1.7705 Cl      
  22 H22           -0.7479    -0.3930     1.0099 H       
  23 H23           -0.3787    -0.3795    -0.7313 H       
  24 H24            2.0383    -0.1734    -0.2172 H       
  25 H25            1.6691    -0.1869     1.5240 H       
  26 H26            3.4412    -4.7843     0.9540 H       
  27 H27            3.4028    -7.2670     0.9266 H       
  28 H28            1.2520    -8.4215     0.4615 H       
  29 H29           -0.7720    -7.0874     0.0427 H       
  30 H30           -2.9732     1.1752     0.5336 H       
  31 H31           -3.0239     2.0727    -1.0027 H       
  32 H32           -2.1403     0.5308    -0.9014 H       
  33 H33            0.0743     3.8691    -1.5510 H       
  34 H34           -1.2734     7.3897     0.4465 H       
  35 H35           -2.5427     6.0077     2.0383 H       
  36 H36           -2.5173     3.5551     1.8358 H       
@<TRIPOS>BOND
   1    1    2 1
   2    1    6 2
   3    1    7 am
   4    2    3 1
   5    2   22 1
   6    2   23 1
   7    3    4 1
   8    3   24 1
   9    3   25 1
  10    4    5 3
  11    5    8 1
  12    7   14 1
  13    7   15 1
  14    8    9 ar
  15    8   13 ar
  16    9   10 ar
  17    9   26 1
  18   10   11 ar
  19   10   27 1
  20   11   12 ar
  21   11   28 1
  22   12   13 ar
  23   12   29 1
  24   14   30 1
  25   14   31 1
  26   14   32 1
  27   15   16 ar
  28   15   20 ar
  29   16   17 ar
  30   16   33 1
  31   17   18 ar
  32   17   21 1
  33   18   19 ar
  34   18   34 1
  35   19   20 ar
  36   19   35 1
  37   20   36 1

#	End of record

