#	Name: ASD03330732
#	Creating user name:	WinNT
#	Creation time:	15. 06. 2019 20:37

#	Modifying user name:	WinNT
#	Modification time:	15. 06. 2019 20:37

#	Program:	/corina/corina34_cracker 3.40 0067  02.08.2006

@<TRIPOS>MOLECULE
ASD03330732
  61   64    0    0    0
SMALL
NO_CHARGES


@<TRIPOS>ATOM
   1 C1            -0.0027     1.3581    -0.1268 C.2     
   2 N2             0.0179     0.0075    -0.2185 N.pl3   
   3 C3             1.2716     1.7629     0.1341 C.2     
   4 N4             2.0520     0.6614     0.1805 N.2     
   5 C5             1.3078    -0.3976    -0.0361 C.2     
   6 C6             1.7873    -1.7968    -0.0750 C.ar    
   7 C7             1.7187     3.1534     0.3297 C.2     
   8 O8             0.9166     4.0652     0.2628 O.2     
   9 C9             3.4609     4.7971     0.7772 C.3     
  10 N10            3.0164     3.4147     0.5828 N.am    
  11 C11            3.2466     5.2010     2.2373 C.3     
  12 C12            4.0540     4.2729     3.1470 C.3     
  13 C13            3.7108     6.6447     2.4404 C.3     
  14 C14            4.9244     4.9070     0.4352 C.2     
  15 N15            5.4900     5.8464    -0.2838 N.2     
  16 C16           -1.1491    -0.8464    -0.4567 C.3     
  17 C17           -1.9664    -0.2694    -1.6166 C.3     
  18 C18           -2.9660     0.7525    -1.0842 C.3     
  19 N19           -2.4181     1.4730     0.0670 N.3     
  20 C20           -1.2158     2.2344    -0.3027 C.3     
  21 C21            1.7607     5.0894     2.5845 C.3     
  22 C22            3.0793    -2.0824    -0.5173 C.ar    
  23 C23            0.9513    -2.8354     0.3357 C.ar    
  24 C24            1.4044    -4.1381     0.2970 C.ar    
  25 C25            2.6847    -4.4153    -0.1480 C.ar    
  26 C26            3.5205    -3.3893    -0.5513 C.ar    
  27 C27            6.7979     5.5354    -0.3217 C.2     
  28 N28            6.9581     4.4430     0.3635 N.2     
  29 O29            5.8949     4.0688     0.8117 O.3     
  30 C30            7.8790     6.3111    -1.0293 C.3     
  31 C31           -3.4311     2.3490     0.6706 C.3     
  32 H32            2.8857     5.4582     0.1291 H       
  33 H33            3.6561     2.6875     0.6361 H       
  34 H34            5.1126     4.3524     2.8997 H       
  35 H35            3.9014     4.5607     4.1872 H       
  36 H36            3.7233     3.2444     3.0023 H       
  37 H37            3.1356     7.3059     1.7923 H       
  38 H38            3.5581     6.9325     3.4806 H       
  39 H39            4.7694     6.7242     2.1931 H       
  40 H40           -0.8179    -1.8535    -0.7101 H       
  41 H41           -1.7653    -0.8800     0.4418 H       
  42 H42           -1.2961     0.2151    -2.3266 H       
  43 H43           -2.5034    -1.0747    -2.1177 H       
  44 H44           -3.2029     1.4662    -1.8733 H       
  45 H45           -3.8782     0.2375    -0.7830 H       
  46 H46           -1.1281     3.1111     0.3391 H       
  47 H47           -1.2898     2.5495    -1.3435 H       
  48 H48            1.4300     4.0609     2.4398 H       
  49 H49            1.6080     5.3772     3.6247 H       
  50 H50            1.1855     5.7506     1.9364 H       
  51 H51            3.7326    -1.2823    -0.8327 H       
  52 H52           -0.0482    -2.6202     0.6836 H       
  53 H53            0.7583    -4.9430     0.6150 H       
  54 H54            3.0348    -5.4366    -0.1761 H       
  55 H55            4.5188    -3.6122    -0.8980 H       
  56 H56            8.2965     7.0545    -0.3502 H       
  57 H57            8.6661     5.6282    -1.3490 H       
  58 H58            7.4562     6.8116    -1.9004 H       
  59 H59           -4.2778     1.7491     1.0044 H       
  60 H60           -2.9978     2.8719     1.5232 H       
  61 H61           -3.7694     3.0758    -0.0678 H       
@<TRIPOS>BOND
   1    1    2 1
   2    1    3 2
   3    1   20 1
   4    2   16 1
   5    2    5 1
   6    3    4 1
   7    3    7 1
   8    4    5 2
   9    5    6 1
  10    6   23 ar
  11    6   22 ar
  12    7    8 2
  13    7   10 am
  14    9   10 1
  15    9   11 1
  16    9   14 1
  17    9   32 1
  18   10   33 1
  19   11   12 1
  20   11   13 1
  21   11   21 1
  22   12   34 1
  23   12   35 1
  24   12   36 1
  25   13   37 1
  26   13   38 1
  27   13   39 1
  28   14   15 2
  29   14   29 1
  30   15   27 1
  31   16   17 1
  32   16   40 1
  33   16   41 1
  34   17   18 1
  35   17   42 1
  36   17   43 1
  37   18   19 1
  38   18   44 1
  39   18   45 1
  40   19   20 1
  41   19   31 1
  42   20   46 1
  43   20   47 1
  44   21   48 1
  45   21   49 1
  46   21   50 1
  47   22   26 ar
  48   22   51 1
  49   23   24 ar
  50   23   52 1
  51   24   25 ar
  52   24   53 1
  53   25   26 ar
  54   25   54 1
  55   26   55 1
  56   27   28 2
  57   27   30 1
  58   28   29 1
  59   30   56 1
  60   30   57 1
  61   30   58 1
  62   31   59 1
  63   31   60 1
  64   31   61 1

#	End of record

