#	Name: ASD00122084
#	Creating user name:	WinNT
#	Creation time:	15. 06. 2019 18:31

#	Modifying user name:	WinNT
#	Modification time:	15. 06. 2019 18:31

#	Program:	/corina/corina34_cracker 3.40 0067  02.08.2006

@<TRIPOS>MOLECULE
ASD00122084
  31   33    0    0    0
SMALL
NO_CHARGES


@<TRIPOS>ATOM
   1 C1            -0.0169     1.3930     0.0097 C.ar    
   2 C2             0.0021    -0.0041     0.0020 C.ar    
   3 N3            -1.1591    -0.6714     0.0102 N.ar    
   4 C4            -2.3062    -0.0335     0.0252 C.ar    
   5 N5            -2.3778     1.2856     0.0326 N.ar    
   6 C6            -1.2835     2.0319     0.0307 C.ar    
   7 C7             1.3207     1.9548    -0.0001 C.2     
   8 C8             2.2944     1.0653    -0.0141 C.2     
   9 S9             1.6654    -0.5715    -0.0169 S.3     
  10 N10           -1.3743     3.4121     0.0385 N.pl3   
  11 C11           -2.6883     4.0597     0.0490 C.3     
  12 C12           -2.5108     5.5562     0.0560 C.ar    
  13 C13           -2.4358     6.2489    -1.1379 C.ar    
  14 C14           -2.2729     7.6216    -1.1315 C.ar    
  15 C15           -2.1854     8.3017     0.0688 C.ar    
  16 C16           -2.2613     7.6091     1.2627 C.ar    
  17 C17           -2.4286     6.2369     1.2563 C.ar    
  18 C18            3.7610     1.4117    -0.0262 C.3     
  19 H19           -3.2219    -0.6061     0.0314 H       
  20 H20            1.5048     3.0190     0.0036 H       
  21 H21           -0.5679     3.9512     0.0370 H       
  22 H22           -3.2462     3.7642    -0.8396 H       
  23 H23           -3.2366     3.7547     0.9403 H       
  24 H24           -2.5042     5.7176    -2.0757 H       
  25 H25           -2.2136     8.1627    -2.0643 H       
  26 H26           -2.0575     9.3740     0.0738 H       
  27 H27           -2.1927     8.1403     2.2005 H       
  28 H28           -2.4879     5.6958     2.1891 H       
  29 H29            4.1244     1.4897     0.9984 H       
  30 H30            4.3142     0.6318    -0.5496 H       
  31 H31            3.9052     2.3641    -0.5364 H       
@<TRIPOS>BOND
   1    1    2 ar
   2    1    7 1
   3    1    6 ar
   4    2    3 ar
   5    2    9 1
   6    3    4 ar
   7    4    5 ar
   8    4   19 1
   9    5    6 ar
  10    6   10 1
  11    7    8 2
  12    7   20 1
  13    8    9 1
  14    8   18 1
  15   10   11 1
  16   10   21 1
  17   11   12 1
  18   11   22 1
  19   11   23 1
  20   12   13 ar
  21   12   17 ar
  22   13   14 ar
  23   13   24 1
  24   14   15 ar
  25   14   25 1
  26   15   16 ar
  27   15   26 1
  28   16   17 ar
  29   16   27 1
  30   17   28 1
  31   18   29 1
  32   18   30 1
  33   18   31 1

#	End of record

