#	Name: ASD03091311
#	Creating user name:	WinNT
#	Creation time:	15. 06. 2019 20:30

#	Modifying user name:	WinNT
#	Modification time:	15. 06. 2019 20:30

#	Program:	/corina/corina34_cracker 3.40 0067  02.08.2006

@<TRIPOS>MOLECULE
ASD03091311
  64   68    0    0    0
SMALL
NO_CHARGES


@<TRIPOS>ATOM
   1 N1             0.4875     1.1003     0.1222 N.2     
   2 C2             0.2446    -0.1798     0.0062 C.2     
   3 N3             1.2202    -1.1048    -0.2524 N.am    
   4 C4             2.5084    -0.7175    -0.4022 C.2     
   5 C5             2.8046     0.7173    -0.2764 C.ar    
   6 C6             4.0987     1.2142    -0.4145 C.ar    
   7 C7             4.3206     2.5750    -0.2867 C.ar    
   8 C8             3.2600     3.4417    -0.0221 C.ar    
   9 C9             1.9866     2.9694     0.1163 C.ar    
  10 C10            1.7334     1.5997    -0.0078 C.ar    
  11 O11            3.3885    -1.5265    -0.6321 O.2     
  12 C12            0.8678    -2.5221    -0.3672 C.3     
  13 C13            0.6499    -2.8759    -1.8397 C.3     
  14 C14            0.2179    -4.3391    -1.9541 C.3     
  15 C15           -0.4398    -1.9752    -2.4246 C.3     
  16 C16            1.9536    -2.6670    -2.6127 C.3     
  17 O17            0.0143    -4.6695    -3.3294 O.3     
  18 C18           -1.1472    -0.6493     0.1620 C.ar    
  19 C19           -1.4674    -1.5804     1.1550 C.ar    
  20 C20           -2.7721    -2.0150     1.2954 C.ar    
  21 C21           -3.7591    -1.5315     0.4564 C.ar    
  22 C22           -3.4485    -0.6090    -0.5301 C.ar    
  23 C23           -2.1500    -0.1613    -0.6776 C.ar    
  24 F24           -4.4189    -0.1424    -1.3461 F       
  25 F25           -0.5039    -2.0543     1.9749 F       
  26 N26            8.2745     3.4599    -1.6709 N.3     
  27 C27            8.0230     2.4968    -0.5880 C.3     
  28 C28            6.5856     2.0020    -0.6323 C.3     
  29 N29            5.6154     3.0833    -0.4231 N.3     
  30 C30            5.6848     4.0606    -1.5184 C.3     
  31 C31            6.6117     5.2086    -1.1476 C.3     
  32 C32            8.0790     4.8313    -1.1791 C.3     
  33 C33            7.5940     3.2080    -2.9230 C.3     
  34 C34            6.0858     3.3478    -2.7969 C.3     
  35 H35            4.9210     0.5445    -0.6190 H       
  36 H36            3.4488     4.5006     0.0750 H       
  37 H37            1.1759     3.6526     0.3217 H       
  38 H38            1.6763    -3.1314     0.0371 H       
  39 H39           -0.0474    -2.7154     0.1923 H       
  40 H40            0.9942    -4.9808    -1.5373 H       
  41 H41           -0.7109    -4.4879    -1.4033 H       
  42 H42           -0.1235    -0.9340    -2.3611 H       
  43 H43           -0.6090    -2.2404    -3.4682 H       
  44 H44           -1.3633    -2.1094    -1.8614 H       
  45 H45            2.7299    -3.3087    -2.1960 H       
  46 H46            1.7983    -2.9190    -3.6618 H       
  47 H47            2.2613    -1.6246    -2.5312 H       
  48 H48           -0.2618    -5.5844    -3.4774 H       
  49 H49           -3.0210    -2.7340     2.0618 H       
  50 H50           -4.7768    -1.8746     0.5701 H       
  51 H51           -1.9103     0.5612    -1.4437 H       
  52 H52            8.6983     1.6483    -0.6981 H       
  53 H53            8.2072     2.9794     0.3718 H       
  54 H54            6.3997     1.5439    -1.6037 H       
  55 H55            6.4475     1.2488     0.1434 H       
  56 H56            4.6853     4.4681    -1.6704 H       
  57 H57            6.4470     6.0300    -1.8450 H       
  58 H58            6.3602     5.5505    -0.1436 H       
  59 H59            8.4884     4.9100    -0.1720 H       
  60 H60            8.6103     5.5229    -1.8329 H       
  61 H61            7.9535     3.9162    -3.6695 H       
  62 H62            7.8287     2.1969    -3.2556 H       
  63 H63            5.6361     2.3549    -2.8050 H       
  64 H64            5.7098     3.9122    -3.6502 H       
@<TRIPOS>BOND
   1    1    2 2
   2    1   10 1
   3    2    3 1
   4    2   18 1
   5    3    4 am
   6    3   12 1
   7    4    5 1
   8    4   11 2
   9    5    6 ar
  10    5   10 ar
  11    6    7 ar
  12    6   35 1
  13    7    8 ar
  14    7   29 1
  15    8    9 ar
  16    8   36 1
  17    9   10 ar
  18    9   37 1
  19   12   13 1
  20   12   38 1
  21   12   39 1
  22   13   14 1
  23   13   15 1
  24   13   16 1
  25   14   17 1
  26   14   40 1
  27   14   41 1
  28   15   42 1
  29   15   43 1
  30   15   44 1
  31   16   45 1
  32   16   46 1
  33   16   47 1
  34   17   48 1
  35   18   19 ar
  36   18   23 ar
  37   19   20 ar
  38   19   25 1
  39   20   21 ar
  40   20   49 1
  41   21   22 ar
  42   21   50 1
  43   22   23 ar
  44   22   24 1
  45   23   51 1
  46   26   27 1
  47   26   32 1
  48   26   33 1
  49   27   28 1
  50   27   52 1
  51   27   53 1
  52   28   29 1
  53   28   54 1
  54   28   55 1
  55   29   30 1
  56   30   31 1
  57   30   34 1
  58   30   56 1
  59   31   32 1
  60   31   57 1
  61   31   58 1
  62   32   59 1
  63   32   60 1
  64   33   34 1
  65   33   61 1
  66   33   62 1
  67   34   63 1
  68   34   64 1

#	End of record

