#	Name: ASD00842202
#	Creating user name:	WinNT
#	Creation time:	15. 06. 2019 18:43

#	Modifying user name:	WinNT
#	Modification time:	15. 06. 2019 18:43

#	Program:	/corina/corina34_cracker 3.40 0067  02.08.2006

@<TRIPOS>MOLECULE
ASD00842202
  90   95    0    0    0
SMALL
NO_CHARGES


@<TRIPOS>ATOM
   1 F1             6.0653    -1.6760    -2.0208 F       
   2 C2             0.9829     1.5422    -0.4528 C.ar    
   3 C3             1.2923     0.2082    -0.6735 C.ar    
   4 C4             1.2327    -0.6982     0.3753 C.ar    
   5 C5             0.8655    -0.2703     1.6363 C.ar    
   6 C6             0.5571     1.0601     1.8537 C.ar    
   7 C7             0.6162     1.9652     0.8104 C.ar    
   8 C8             1.5677    -2.1483     0.1389 C.3     
   9 C9             1.3097    -2.9626     1.3885 C.2     
  10 C10            0.7578    -2.6993    -1.0364 C.3     
  11 C11           -0.7105    -2.4701    -0.7860 C.2     
  12 N12           -1.6256    -2.9649    -1.6429 N.am    
  13 O13           -1.0687    -1.8404     0.1867 O.2     
  14 C14           -3.0520    -2.6548    -1.4762 C.3     
  15 C15           -3.8406    -3.9675    -1.4364 C.3     
  16 C16           -3.5181    -4.7898    -2.6862 C.3     
  17 C17           -2.0247    -5.1239    -2.7078 C.3     
  18 C18           -1.2149    -3.8197    -2.7652 C.3     
  19 C19           -4.3302    -6.0863    -2.6670 C.3     
  20 C20           -5.8247    -5.7537    -2.6471 C.3     
  21 C21           -6.6321    -7.0530    -2.6895 C.3     
  22 N22           -6.2950    -7.8009    -3.9075 N.3     
  23 C23           -4.8744    -8.1725    -3.9263 C.3     
  24 C24           -4.0145    -6.9065    -3.9208 C.3     
  25 C25           -7.1511    -8.9859    -4.0516 C.3     
  26 O26            0.2423    -3.1068     1.9462 O.2     
  27 N27            2.4841    -3.4961     1.7640 N.am    
  28 C28            3.0495    -2.3156    -0.1108 C.ar    
  29 C29            3.5264    -3.1366     0.9060 C.ar    
  30 C30            3.8920    -1.8280    -1.0853 C.ar    
  31 C31            5.2374    -2.1524    -1.0654 C.ar    
  32 C32            5.7346    -2.9766    -0.0508 C.ar    
  33 C33            4.8761    -3.4672     0.9327 C.ar    
  34 C34            2.4225    -6.1298     2.5605 C.ar    
  35 C35            1.1775    -6.5295     2.0974 C.ar    
  36 C36            3.4665    -7.0339     2.6001 C.ar    
  37 C37            3.2712    -8.3359     2.1783 C.ar    
  38 C38            2.0310    -8.7369     1.7162 C.ar    
  39 C39            0.9840    -7.8369     1.6750 C.ar    
  40 H40            1.8810    -9.7545     1.3873 H       
  41 O41            0.1490    -5.6421     2.0579 O.3     
  42 C42           -1.1047    -6.1234     1.5693 C.3     
  43 C43            7.1252    -3.3174    -0.0222 C.1     
  44 N44            8.2283    -3.5878     0.0004 N.1     
  45 S45            2.6743    -4.4685     3.0909 S.o2    
  46 O46            4.0409    -4.3703     3.4677 O.2     
  47 O47            1.6015    -4.1612     3.9706 O.2     
  48 O48            1.6528    -0.2104    -1.9152 O.3     
  49 C49            2.1195     0.1314    -4.2616 C.3     
  50 C50            1.5838     0.7516    -2.9696 C.3     
  51 H51            1.0329     2.2505    -1.2666 H       
  52 H52            0.8189    -0.9754     2.4530 H       
  53 H53            0.2696     1.3926     2.8402 H       
  54 H54            0.3749     3.0037     0.9828 H       
  55 H55            1.0540    -2.1889    -1.9528 H       
  56 H56            0.9465    -3.7680    -1.1385 H       
  57 H57           -3.2010    -2.1106    -0.5436 H       
  58 H58           -3.3945    -2.0480    -2.3144 H       
  59 H59           -3.5617    -4.5327    -0.5471 H       
  60 H60           -4.9083    -3.7499    -1.4097 H       
  61 H61           -3.7743    -4.2142    -3.5757 H       
  62 H62           -1.7629    -5.6782    -1.8065 H       
  63 H63           -1.8000    -5.7292    -3.5859 H       
  64 H64           -1.4088    -3.3105    -3.7093 H       
  65 H65           -0.1519    -4.0456    -2.6810 H       
  66 H66           -4.0737    -6.6637    -1.7788 H       
  67 H67           -6.0636    -5.2063    -1.7353 H       
  68 H68           -6.0731    -5.1425    -3.5148 H       
  69 H69           -6.3936    -7.6576    -1.8144 H       
  70 H70           -7.6968    -6.8192    -2.6899 H       
  71 H71           -4.6441    -8.7717    -3.0454 H       
  72 H72           -4.6624    -8.7517    -4.8250 H       
  73 H73           -4.2344    -6.3135    -4.8086 H       
  74 H74           -2.9601    -7.1828    -3.9190 H       
  75 H75           -8.1943    -8.6756    -4.1095 H       
  76 H76           -6.8802    -9.5214    -4.9615 H       
  77 H77           -7.0139    -9.6401    -3.1905 H       
  78 H78            3.5022    -1.1920    -1.8663 H       
  79 H79            5.2605    -4.1036     1.7160 H       
  80 H80            4.4360    -6.7232     2.9606 H       
  81 H81            4.0887    -9.0410     2.2094 H       
  82 H82            0.0155    -8.1507     1.3147 H       
  83 H83           -1.4494    -6.9435     2.1992 H       
  84 H84           -1.8370    -5.3164     1.5906 H       
  85 H85           -0.9839    -6.4776     0.5456 H       
  86 H86            3.1251    -0.2529    -4.0905 H       
  87 H87            1.4664    -0.6846    -4.5710 H       
  88 H88            2.1487     0.8899    -5.0439 H       
  89 H89            0.5477     1.0570    -3.1156 H       
  90 H90            2.1857     1.6217    -2.7075 H       
@<TRIPOS>BOND
   1    1   31 1
   2    2    3 ar
   3    2    7 ar
   4    2   51 1
   5    3    4 ar
   6    3   48 1
   7    4    5 ar
   8    4    8 1
   9    5    6 ar
  10    5   52 1
  11    6    7 ar
  12    6   53 1
  13    7   54 1
  14    8    9 1
  15    8   10 1
  16    8   28 1
  17    9   26 2
  18    9   27 am
  19   10   11 1
  20   10   55 1
  21   10   56 1
  22   11   12 am
  23   11   13 2
  24   12   14 1
  25   12   18 1
  26   14   15 1
  27   14   57 1
  28   14   58 1
  29   15   16 1
  30   15   59 1
  31   15   60 1
  32   16   17 1
  33   16   19 1
  34   16   61 1
  35   17   18 1
  36   17   62 1
  37   17   63 1
  38   18   64 1
  39   18   65 1
  40   19   20 1
  41   19   24 1
  42   19   66 1
  43   20   21 1
  44   20   67 1
  45   20   68 1
  46   21   22 1
  47   21   69 1
  48   21   70 1
  49   22   23 1
  50   22   25 1
  51   23   24 1
  52   23   71 1
  53   23   72 1
  54   24   73 1
  55   24   74 1
  56   25   75 1
  57   25   76 1
  58   25   77 1
  59   27   45 am
  60   27   29 1
  61   28   29 ar
  62   28   30 ar
  63   29   33 ar
  64   30   31 ar
  65   30   78 1
  66   31   32 ar
  67   32   33 ar
  68   32   43 1
  69   33   79 1
  70   34   35 ar
  71   34   36 ar
  72   34   45 1
  73   35   41 1
  74   35   39 ar
  75   36   37 ar
  76   36   80 1
  77   37   38 ar
  78   37   81 1
  79   38   39 ar
  80   38   40 1
  81   39   82 1
  82   41   42 1
  83   42   83 1
  84   42   84 1
  85   42   85 1
  86   43   44 3
  87   45   46 2
  88   45   47 2
  89   48   50 1
  90   49   50 1
  91   49   86 1
  92   49   87 1
  93   49   88 1
  94   50   89 1
  95   50   90 1

#	End of record

