#	Name: ASD01230052
#	Creating user name:	WinNT
#	Creation time:	15. 06. 2019 19:11

#	Modifying user name:	WinNT
#	Modification time:	15. 06. 2019 19:11

#	Program:	/corina/corina34_cracker 3.40 0067  02.08.2006

@<TRIPOS>MOLECULE
ASD01230052
  23   24    0    0    0
SMALL
NO_CHARGES


@<TRIPOS>ATOM
   1 C1            -0.0163     1.3490     0.0095 C.2     
   2 C2             0.0021    -0.0041     0.0020 C.2     
   3 S3             1.4698     2.3185     0.0005 S.o2    
   4 N4             2.6571     1.1457     0.1592 N.am    
   5 C5             2.3668    -0.1259    -0.5340 C.3     
   6 N6             1.1920    -0.7734     0.0384 N.3     
   7 O7             1.6004     2.8743    -1.3008 O.2     
   8 O8             1.4767     3.0870     1.1957 O.2     
   9 C9             0.9797    -2.0998    -0.5564 C.3     
  10 C10            0.6246    -1.9441    -2.0364 C.3     
  11 C11           -1.2800    -0.5601    -0.0161 C.2     
  12 C12           -2.2900     0.3072    -0.0046 C.2     
  13 S13           -1.6605     1.9490     0.0210 S.3     
  14 Cl14          -3.9730    -0.1180    -0.0169 Cl      
  15 F15           -0.5448    -1.1858    -2.1582 F       
  16 F16            1.6714    -1.2969    -2.7016 F       
  17 H17            3.4709     1.2906     0.6669 H       
  18 H18            2.1866     0.0747    -1.5901 H       
  19 H19            3.2252    -0.7908    -0.4376 H       
  20 H20            1.8907    -2.6906    -0.4615 H       
  21 H21            0.1640    -2.6040    -0.0381 H       
  22 H22            0.4671    -2.9282    -2.4777 H       
  23 H23           -1.4415    -1.6278    -0.0385 H       
@<TRIPOS>BOND
   1    1    2 2
   2    1    3 1
   3    1   13 1
   4    2   11 1
   5    2    6 1
   6    3    4 am
   7    3    7 2
   8    3    8 2
   9    4    5 1
  10    4   17 1
  11    5    6 1
  12    5   18 1
  13    5   19 1
  14    6    9 1
  15    9   10 1
  16    9   20 1
  17    9   21 1
  18   10   15 1
  19   10   16 1
  20   10   22 1
  21   11   12 2
  22   11   23 1
  23   12   13 1
  24   12   14 1

#	End of record

