#	Name: ASD00451029
#	Creating user name:	WinNT
#	Creation time:	15. 06. 2019 18:36

#	Modifying user name:	WinNT
#	Modification time:	15. 06. 2019 18:36

#	Program:	/corina/corina34_cracker 3.40 0067  02.08.2006

@<TRIPOS>MOLECULE
ASD00451029
  60   64    0    0    0
SMALL
NO_CHARGES


@<TRIPOS>ATOM
   1 C1             0.0504     1.2770     0.1202 C.ar    
   2 C2            -0.0092    -0.0981     0.0745 C.ar    
   3 C3             1.3021     1.9244     0.0528 C.ar    
   4 N4            -1.1247     2.0284     0.2270 N.am    
   5 C5             1.1509    -0.8591    -0.0370 C.ar    
   6 C6             1.3997     3.3245     0.0971 C.ar    
   7 C7             2.4818     1.1491    -0.0611 C.ar    
   8 C8             2.3862    -0.2569    -0.1048 C.ar    
   9 C9             2.6234     3.9174     0.0302 C.ar    
  10 C10            3.7271     1.7954    -0.1275 C.ar    
  11 O11            3.5094    -1.0141    -0.2130 O.3     
  12 C12            3.7841     3.1548    -0.0823 C.ar    
  13 C13            4.2328    -1.2459     0.9125 C.ar    
  14 C14            5.4520    -1.9166     0.8545 C.ar    
  15 C15            3.7792    -0.8145     2.1571 C.ar    
  16 C16            6.1675    -2.1368     2.0318 C.ar    
  17 N17            6.1971    -2.4703    -0.1845 N.am    
  18 C18            4.5427    -1.0690     3.2785 C.ar    
  19 N19            7.3247    -2.8169     1.6734 N.am    
  20 N20            5.6919    -1.7117     3.1926 N.ar    
  21 C21            7.3170    -3.0036     0.3405 C.2     
  22 C22            8.3775    -3.2565     2.5924 C.3     
  23 O23            8.1885    -3.5687    -0.2935 O.2     
  24 C24           -2.2553     1.5994    -0.3681 C.2     
  25 O25           -2.2309     0.6156    -1.0823 O.2     
  26 N26           -3.4130     2.2609    -0.1716 N.am    
  27 C27           -4.6038     1.7644    -0.7149 C.ar    
  28 C28            5.8265    -2.4727    -1.6018 C.3     
  29 C29           -4.5924     1.1251    -1.9473 C.ar    
  30 C30           -5.7687     0.6356    -2.4810 C.ar    
  31 C31           -6.9576     0.7819    -1.7885 C.ar    
  32 C32           -6.9716     1.4188    -0.5597 C.ar    
  33 C33           -5.7976     1.9052    -0.0194 C.ar    
  34 Cl34          -8.4342     0.1661    -2.4622 Cl      
  35 C35            8.0610    -4.6671     3.0932 C.3     
  36 C36           -8.2684     1.5768     0.1915 C.3     
  37 F37           -8.0306     2.2466     1.3965 F       
  38 F38           -9.1689     2.3160    -0.5830 F       
  39 F39           -8.8095     0.3146     0.4584 F       
  40 H40           -0.9682    -0.5922     0.1262 H       
  41 H41           -1.1258     2.8582     0.7293 H       
  42 H42            1.0806    -1.9363    -0.0703 H       
  43 H43            0.5082     3.9281     0.1834 H       
  44 H44            2.6955     4.9945     0.0645 H       
  45 H45            4.6348     1.2167    -0.2142 H       
  46 H46            4.7429     3.6492    -0.1343 H       
  47 H47            2.8409    -0.2866     2.2434 H       
  48 H48            4.1931    -0.7355     4.2444 H       
  49 H49            9.3352    -3.2622     2.0718 H       
  50 H50            8.4288    -2.5730     3.4399 H       
  51 H51           -3.4211     3.0810     0.3463 H       
  52 H52            6.2209    -1.5773    -2.0821 H       
  53 H53            6.2423    -3.3571    -2.0846 H       
  54 H54            4.7404    -2.4857    -1.6933 H       
  55 H55           -3.6647     1.0109    -2.4884 H       
  56 H56           -5.7604     0.1386    -3.4398 H       
  57 H57           -5.8091     2.4021     0.9394 H       
  58 H58            8.8443    -4.9942     3.7770 H       
  59 H59            7.1034    -4.6615     3.6139 H       
  60 H60            8.0098    -5.3507     2.2457 H       
@<TRIPOS>BOND
   1    1    2 ar
   2    1    3 ar
   3    1    4 1
   4    2    5 ar
   5    2   40 1
   6    3    6 ar
   7    3    7 ar
   8    4   24 am
   9    4   41 1
  10    5    8 ar
  11    5   42 1
  12    6    9 ar
  13    6   43 1
  14    7    8 ar
  15    7   10 ar
  16    8   11 1
  17    9   12 ar
  18    9   44 1
  19   10   12 ar
  20   10   45 1
  21   11   13 1
  22   12   46 1
  23   13   15 ar
  24   13   14 ar
  25   14   16 ar
  26   14   17 1
  27   15   18 ar
  28   15   47 1
  29   16   19 1
  30   16   20 ar
  31   17   21 am
  32   17   28 1
  33   18   20 ar
  34   18   48 1
  35   19   22 1
  36   19   21 am
  37   21   23 2
  38   22   35 1
  39   22   49 1
  40   22   50 1
  41   24   25 2
  42   24   26 am
  43   26   27 1
  44   26   51 1
  45   27   29 ar
  46   27   33 ar
  47   28   52 1
  48   28   53 1
  49   28   54 1
  50   29   30 ar
  51   29   55 1
  52   30   31 ar
  53   30   56 1
  54   31   32 ar
  55   31   34 1
  56   32   33 ar
  57   32   36 1
  58   33   57 1
  59   35   58 1
  60   35   59 1
  61   35   60 1
  62   36   37 1
  63   36   38 1
  64   36   39 1

#	End of record

