#	Name: ASD04840029
#	Creating user name:	WinNT
#	Creation time:	15. 06. 2019 20:52

#	Modifying user name:	WinNT
#	Modification time:	15. 06. 2019 20:52

#	Program:	/corina/corina34_cracker 3.40 0067  02.08.2006

@<TRIPOS>MOLECULE
ASD04840029
  51   53    0    0    0
SMALL
NO_CHARGES


@<TRIPOS>ATOM
   1 C1             0.4270     1.4859    -0.1322 C.3     
   2 C2             0.2557    -0.0347    -0.0750 C.3     
   3 C3             1.8859     1.8907    -0.2922 C.3     
   4 C4             2.4973     1.2439    -1.5360 C.3     
   5 C5             2.4311    -0.2751    -1.4062 C.3     
   6 C6             0.9873    -0.7232    -1.2082 C.3     
   7 C7             2.9113    -0.9254    -2.6957 C.2     
   8 C8             2.7951    -2.4342    -2.7854 C.3     
   9 C9             1.3537    -2.8416    -2.4685 C.3     
  10 C10            0.9241    -2.2463    -1.1211 C.3     
  11 C11            0.6609    -0.5584     1.3009 C.3     
  12 C12           -1.2588    -0.3110    -0.2425 C.3     
  13 C13           -0.2907    -0.0261     2.3412 C.2     
  14 C14           -0.0631     1.3059     2.9377 C.2     
  15 C15           -0.9960     1.8279     3.9570 C.2     
  16 C16           -2.0489     1.0930     4.3406 C.2     
  17 C17           -2.2765    -0.2390     3.7441 C.2     
  18 C18           -1.3464    -0.7588     2.7211 C.2     
  19 O19            0.8913     1.9718     2.5904 O.2     
  20 O20           -3.2303    -0.9053     4.0923 O.2     
  21 C21           -0.4183     2.0658    -1.2661 C.3     
  22 C22            3.3608    -0.7347    -0.2844 C.3     
  23 C23            3.4047    -0.2228    -3.6793 C.2     
  24 H24            0.0549     1.9035     0.8164 H       
  25 H25            1.9387     2.9819    -0.4065 H       
  26 H26            2.4535     1.6229     0.5959 H       
  27 H27            1.9636     1.5699    -2.4263 H       
  28 H28            3.5441     1.5540    -1.6156 H       
  29 H29            0.4471    -0.4574    -2.1478 H       
  30 H30            3.0467    -2.7540    -3.7988 H       
  31 H31            3.4768    -2.9049    -2.0802 H       
  32 H32            0.6909    -2.4744    -3.2514 H       
  33 H33            1.2873    -3.9286    -2.4167 H       
  34 H34            1.5724    -2.6249    -0.3374 H       
  35 H35           -0.0991    -2.5688    -0.9168 H       
  36 H36            0.6257    -1.6478     1.2998 H       
  37 H37            1.6736    -0.2278     1.5317 H       
  38 H38           -1.5963     0.0840    -1.2007 H       
  39 H39           -1.4379    -1.3856    -0.2090 H       
  40 H40           -1.8080     0.1743     0.5643 H       
  41 H41           -0.8294     2.8017     4.3934 H       
  42 H42           -2.7309     1.4745     5.0861 H       
  43 H43           -1.5128    -1.7327     2.2850 H       
  44 H44           -1.4684     1.8298    -1.0937 H       
  45 H45           -0.2896     3.1477    -1.2985 H       
  46 H46           -0.0997     1.6334    -2.2146 H       
  47 H47            3.1237    -0.1905     0.6299 H       
  48 H48            3.2269    -1.8033    -0.1162 H       
  49 H49            4.3952    -0.5381    -0.5663 H       
  50 H50            3.4809     0.8509    -3.5908 H       
  51 H51            3.7366    -0.7152    -4.5813 H       
@<TRIPOS>BOND
   1    1    2 1
   2    1    3 1
   3    1   21 1
   4    1   24 1
   5    2   11 1
   6    2   12 1
   7    2    6 1
   8    3    4 1
   9    3   25 1
  10    3   26 1
  11    4    5 1
  12    4   27 1
  13    4   28 1
  14    5    6 1
  15    5    7 1
  16    5   22 1
  17    6   10 1
  18    6   29 1
  19    7    8 1
  20    7   23 2
  21    8    9 1
  22    8   30 1
  23    8   31 1
  24    9   10 1
  25    9   32 1
  26    9   33 1
  27   10   34 1
  28   10   35 1
  29   11   13 1
  30   11   36 1
  31   11   37 1
  32   12   38 1
  33   12   39 1
  34   12   40 1
  35   13   14 1
  36   13   18 2
  37   14   15 1
  38   14   19 2
  39   15   16 2
  40   15   41 1
  41   16   17 1
  42   16   42 1
  43   17   18 1
  44   17   20 2
  45   18   43 1
  46   21   44 1
  47   21   45 1
  48   21   46 1
  49   22   47 1
  50   22   48 1
  51   22   49 1
  52   23   50 1
  53   23   51 1

#	End of record

