#	Name: ASD01420063
#	Creating user name:	WinNT
#	Creation time:	15. 06. 2019 19:20

#	Modifying user name:	WinNT
#	Modification time:	15. 06. 2019 19:20

#	Program:	/corina/corina34_cracker 3.40 0067  02.08.2006

@<TRIPOS>MOLECULE
ASD01420063
 104  107    0    0    0
SMALL
NO_CHARGES


@<TRIPOS>ATOM
   1 C1            -0.3985     0.3076     0.4990 C.ar    
   2 C2             0.7465     1.0638     0.6660 C.ar    
   3 C3             1.2331     1.8221    -0.3823 C.ar    
   4 C4             0.5749     1.8238    -1.5979 C.ar    
   5 C5            -0.5697     1.0669    -1.7652 C.ar    
   6 C6            -1.0570     0.3097    -0.7164 C.ar    
   7 C7            -0.9255    -0.5240     1.6400 C.3     
   8 C8            -0.4874     0.0965     2.9681 C.3     
   9 C9            -1.0780    -0.6869     4.1120 C.2     
  10 O10           -1.5386    -0.1132     5.0762 O.2     
  11 N11           -1.0885    -2.0541     4.0487 N.am    
  12 N12           -0.9727     1.4811     3.0498 N.am    
  13 C13           -0.8969     2.1341     4.2264 C.2     
  14 C14           -1.7437    -2.7066     5.2129 C.3     
  15 O15           -0.3427     1.6112     5.1701 O.2     
  16 C16           -1.4947     3.5085     4.3785 C.3     
  17 N17           -2.3352     3.5188     5.5965 N.am    
  18 C18           -2.2881    -4.0755     4.7999 C.3     
  19 C19           -0.8125    -5.0875     3.0495 C.ar    
  20 C20           -2.8779    -1.8224     5.6647 C.2     
  21 O21           -3.3148    -0.9618     4.9303 O.2     
  22 N22           -3.4068    -2.0015     6.9077 N.am    
  23 C23           -0.3772     4.5445     4.5146 C.3     
  24 C24           -0.9827     5.9495     4.5246 C.3     
  25 C25            0.1117     6.9744     4.8292 C.3     
  26 C26           -1.5963     6.2502     3.1557 C.3     
  27 C27           -3.4553     2.7419     5.5516 C.2     
  28 C28           -4.3490     2.6775     6.7620 C.3     
  29 O29           -3.7278     2.1126     4.5513 O.2     
  30 N30           -4.9287     1.3129     6.8484 N.am    
  31 C31           -4.0204     0.3340     7.1595 C.2     
  32 C32           -4.5083    -1.0866     7.2781 C.3     
  33 C33           -5.6933    -1.3022     6.3346 C.3     
  34 C34           -6.2654    -2.7053     6.5468 C.3     
  35 C35           -6.8471    -2.8109     7.9579 C.3     
  36 C36           -7.3685    -2.9670     5.5195 C.3     
  37 O37           -2.8514     0.6053     7.3347 O.2     
  38 C38           -3.5305     2.9688     8.0213 C.3     
  39 C39           -3.3965     4.4820     8.2038 C.3     
  40 C40           -4.2367     2.3689     9.2388 C.3     
  41 C41            0.2354    -5.9051     2.6696 C.ar    
  42 C42            0.9504    -6.6016     3.6259 C.ar    
  43 C43            0.6179    -6.4801     4.9622 C.ar    
  44 C44           -0.4303    -5.6629     5.3421 C.ar    
  45 C45           -1.1454    -4.9664     4.3857 C.ar    
  46 C46           -2.4306    -0.5663     1.5775 C.ar    
  47 C47           -3.1488     0.6038     1.4169 C.ar    
  48 C48           -3.0926    -1.7759     1.6752 C.ar    
  49 C49           -4.4733    -1.8147     1.6180 C.ar    
  50 C50           -5.1918    -0.6439     1.4635 C.ar    
  51 C51           -4.5295     0.5650     1.3596 C.ar    
  52 H52            1.2608     1.0624     1.6158 H       
  53 H53            2.1273     2.4134    -0.2516 H       
  54 H54            0.9546     2.4168    -2.4168 H       
  55 H55           -1.0843     1.0688    -2.7147 H       
  56 H56           -1.9517    -0.2811    -0.8469 H       
  57 H57           -0.5300    -1.5369     1.5643 H       
  58 H58            0.6003     0.0822     3.0377 H       
  59 H59           -0.7035    -2.5523     3.3108 H       
  60 H60           -1.3422     1.9194     2.2673 H       
  61 H61           -1.0233    -2.8255     6.0222 H       
  62 H62           -2.1075     3.7408     3.5075 H       
  63 H63           -2.1037     4.0448     6.3780 H       
  64 H64           -2.8138    -4.5265     5.6415 H       
  65 H65           -2.9767    -3.9554     3.9635 H       
  66 H66           -1.3683    -4.5399     2.3028 H       
  67 H67           -3.0814    -2.6869     7.5121 H       
  68 H68            0.1638     4.3754     5.4456 H       
  69 H69            0.3095     4.4509     3.6733 H       
  70 H70           -1.7567     6.0061     5.2900 H       
  71 H71           -0.3337     7.9650     4.9217 H       
  72 H72            0.6071     6.7101     5.7634 H       
  73 H73            0.8413     6.9784     4.0194 H       
  74 H74           -2.3760     5.5201     2.9387 H       
  75 H75           -2.0277     7.2512     3.1629 H       
  76 H76           -0.8224     6.1937     2.3903 H       
  77 H77           -5.1502     3.4102     6.6650 H       
  78 H78           -5.8694     1.1299     6.6980 H       
  79 H79           -4.8162    -1.2825     8.3052 H       
  80 H80           -6.4639    -0.5602     6.5437 H       
  81 H81           -5.3594    -1.1983     5.3023 H       
  82 H82           -5.4725    -3.4432     6.4245 H       
  83 H83           -7.2547    -3.8105     8.1091 H       
  84 H84           -6.0612    -2.6244     8.6898 H       
  85 H85           -7.6400    -2.0730     8.0802 H       
  86 H86           -6.9541    -2.8918     4.5141 H       
  87 H87           -7.7761    -3.9666     5.6706 H       
  88 H88           -8.1614    -2.2291     5.6417 H       
  89 H89           -2.5396     2.5258     7.9212 H       
  90 H90           -4.3693     4.9055     8.4533 H       
  91 H91           -2.6922     4.6899     9.0093 H       
  92 H92           -3.0323     4.9287     7.2786 H       
  93 H93           -4.3872     1.3008     9.0818 H       
  94 H94           -3.6238     2.5229    10.1269 H       
  95 H95           -5.2024     2.8557     9.3750 H       
  96 H96            0.4952    -6.0000     1.6257 H       
  97 H97            1.7687    -7.2409     3.3291 H       
  98 H98            1.1761    -7.0247     5.7093 H       
  99 H99           -0.6903    -5.5682     6.3860 H       
 100 H100          -2.6314     1.5483     1.3365 H       
 101 H101          -2.5313    -2.6906     1.7959 H       
 102 H102          -4.9905    -2.7598     1.6936 H       
 103 H103          -6.2705    -0.6743     1.4185 H       
 104 H104          -5.0906     1.4791     1.2341 H       
@<TRIPOS>BOND
   1    1    2 ar
   2    1    6 ar
   3    1    7 1
   4    2    3 ar
   5    2   52 1
   6    3    4 ar
   7    3   53 1
   8    4    5 ar
   9    4   54 1
  10    5    6 ar
  11    5   55 1
  12    6   56 1
  13    7   46 1
  14    7    8 1
  15    7   57 1
  16    8    9 1
  17    8   12 1
  18    8   58 1
  19    9   10 2
  20    9   11 am
  21   11   14 1
  22   11   59 1
  23   12   13 am
  24   12   60 1
  25   13   15 2
  26   13   16 1
  27   14   18 1
  28   14   20 1
  29   14   61 1
  30   16   17 1
  31   16   23 1
  32   16   62 1
  33   17   27 am
  34   17   63 1
  35   18   45 1
  36   18   64 1
  37   18   65 1
  38   19   41 ar
  39   19   45 ar
  40   19   66 1
  41   20   21 2
  42   20   22 am
  43   22   32 1
  44   22   67 1
  45   23   24 1
  46   23   68 1
  47   23   69 1
  48   24   25 1
  49   24   26 1
  50   24   70 1
  51   25   71 1
  52   25   72 1
  53   25   73 1
  54   26   74 1
  55   26   75 1
  56   26   76 1
  57   27   29 2
  58   27   28 1
  59   28   30 1
  60   28   38 1
  61   28   77 1
  62   30   31 am
  63   30   78 1
  64   31   32 1
  65   31   37 2
  66   32   33 1
  67   32   79 1
  68   33   34 1
  69   33   80 1
  70   33   81 1
  71   34   35 1
  72   34   36 1
  73   34   82 1
  74   35   83 1
  75   35   84 1
  76   35   85 1
  77   36   86 1
  78   36   87 1
  79   36   88 1
  80   38   39 1
  81   38   40 1
  82   38   89 1
  83   39   90 1
  84   39   91 1
  85   39   92 1
  86   40   93 1
  87   40   94 1
  88   40   95 1
  89   41   42 ar
  90   41   96 1
  91   42   43 ar
  92   42   97 1
  93   43   44 ar
  94   43   98 1
  95   44   45 ar
  96   44   99 1
  97   46   48 ar
  98   46   47 ar
  99   47   51 ar
 100   47  100 1
 101   48   49 ar
 102   48  101 1
 103   49   50 ar
 104   49  102 1
 105   50   51 ar
 106   50  103 1
 107   51  104 1

#	End of record

