#	Name: ASD01410108
#	Creating user name:	WinNT
#	Creation time:	15. 06. 2019 19:16

#	Modifying user name:	WinNT
#	Modification time:	15. 06. 2019 19:16

#	Program:	/corina/corina34_cracker 3.40 0067  02.08.2006

@<TRIPOS>MOLECULE
ASD01410108
  57   60    0    0    0
SMALL
NO_CHARGES


@<TRIPOS>ATOM
   1 C1            -0.0169     1.3986     0.0097 C.ar    
   2 C2             0.0021    -0.0041     0.0020 C.ar    
   3 C3            -1.1621    -0.7093     0.0093 C.ar    
   4 C4            -2.3912    -0.0347     0.0247 C.ar    
   5 C5            -2.4204     1.3751     0.0325 C.ar    
   6 C6            -1.2305     2.0850     0.0308 C.ar    
   7 C7            -3.7375    -0.4722     0.0359 C.2     
   8 C8            -4.5317     0.6283     0.0499 C.2     
   9 N9            -3.7465     1.7566     0.0480 N.pl3   
  10 C10           -6.0103     0.6156     0.0648 C.ar    
  11 C11           -6.7205     1.4570     0.9287 C.ar    
  12 N12           -8.0379    -0.2426    -0.7737 N.ar    
  13 C13           -6.7212    -0.2315    -0.7866 C.ar    
  14 C14           -4.2054    -1.9047     0.0322 C.3     
  15 C15           -3.6906    -2.6061    -1.2263 C.3     
  16 C16           -4.1657    -4.0604    -1.2301 C.3     
  17 C17           -3.6262    -4.7765     0.0097 C.3     
  18 C18           -4.1410    -4.0750     1.2682 C.3     
  19 C19           -3.6659    -2.6207     1.2720 C.3     
  20 C20            1.2512     2.1499     0.0017 C.2     
  21 O21            2.4258     1.4892    -0.0131 O.3     
  22 C22           -4.2368     3.1371     0.0599 C.3     
  23 C23           -4.3910     3.6031     1.4848 C.2     
  24 N24           -4.8321     4.8504     1.7418 N.am    
  25 O25            1.2377     3.3650     0.0083 O.2     
  26 O26           -4.1182     2.8557     2.4001 O.2     
  27 C27           -8.1033     1.4069     0.9033 C.ar    
  28 C28           -8.7334     0.5355     0.0335 C.ar    
  29 C29           -4.9820     5.3034     3.1269 C.3     
  30 C30           -5.1617     5.7532     0.6361 C.3     
  31 H31            0.9465    -0.5277    -0.0102 H       
  32 H32           -1.1391    -1.7891     0.0030 H       
  33 H33           -1.2430     3.1649     0.0368 H       
  34 H34           -6.2027     2.1279     1.5982 H       
  35 H35           -6.1869    -0.8833    -1.4620 H       
  36 H36           -5.2951    -1.9309     0.0428 H       
  37 H37           -4.0750    -2.0960    -2.1096 H       
  38 H38           -2.6010    -2.5798    -1.2369 H       
  39 H39           -5.2554    -4.0867    -1.2194 H       
  40 H40           -3.7990    -4.5602    -2.1266 H       
  41 H41           -3.9647    -5.8126     0.0071 H       
  42 H42           -2.5366    -4.7502    -0.0009 H       
  43 H43           -5.2307    -4.1013     1.2789 H       
  44 H44           -3.7567    -4.5851     2.1515 H       
  45 H45           -2.5763    -2.5944     1.2614 H       
  46 H46           -4.0327    -2.1209     2.1686 H       
  47 H47            3.2308     2.0250    -0.0179 H       
  48 H48           -3.5249     3.7800    -0.4576 H       
  49 H49           -5.2021     3.1842    -0.4442 H       
  50 H50           -8.6843     2.0414     1.5561 H       
  51 H51           -9.8124     0.4946     0.0115 H       
  52 H52           -4.0509     5.7598     3.4627 H       
  53 H53           -5.7871     6.0360     3.1845 H       
  54 H54           -5.2196     4.4516     3.7641 H       
  55 H55           -6.2118     5.6331     0.3696 H       
  56 H56           -4.9800     6.7836     0.9418 H       
  57 H57           -4.5385     5.5147    -0.2258 H       
@<TRIPOS>BOND
   1    1    2 ar
   2    1   20 1
   3    1    6 ar
   4    2    3 ar
   5    2   31 1
   6    3    4 ar
   7    3   32 1
   8    4    5 ar
   9    4    7 1
  10    5    6 ar
  11    5    9 1
  12    6   33 1
  13    7    8 2
  14    7   14 1
  15    8    9 1
  16    8   10 1
  17    9   22 1
  18   10   11 ar
  19   10   13 ar
  20   11   27 ar
  21   11   34 1
  22   12   13 ar
  23   12   28 ar
  24   13   35 1
  25   14   15 1
  26   14   19 1
  27   14   36 1
  28   15   16 1
  29   15   37 1
  30   15   38 1
  31   16   17 1
  32   16   39 1
  33   16   40 1
  34   17   18 1
  35   17   41 1
  36   17   42 1
  37   18   19 1
  38   18   43 1
  39   18   44 1
  40   19   45 1
  41   19   46 1
  42   20   21 1
  43   20   25 2
  44   21   47 1
  45   22   23 1
  46   22   48 1
  47   22   49 1
  48   23   24 am
  49   23   26 2
  50   24   29 1
  51   24   30 1
  52   27   28 ar
  53   27   50 1
  54   28   51 1
  55   29   52 1
  56   29   53 1
  57   29   54 1
  58   30   55 1
  59   30   56 1
  60   30   57 1

#	End of record

