#	Name: ASD01230637
#	Creating user name:	WinNT
#	Creation time:	15. 06. 2019 19:14

#	Modifying user name:	WinNT
#	Modification time:	15. 06. 2019 19:14

#	Program:	/corina/corina34_cracker 3.40 0067  02.08.2006

@<TRIPOS>MOLECULE
ASD01230637
  44   47    0    0    0
SMALL
NO_CHARGES


@<TRIPOS>ATOM
   1 S1            -0.0204     1.6504     0.0111 S.o2    
   2 N2             0.0021    -0.0041     0.0020 N.am    
   3 C3             1.0227    -0.6872    -0.4556 C.2     
   4 N4             2.1688    -0.1517    -0.9712 N.pl3   
   5 C5             2.3935     1.2854    -1.1473 C.3     
   6 C6             1.7501     2.0749    -0.0035 C.3     
   7 C7             0.8948    -2.1592    -0.3950 C.2     
   8 C8             1.9460    -2.9423    -0.8230 C.2     
   9 C9             3.1043    -2.3191    -1.3057 C.2     
  10 C10            3.1906    -0.9787    -1.3650 C.2     
  11 C11           -2.6666    -3.9523     1.0814 C.ar    
  12 C12           -1.4657    -4.1160     1.7719 C.ar    
  13 C13           -0.3120    -3.5359     1.2944 C.ar    
  14 C14           -0.3443    -2.7834     0.1185 C.ar    
  15 C15           -1.5469    -2.6199    -0.5721 C.ar    
  16 C16           -2.6997    -3.2007    -0.0933 C.ar    
  17 C17           -3.9076    -4.5826     1.5931 C.ar    
  18 C18           -5.1085    -4.4206     0.9053 C.ar    
  19 C19           -6.2637    -5.0122     1.3882 C.ar    
  20 C20           -6.2236    -5.7643     2.5546 C.ar    
  21 C21           -5.0327    -5.9249     3.2377 C.ar    
  22 C22           -3.8750    -5.3436     2.7606 C.ar    
  23 O23           -7.4371    -4.8563     0.7205 O.3     
  24 C24           -8.5891    -5.4942     1.2754 C.3     
  25 O25           -0.6346     2.0064    -1.2198 O.2     
  26 O26           -0.6110     1.9931     1.2573 O.2     
  27 H27            3.4654     1.4826    -1.1617 H       
  28 H28            1.9572     1.6042    -2.0939 H       
  29 H29            1.8743     3.1443    -0.1744 H       
  30 H30            2.2074     1.7939     0.9452 H       
  31 H31            1.8776    -4.0195    -0.7864 H       
  32 H32            3.9375    -2.9226    -1.6341 H       
  33 H33            4.1016    -0.5345    -1.7381 H       
  34 H34           -1.4410    -4.6977     2.6815 H       
  35 H35            0.6176    -3.6624     1.8293 H       
  36 H36           -1.5727    -2.0378    -1.4814 H       
  37 H37           -3.6299    -3.0747    -0.6276 H       
  38 H38           -5.1383    -3.8351    -0.0017 H       
  39 H39           -7.1256    -6.2248     2.9296 H       
  40 H40           -5.0070    -6.5106     4.1447 H       
  41 H41           -2.9451    -5.4750     3.2939 H       
  42 H42           -9.4557    -5.2903     0.6465 H       
  43 H43           -8.4206    -6.5700     1.3242 H       
  44 H44           -8.7698    -5.1089     2.2789 H       
@<TRIPOS>BOND
   1    1    2 am
   2    1    6 1
   3    1   25 2
   4    1   26 2
   5    2    3 2
   6    3    4 1
   7    3    7 1
   8    4    5 1
   9    4   10 1
  10    5    6 1
  11    5   27 1
  12    5   28 1
  13    6   29 1
  14    6   30 1
  15    7    8 2
  16    7   14 1
  17    8    9 1
  18    8   31 1
  19    9   10 2
  20    9   32 1
  21   10   33 1
  22   11   12 ar
  23   11   16 ar
  24   11   17 1
  25   12   13 ar
  26   12   34 1
  27   13   14 ar
  28   13   35 1
  29   14   15 ar
  30   15   16 ar
  31   15   36 1
  32   16   37 1
  33   17   18 ar
  34   17   22 ar
  35   18   19 ar
  36   18   38 1
  37   19   20 ar
  38   19   23 1
  39   20   21 ar
  40   20   39 1
  41   21   22 ar
  42   21   40 1
  43   22   41 1
  44   23   24 1
  45   24   42 1
  46   24   43 1
  47   24   44 1

#	End of record

