#	Name: ASD01910046
#	Creating user name:	WinNT
#	Creation time:	15. 06. 2019 19:55

#	Modifying user name:	WinNT
#	Modification time:	15. 06. 2019 19:55

#	Program:	/corina/corina34_cracker 3.40 0067  02.08.2006

@<TRIPOS>MOLECULE
ASD01910046
  42   45    0    0    0
SMALL
NO_CHARGES


@<TRIPOS>ATOM
   1 C1            -0.0167     1.3798     0.0096 C.ar    
   2 C2             0.0021    -0.0041     0.0020 C.ar    
   3 C3             1.2309    -0.6495    -0.0132 C.ar    
   4 C4             2.3894     0.1026    -0.0202 C.ar    
   5 N5             2.3400     1.4206    -0.0127 N.ar    
   6 C6             1.1883     2.0722     0.0018 C.ar    
   7 N7             1.1837     3.4691     0.0089 N.pl3   
   8 C8             2.1847     4.2714     0.4692 C.2     
   9 C9             1.7911     5.5606     0.2982 C.2     
  10 C10            0.5096     5.5460    -0.2847 C.2     
  11 N11            0.1520     4.2915    -0.4613 N.2     
  12 N12            3.3932     3.8463     1.0166 N.am    
  13 C13            4.2995     4.7522     1.4344 C.2     
  14 C14            5.5817     4.3012     2.0151 C.ar    
  15 C15            6.5225     5.2368     2.4488 C.ar    
  16 C16            7.7172     4.8092     2.9899 C.ar    
  17 C17            7.9840     3.4562     3.1032 C.ar    
  18 C18            7.0558     2.5236     2.6753 C.ar    
  19 C19            5.8547     2.9377     2.1377 C.ar    
  20 C20           -0.2964     6.7391    -0.6438 C.ar    
  21 C21           -1.5566     6.5847    -1.2179 C.ar    
  22 C22           -2.3022     7.6978    -1.5495 C.ar    
  23 C23           -1.8005     8.9650    -1.3129 C.ar    
  24 C24           -0.5499     9.1241    -0.7436 C.ar    
  25 C25            0.2018     8.0179    -0.4028 C.ar    
  26 O26            4.0624     5.9403     1.3335 O.2     
  27 H27           -0.9551     1.9143     0.0170 H       
  28 H28           -0.9184    -0.5689     0.0081 H       
  29 H29            1.2807    -1.7283    -0.0191 H       
  30 H30            3.3479    -0.3949    -0.0317 H       
  31 H31            2.3600     6.4399     0.5624 H       
  32 H32            3.5824     2.8983     1.0971 H       
  33 H33            6.3157     6.2932     2.3606 H       
  34 H34            8.4462     5.5320     3.3254 H       
  35 H35            8.9210     3.1267     3.5272 H       
  36 H36            7.2703     1.4690     2.7662 H       
  37 H37            5.1311     2.2087     1.8040 H       
  38 H38           -1.9491     5.5958    -1.4034 H       
  39 H39           -3.2789     7.5793    -1.9948 H       
  40 H40           -2.3872     9.8333    -1.5739 H       
  41 H41           -0.1627    10.1158    -0.5617 H       
  42 H42            1.1781     8.1433     0.0416 H       
@<TRIPOS>BOND
   1    1    2 ar
   2    1    6 ar
   3    1   27 1
   4    2    3 ar
   5    2   28 1
   6    3    4 ar
   7    3   29 1
   8    4    5 ar
   9    4   30 1
  10    5    6 ar
  11    6    7 1
  12    7    8 1
  13    7   11 1
  14    8    9 2
  15    8   12 1
  16    9   10 1
  17    9   31 1
  18   10   11 2
  19   10   20 1
  20   12   13 am
  21   12   32 1
  22   13   14 1
  23   13   26 2
  24   14   15 ar
  25   14   19 ar
  26   15   16 ar
  27   15   33 1
  28   16   17 ar
  29   16   34 1
  30   17   18 ar
  31   17   35 1
  32   18   19 ar
  33   18   36 1
  34   19   37 1
  35   20   21 ar
  36   20   25 ar
  37   21   22 ar
  38   21   38 1
  39   22   23 ar
  40   22   39 1
  41   23   24 ar
  42   23   40 1
  43   24   25 ar
  44   24   41 1
  45   25   42 1

#	End of record

