#	Name: ASD01841010
#	Creating user name:	WinNT
#	Creation time:	15. 06. 2019 19:38

#	Modifying user name:	WinNT
#	Modification time:	15. 06. 2019 19:38

#	Program:	/corina/corina34_cracker 3.40 0067  02.08.2006

@<TRIPOS>MOLECULE
ASD01841010
  86   89    0    0    0
SMALL
NO_CHARGES


@<TRIPOS>ATOM
   1 C1            -0.0178     1.4648     0.0101 C.3     
   2 N2             0.0021    -0.0041     0.0020 N.4     
   3 C3            -1.3761    -0.5125     0.0124 C.3     
   4 C4            -2.0530    -0.1242     1.3284 C.3     
   5 C5            -3.4113    -2.1015     1.3308 C.3     
   6 C6             0.6897    -0.4778    -1.2066 C.3     
   7 C7             2.1588    -0.0534    -1.1571 C.3     
   8 C8             2.8749    -0.5468    -2.4159 C.3     
   9 C9             4.3440    -0.1223    -2.3663 C.3     
  10 C10            5.0199    -0.5002    -3.6592 C.ar    
  11 C11            4.4296     1.3697    -2.1721 C.ar    
  12 O12            4.9941    -0.7823    -1.2783 O.3     
  13 C13            6.3674    -0.8087    -3.6702 C.ar    
  14 C14            6.9874    -1.1553    -4.8561 C.ar    
  15 C15            6.2599    -1.1938    -6.0309 C.ar    
  16 C16            4.9122    -0.8861    -6.0197 C.ar    
  17 C17            4.2913    -0.5438    -4.8331 C.ar    
  18 C18            5.5062     1.9187    -1.5012 C.ar    
  19 C19            5.5847     3.2873    -1.3230 C.ar    
  20 C20            4.5867     4.1068    -1.8162 C.ar    
  21 C21            3.5105     3.5578    -2.4880 C.ar    
  22 C22            3.4342     2.1896    -2.6699 C.ar    
  23 C23           -4.1188    -0.1589     2.5475 C.3     
  24 C24           -5.5879    -0.5833     2.4979 C.3     
  25 C25           -6.3040    -0.0899     3.7568 C.3     
  26 C26           -7.7731    -0.5144     3.7072 C.3     
  27 O27           -8.3943     0.0534     2.5523 O.3     
  28 C28           -7.8597    -2.0172     3.6365 C.ar    
  29 C29           -8.4785    -0.0284     4.9471 C.ar    
  30 C30           -9.8246     0.2824     4.8996 C.ar    
  31 C31          -10.4716     0.7283     6.0369 C.ar    
  32 C32           -9.7726     0.8629     7.2218 C.ar    
  33 C33           -8.4267     0.5512     7.2696 C.ar    
  34 C34           -7.7807     0.1012     6.1334 C.ar    
  35 C35           -8.9220    -2.6186     2.9878 C.ar    
  36 C36           -9.0014    -3.9971     2.9230 C.ar    
  37 C37           -8.0183    -4.7743     3.5064 C.ar    
  38 C38           -6.9555    -4.1729     4.1543 C.ar    
  39 C39           -6.8738    -2.7943     4.2154 C.ar    
  40 N40           -3.4312    -0.6326     1.3389 N.4     
  41 H41            1.0047     1.8421     0.0024 H       
  42 H42           -0.5450     1.8259    -0.8730 H       
  43 H43           -0.5280     1.8163     0.9069 H       
  44 H44            0.4901    -0.3383     0.8195 H       
  45 H45           -1.9290    -0.0808    -0.8218 H       
  46 H46           -1.3635    -1.5983    -0.0831 H       
  47 H47           -1.5001    -0.5559     2.1627 H       
  48 H48           -2.0656     0.9616     1.4240 H       
  49 H49           -2.8841    -2.4625     2.2138 H       
  50 H50           -4.4339    -2.4787     1.3385 H       
  51 H51           -2.9011    -2.4530     0.4340 H       
  52 H52            0.6270    -1.5648    -1.2578 H       
  53 H53            0.2158    -0.0447    -2.0875 H       
  54 H54            2.2214     1.0336    -1.1059 H       
  55 H55            2.6326    -0.4865    -0.2761 H       
  56 H56            2.8123    -1.6338    -2.4670 H       
  57 H57            2.4011    -0.1137    -3.2968 H       
  58 H58            4.9778    -1.7474    -1.3374 H       
  59 H59            6.9358    -0.7787    -2.7524 H       
  60 H60            8.0403    -1.3957    -4.8648 H       
  61 H61            6.7444    -1.4639    -6.9575 H       
  62 H62            4.3439    -0.9159    -6.9376 H       
  63 H63            3.2384    -0.3034    -4.8243 H       
  64 H64            6.2859     1.2784    -1.1158 H       
  65 H65            6.4255     3.7162    -0.7982 H       
  66 H66            4.6476     5.1760    -1.6764 H       
  67 H67            2.7306     4.1981    -2.8730 H       
  68 H68            2.5934     1.7607    -3.1948 H       
  69 H69           -4.0562     0.9281     2.5986 H       
  70 H70           -3.6449    -0.5920     3.4284 H       
  71 H71           -6.0617    -0.1502     1.6170 H       
  72 H72           -5.6505    -1.6703     2.4468 H       
  73 H73           -5.8302    -0.5230     4.6377 H       
  74 H74           -6.2414     0.9971     3.8079 H       
  75 H75           -8.3757     1.0200     2.5308 H       
  76 H76          -10.3707     0.1773     3.9738 H       
  77 H77          -11.5232     0.9718     5.9995 H       
  78 H78          -10.2780     1.2119     8.1102 H       
  79 H79           -7.8805     0.6567     8.1953 H       
  80 H80           -6.7292    -0.1423     6.1707 H       
  81 H81           -9.6901    -2.0114     2.5320 H       
  82 H82           -9.8318    -4.4670     2.4168 H       
  83 H83           -8.0807    -5.8513     3.4564 H       
  84 H84           -6.1876    -4.7801     4.6104 H       
  85 H85           -6.0435    -2.3245     4.7215 H       
  86 H86           -3.9192    -0.2984     0.5214 H       
@<TRIPOS>BOND
   1    1    2 1
   2    1   41 1
   3    1   42 1
   4    1   43 1
   5    2    3 1
   6    2    6 1
   7    2   44 1
   8    3    4 1
   9    3   45 1
  10    3   46 1
  11    4   40 1
  12    4   47 1
  13    4   48 1
  14    5   40 1
  15    5   49 1
  16    5   50 1
  17    5   51 1
  18    6    7 1
  19    6   52 1
  20    6   53 1
  21    7    8 1
  22    7   54 1
  23    7   55 1
  24    8    9 1
  25    8   56 1
  26    8   57 1
  27    9   10 1
  28    9   11 1
  29    9   12 1
  30   10   13 ar
  31   10   17 ar
  32   11   18 ar
  33   11   22 ar
  34   12   58 1
  35   13   14 ar
  36   13   59 1
  37   14   15 ar
  38   14   60 1
  39   15   16 ar
  40   15   61 1
  41   16   17 ar
  42   16   62 1
  43   17   63 1
  44   18   19 ar
  45   18   64 1
  46   19   20 ar
  47   19   65 1
  48   20   21 ar
  49   20   66 1
  50   21   22 ar
  51   21   67 1
  52   22   68 1
  53   23   24 1
  54   23   40 1
  55   23   69 1
  56   23   70 1
  57   24   25 1
  58   24   71 1
  59   24   72 1
  60   25   26 1
  61   25   73 1
  62   25   74 1
  63   26   27 1
  64   26   28 1
  65   26   29 1
  66   27   75 1
  67   28   35 ar
  68   28   39 ar
  69   29   30 ar
  70   29   34 ar
  71   30   31 ar
  72   30   76 1
  73   31   32 ar
  74   31   77 1
  75   32   33 ar
  76   32   78 1
  77   33   34 ar
  78   33   79 1
  79   34   80 1
  80   35   36 ar
  81   35   81 1
  82   36   37 ar
  83   36   82 1
  84   37   38 ar
  85   37   83 1
  86   38   39 ar
  87   38   84 1
  88   39   85 1
  89   40   86 1

#	End of record

