#	Name: ASD09200031
#	Creating user name:	WinNT
#	Creation time:	15. 06. 2019 21:21

#	Modifying user name:	WinNT
#	Modification time:	15. 06. 2019 21:21

#	Program:	/corina/corina34_cracker 3.40 0067  02.08.2006

@<TRIPOS>MOLECULE
ASD09200031
  46   49    0    0    0
SMALL
NO_CHARGES


@<TRIPOS>ATOM
   1 N1            -0.0162     1.3436     0.0094 N.am    
   2 C2             0.0021    -0.0041     0.0020 C.2     
   3 S3             1.2788    -0.9040    -0.0145 S.o     
   4 C4             0.4647    -2.4795    -0.0155 C.2     
   5 C5            -0.8519    -2.1596    -0.0018 C.2     
   6 N6            -1.0705    -0.8046     0.0133 N.am    
   7 C7            -1.9334    -3.1594     0.0026 C.ar    
   8 C8            -1.6201    -4.5221    -0.0071 C.ar    
   9 C9            -2.6554    -5.4660    -0.0023 C.ar    
  10 C10           -4.0034    -5.0243     0.0124 C.ar    
  11 C11           -4.2872    -3.6417     0.0219 C.ar    
  12 C12           -3.2742    -2.7381     0.0225 C.ar    
  13 C13           -2.3782    -6.8466    -0.0122 C.ar    
  14 C14           -3.4068    -7.7450    -0.0077 C.ar    
  15 C15           -4.7297    -7.3153     0.0067 C.ar    
  16 C16           -5.0360    -5.9712     0.0167 C.ar    
  17 C17            1.2377     2.1093     0.0016 C.3     
  18 C18            1.1992     3.1065    -1.1607 C.3     
  19 C19           -0.0617     3.9665    -1.0481 C.3     
  20 C20           -1.3006     3.0725    -1.1375 C.3     
  21 C21           -1.2905     2.0749     0.0193 C.3     
  22 C22           -0.0593     4.7015     0.2938 C.3     
  23 N23           -0.0852     4.9462    -2.1424 N.3     
  24 Br24          -3.0276    -9.5975    -0.0217 Br      
  25 H25            1.7146    -0.7877    -1.2816 H       
  26 H26            0.9127    -3.4622    -0.0254 H       
  27 H27           -1.9695    -0.4405     0.0245 H       
  28 H28           -0.5892    -4.8441    -0.0185 H       
  29 H29           -5.3124    -3.3021     0.0330 H       
  30 H30           -3.5014    -1.6823     0.0301 H       
  31 H31           -1.3556    -7.1938    -0.0238 H       
  32 H32           -5.5269    -8.0439     0.0097 H       
  33 H33           -6.0670    -5.6498     0.0282 H       
  34 H34            1.3422     2.6490     0.9428 H       
  35 H35            2.0801     1.4297    -0.1278 H       
  36 H36            2.0807     3.7463    -1.1204 H       
  37 H37            1.1861     2.5635    -2.1057 H       
  38 H38           -2.1983     3.6881    -1.0807 H       
  39 H39           -1.2902     2.5298    -2.0827 H       
  40 H40           -2.1167     1.3733    -0.0959 H       
  41 H41           -1.3914     2.6095     0.9638 H       
  42 H42            0.8224     5.3393     0.3571 H       
  43 H43           -0.9573     5.3141     0.3741 H       
  44 H44           -0.0412     3.9749     1.1060 H       
  45 H45           -0.9088     5.5268    -2.0904 H       
  46 H46            0.7533     5.5074    -2.1434 H       
@<TRIPOS>BOND
   1    1    2 am
   2    1   17 1
   3    1   21 1
   4    2    3 2
   5    2    6 am
   6    3    4 1
   7    3   25 1
   8    4    5 2
   9    4   26 1
  10    5    6 1
  11    5    7 1
  12    6   27 1
  13    7    8 ar
  14    7   12 ar
  15    8    9 ar
  16    8   28 1
  17    9   10 ar
  18    9   13 ar
  19   10   11 ar
  20   10   16 ar
  21   11   12 ar
  22   11   29 1
  23   12   30 1
  24   13   14 ar
  25   13   31 1
  26   14   15 ar
  27   14   24 1
  28   15   16 ar
  29   15   32 1
  30   16   33 1
  31   17   18 1
  32   17   34 1
  33   17   35 1
  34   18   19 1
  35   18   36 1
  36   18   37 1
  37   19   20 1
  38   19   22 1
  39   19   23 1
  40   20   21 1
  41   20   38 1
  42   20   39 1
  43   21   40 1
  44   21   41 1
  45   22   42 1
  46   22   43 1
  47   22   44 1
  48   23   45 1
  49   23   46 1

#	End of record

