#	Name: ASD01870160
#	Creating user name:	WinNT
#	Creation time:	15. 06. 2019 19:38

#	Modifying user name:	WinNT
#	Modification time:	15. 06. 2019 19:38

#	Program:	/corina/corina34_cracker 3.40 0067  02.08.2006

@<TRIPOS>MOLECULE
ASD01870160
  59   63    0    0    0
SMALL
NO_CHARGES


@<TRIPOS>ATOM
   1 C1            -0.0168     1.3890     0.0097 C.ar    
   2 C2             0.0021    -0.0041     0.0020 C.ar    
   3 C3             1.1787    -0.6895    -0.0125 C.ar    
   4 C4             2.3941     0.0134    -0.0203 C.ar    
   5 C5             2.3756     1.4326    -0.0130 C.ar    
   6 C6             1.1407     2.1050     0.0025 C.ar    
   7 C7             3.6272    -0.6637    -0.0358 C.ar    
   8 C8             4.7900     0.0351    -0.0436 C.ar    
   9 C9             4.7882     1.4439    -0.0361 C.ar    
  10 C10            3.5864     2.1337    -0.0214 C.ar    
  11 C11            5.8880     2.4286    -0.0415 C.2     
  12 N12            5.3952     3.6790    -0.0301 N.am    
  13 C13            3.9298     3.6021    -0.0168 C.3     
  14 C14            6.1876     4.9112    -0.0312 C.3     
  15 C15            7.0575     4.9570    -1.2890 C.3     
  16 C16            7.8851     6.2438    -1.2901 C.3     
  17 C17            8.7800     6.2758    -0.0495 C.3     
  18 C18            7.9100     6.2300     1.2082 C.3     
  19 C19            7.0825     4.9431     1.2094 C.3     
  20 C20            3.6565    -2.1704    -0.0431 C.3     
  21 C21            3.5284    -2.6685    -1.4596 C.ar    
  22 C22            4.6620    -2.8728    -2.2245 C.ar    
  23 C23            4.5472    -3.3294    -3.5233 C.ar    
  24 C24            3.2932    -3.5828    -4.0599 C.ar    
  25 C25            2.1574    -3.3770    -3.2904 C.ar    
  26 C26            2.2778    -2.9258    -1.9903 C.ar    
  27 C27            6.1626     4.9250    -2.5295 C.3     
  28 O28            7.0708     2.1485    -0.0540 O.2     
  29 O29            3.1777    -4.0315    -5.3375 O.3     
  30 C30            1.8555    -4.2713    -5.8238 C.3     
  31 H31           -0.9637     1.9083     0.0170 H       
  32 H32           -0.9306    -0.5486     0.0080 H       
  33 H33            1.1770    -1.7695    -0.0175 H       
  34 H34            1.1108     3.1846     0.0079 H       
  35 H35            5.7302    -0.4960    -0.0555 H       
  36 H36            3.5210     4.0855    -0.9040 H       
  37 H37            3.5378     4.0759     0.8832 H       
  38 H38            5.5198     5.7726    -0.0198 H       
  39 H39            7.7253     4.0956    -1.3004 H       
  40 H40            8.5048     6.2765    -2.1862 H       
  41 H41            7.2173     7.1053    -1.2787 H       
  42 H42            9.4478     5.4144    -0.0610 H       
  43 H43            9.3695     7.1926    -0.0504 H       
  44 H44            8.5476     6.2528     2.0920 H       
  45 H45            7.2422     7.0914     1.2197 H       
  46 H46            6.4627     4.9105     2.1054 H       
  47 H47            7.7503     4.0817     1.1979 H       
  48 H48            4.5991    -2.5175     0.3803 H       
  49 H49            2.8279    -2.5529     0.5529 H       
  50 H50            5.6379    -2.6750    -1.8064 H       
  51 H51            5.4329    -3.4885    -4.1205 H       
  52 H52            1.1801    -3.5736    -3.7059 H       
  53 H53            1.3939    -2.7654    -1.3908 H       
  54 H54            5.4948     5.7864    -2.5181 H       
  55 H55            6.7824     4.9576    -3.4256 H       
  56 H56            5.5730     4.0082    -2.5287 H       
  57 H57            1.9057    -4.6252    -6.8535 H       
  58 H58            1.3714    -5.0256    -5.2035 H       
  59 H59            1.2809    -3.3458    -5.7854 H       
@<TRIPOS>BOND
   1    1    2 ar
   2    1    6 ar
   3    1   31 1
   4    2    3 ar
   5    2   32 1
   6    3    4 ar
   7    3   33 1
   8    4    5 ar
   9    4    7 ar
  10    5    6 ar
  11    5   10 ar
  12    6   34 1
  13    7    8 ar
  14    7   20 1
  15    8    9 ar
  16    8   35 1
  17    9   10 ar
  18    9   11 1
  19   10   13 1
  20   11   12 am
  21   11   28 2
  22   12   13 1
  23   12   14 1
  24   13   36 1
  25   13   37 1
  26   14   15 1
  27   14   19 1
  28   14   38 1
  29   15   16 1
  30   15   27 1
  31   15   39 1
  32   16   17 1
  33   16   40 1
  34   16   41 1
  35   17   18 1
  36   17   42 1
  37   17   43 1
  38   18   19 1
  39   18   44 1
  40   18   45 1
  41   19   46 1
  42   19   47 1
  43   20   21 1
  44   20   48 1
  45   20   49 1
  46   21   22 ar
  47   21   26 ar
  48   22   23 ar
  49   22   50 1
  50   23   24 ar
  51   23   51 1
  52   24   25 ar
  53   24   29 1
  54   25   26 ar
  55   25   52 1
  56   26   53 1
  57   27   54 1
  58   27   55 1
  59   27   56 1
  60   29   30 1
  61   30   57 1
  62   30   58 1
  63   30   59 1

#	End of record

