#	Name: ASD00431146
#	Creating user name:	WinNT
#	Creation time:	15. 06. 2019 18:35

#	Modifying user name:	WinNT
#	Modification time:	15. 06. 2019 18:35

#	Program:	/corina/corina34_cracker 3.40 0067  02.08.2006

@<TRIPOS>MOLECULE
ASD00431146
  53   56    0    0    0
SMALL
NO_CHARGES


@<TRIPOS>ATOM
   1 C1            -0.4701     1.7341    -0.7749 C.2     
   2 C2            -0.7153     0.3065    -1.1905 C.3     
   3 O3             0.6406     2.0852    -0.4374 O.2     
   4 N4            -1.4839     2.6222    -0.7837 N.am    
   5 C5            -1.2455     4.0100    -0.3798 C.3     
   6 C6            -0.7298     4.8087    -1.5785 C.3     
   7 O7            -3.7541     4.4418    -0.4143 O.3     
   8 N8            -4.6004     5.0556     0.1929 N.2     
   9 C9            -4.0795     5.7214     1.1976 C.2     
  10 C10           -2.6814     5.4459     1.1701 C.2     
  11 C11           -2.5335     4.6182     0.1125 C.2     
  12 S12           -4.0717     7.4657     3.5008 S.3     
  13 C13           -5.6056     8.0790     3.9404 C.2     
  14 N14           -6.5175     7.6326     3.1325 N.2     
  15 C15           -6.1232     6.8297     2.1687 C.2     
  16 C16           -4.7967     6.5815     2.1604 C.2     
  17 O17           -5.8361     8.9113     4.9835 O.3     
  18 C18           -7.1278     9.1923     5.3026 C.ar    
  19 C19           -7.4132    10.1753     6.2409 C.ar    
  20 C20           -8.7260    10.4607     6.5643 C.ar    
  21 C21           -9.7581     9.7651     5.9515 C.ar    
  22 C22           -9.4726     8.7831     5.0148 C.ar    
  23 C23           -8.1603     8.5013     4.6868 C.ar    
  24 O24          -11.0499    10.0459     6.2697 O.3     
  25 C25          -12.0618     9.2910     5.6001 C.3     
  26 O26          -15.0970    11.2638     5.2366 O.3     
  27 C27          -13.7263    11.1970     5.6472 C.3     
  28 C28          -13.4406     9.7442     6.0844 C.3     
  29 C29          -14.5668     8.9552     5.3626 C.3     
  30 C30          -15.7246     9.9836     5.4120 C.3     
  31 Cl31          -6.1213    11.0450     7.0078 Cl      
  32 H32            0.2158    -0.2563    -1.1240 H       
  33 H33           -1.4585    -0.1414    -0.5308 H       
  34 H34           -1.0806     0.2845    -2.2172 H       
  35 H35           -2.3714     2.3423    -1.0575 H       
  36 H36           -0.5040     4.0338     0.4188 H       
  37 H37           -0.5524     5.8413    -1.2780 H       
  38 H38            0.2018     4.3688    -1.9346 H       
  39 H39           -1.4713     4.7850    -2.3771 H       
  40 H40           -1.9175     5.8137     1.8391 H       
  41 H41           -6.8032     6.4048     1.4452 H       
  42 H42           -8.9485    11.2249     7.2943 H       
  43 H43          -10.2763     8.2414     4.5385 H       
  44 H44           -7.9386     7.7398     3.9538 H       
  45 H45          -11.9834     9.4518     4.5249 H       
  46 H46          -11.9297     8.2316     5.8197 H       
  47 H47          -13.0772    11.4669     4.8141 H       
  48 H48          -13.5575    11.8749     6.4838 H       
  49 H49          -13.5229     9.6414     7.1664 H       
  50 H50          -14.2886     8.7260     4.3339 H       
  51 H51          -14.8235     8.0480     5.9095 H       
  52 H52          -16.2295     9.9389     6.3770 H       
  53 H53          -16.4325     9.7955     4.6048 H       
@<TRIPOS>BOND
   1    1    2 1
   2    1    3 2
   3    1    4 am
   4    2   32 1
   5    2   33 1
   6    2   34 1
   7    4    5 1
   8    4   35 1
   9    5    6 1
  10    5   11 1
  11    5   36 1
  12    6   37 1
  13    6   38 1
  14    6   39 1
  15    7    8 1
  16    7   11 1
  17    8    9 2
  18    9   10 1
  19    9   16 1
  20   10   11 2
  21   10   40 1
  22   12   13 1
  23   12   16 1
  24   13   14 2
  25   13   17 1
  26   14   15 1
  27   15   16 2
  28   15   41 1
  29   17   18 1
  30   18   19 ar
  31   18   23 ar
  32   19   20 ar
  33   19   31 1
  34   20   21 ar
  35   20   42 1
  36   21   22 ar
  37   21   24 1
  38   22   23 ar
  39   22   43 1
  40   23   44 1
  41   24   25 1
  42   25   28 1
  43   25   45 1
  44   25   46 1
  45   26   27 1
  46   26   30 1
  47   27   28 1
  48   27   47 1
  49   27   48 1
  50   28   29 1
  51   28   49 1
  52   29   30 1
  53   29   50 1
  54   29   51 1
  55   30   52 1
  56   30   53 1

#	End of record

