#	Name: ASD01150303
#	Creating user name:	WinNT
#	Creation time:	15. 06. 2019 19:04

#	Modifying user name:	WinNT
#	Modification time:	15. 06. 2019 19:04

#	Program:	/corina/corina34_cracker 3.40 0067  02.08.2006

@<TRIPOS>MOLECULE
ASD01150303
  78   81    0    0    0
SMALL
NO_CHARGES


@<TRIPOS>ATOM
   1 N1            -0.6345     2.1486    -0.0182 N.pl3   
   2 C2            -0.4316     0.7667     0.0010 C.2     
   3 C3            -1.6975     0.1938     0.0048 C.2     
   4 N4            -2.5936     1.1845    -0.0113 N.2     
   5 C5            -1.9793     2.3488    -0.0199 C.2     
   6 N6            -1.9806    -1.1663     0.0217 N.am    
   7 C7             0.8052     0.0912     0.0138 C.2     
   8 C8             0.3571     3.1381    -0.0277 C.ar    
   9 C9             0.4948     3.9745    -1.1276 C.ar    
  10 C10            1.4731     4.9494    -1.1338 C.ar    
  11 C11            2.3152     5.0928    -0.0463 C.ar    
  12 C12            2.1808     4.2612     1.0503 C.ar    
  13 C13            1.2005     3.2884     1.0650 C.ar    
  14 N14           -2.6008     3.5762    -0.0364 N.3     
  15 C15           -4.0621     3.4262    -0.0439 C.3     
  16 C16           -2.1624     4.4035     1.0955 C.3     
  17 O17            0.8339    -1.1262     0.0303 O.2     
  18 O18            1.9585     0.7938     0.0080 O.3     
  19 C19            3.1750     0.0441     0.0218 C.3     
  20 C20            3.2345    -0.8542    -1.2153 C.3     
  21 C21            4.3660     1.0044     0.0125 C.3     
  22 C22            3.2268    -0.8206     1.2829 C.3     
  23 C23           -3.2607    -1.5882     0.0235 C.2     
  24 O24           -4.1670    -0.7808     0.1027 O.2     
  25 C25           -3.5617    -3.0250    -0.0703 C.2     
  26 C26           -2.6555    -4.0527    -0.2687 C.2     
  27 C27           -3.4196    -5.2217    -0.2838 C.2     
  28 N28           -4.6718    -4.8853    -0.1066 N.2     
  29 N29           -4.7908    -3.6134     0.0268 N.pl3   
  30 C30           -2.8951    -6.6220    -0.4712 C.3     
  31 C31           -2.2081    -7.0857     0.8148 C.3     
  32 C32           -4.0572    -7.5626    -0.7963 C.3     
  33 C33           -1.8875    -6.6394    -1.6225 C.3     
  34 C34           -6.0532    -2.9013     0.2405 C.3     
  35 C35           -6.3735    -2.8773     1.7128 C.ar    
  36 C36           -6.0486    -1.7695     2.4725 C.ar    
  37 C37           -6.3424    -1.7466     3.8232 C.ar    
  38 C38           -6.9620    -2.8326     4.4151 C.ar    
  39 C39           -7.2875    -3.9419     3.6550 C.ar    
  40 C40           -6.9980    -3.9622     2.3027 C.ar    
  41 Cl41          -7.4065    -5.3534     1.3481 Cl      
  42 Cl42          -7.3305    -2.8039     6.1113 Cl      
  43 H43           -1.2571    -1.8123     0.0323 H       
  44 H44           -0.1621     3.8625    -1.9775 H       
  45 H45            1.5807     5.6002    -1.9889 H       
  46 H46            3.0796     5.8557    -0.0537 H       
  47 H47            2.8402     4.3755     1.8979 H       
  48 H48            1.0958     2.6395     1.9219 H       
  49 H49           -4.3766     2.8871     0.8497 H       
  50 H50           -4.5284     4.4113    -0.0569 H       
  51 H51           -4.3656     2.8688    -0.9301 H       
  52 H52           -1.0847     4.5567     1.0377 H       
  53 H53           -2.6690     5.3679     1.0584 H       
  54 H54           -2.4081     3.8998     2.0304 H       
  55 H55            3.1976    -0.2381    -2.1138 H       
  56 H56            4.1624    -1.4260    -1.2048 H       
  57 H57            2.3860    -1.5384    -1.2088 H       
  58 H58            4.3236     1.6444     0.8939 H       
  59 H59            5.2939     0.4326     0.0231 H       
  60 H60            4.3291     1.6205    -0.8859 H       
  61 H61            2.3783    -1.5048     1.2895 H       
  62 H62            4.1547    -1.3925     1.2934 H       
  63 H63            3.1844    -0.1807     2.1642 H       
  64 H64           -1.5853    -3.9683    -0.3868 H       
  65 H65           -2.9259    -7.0733     1.6350 H       
  66 H66           -1.8287    -8.0985     0.6792 H       
  67 H67           -1.3802    -6.4156     1.0464 H       
  68 H68           -4.5466    -7.2323    -1.7125 H       
  69 H69           -3.6778    -8.5754    -0.9319 H       
  70 H70           -4.7750    -7.5502     0.0239 H       
  71 H71           -1.0596    -5.9693    -1.3909 H       
  72 H72           -1.5081    -7.6522    -1.7581 H       
  73 H73           -2.3769    -6.3090    -2.5387 H       
  74 H74           -5.9609    -1.8796    -0.1280 H       
  75 H75           -6.8531    -3.4106    -0.2971 H       
  76 H76           -5.5646    -0.9215     2.0110 H       
  77 H77           -6.0880    -0.8807     4.4164 H       
  78 H78           -7.7709    -4.7902     4.1168 H       
@<TRIPOS>BOND
   1    1    2 1
   2    1    8 1
   3    1    5 1
   4    2    3 2
   5    2    7 1
   6    3    4 1
   7    3    6 1
   8    4    5 2
   9    5   14 1
  10    6   23 am
  11    6   43 1
  12    7   17 2
  13    7   18 1
  14    8    9 ar
  15    8   13 ar
  16    9   10 ar
  17    9   44 1
  18   10   11 ar
  19   10   45 1
  20   11   12 ar
  21   11   46 1
  22   12   13 ar
  23   12   47 1
  24   13   48 1
  25   14   15 1
  26   14   16 1
  27   15   49 1
  28   15   50 1
  29   15   51 1
  30   16   52 1
  31   16   53 1
  32   16   54 1
  33   18   19 1
  34   19   20 1
  35   19   21 1
  36   19   22 1
  37   20   55 1
  38   20   56 1
  39   20   57 1
  40   21   58 1
  41   21   59 1
  42   21   60 1
  43   22   61 1
  44   22   62 1
  45   22   63 1
  46   23   24 2
  47   23   25 1
  48   25   26 2
  49   25   29 1
  50   26   27 1
  51   26   64 1
  52   27   28 2
  53   27   30 1
  54   28   29 1
  55   29   34 1
  56   30   31 1
  57   30   32 1
  58   30   33 1
  59   31   65 1
  60   31   66 1
  61   31   67 1
  62   32   68 1
  63   32   69 1
  64   32   70 1
  65   33   71 1
  66   33   72 1
  67   33   73 1
  68   34   35 1
  69   34   74 1
  70   34   75 1
  71   35   36 ar
  72   35   40 ar
  73   36   37 ar
  74   36   76 1
  75   37   38 ar
  76   37   77 1
  77   38   39 ar
  78   38   42 1
  79   39   40 ar
  80   39   78 1
  81   40   41 1

#	End of record

