#	Name: ASD03540302
#	Creating user name:	WinNT
#	Creation time:	15. 06. 2019 20:43

#	Modifying user name:	WinNT
#	Modification time:	15. 06. 2019 20:43

#	Program:	/corina/corina34_cracker 3.40 0067  02.08.2006

@<TRIPOS>MOLECULE
ASD03540302
  58   61    0    0    0
SMALL
NO_CHARGES


@<TRIPOS>ATOM
   1 C1            -0.0167     1.3831     0.0096 C.ar    
   2 C2             0.0021    -0.0041     0.0020 C.ar    
   3 C3             1.2141    -0.6789    -0.0132 C.ar    
   4 C4             2.3989     0.0314    -0.0207 C.ar    
   5 C5             2.3774     1.4139    -0.0126 C.ar    
   6 C6             1.1708     2.0889     0.0021 C.ar    
   7 O7            -1.1648    -0.7006     0.0099 O.3     
   8 C8            -1.0693    -2.1264     0.0013 C.3     
   9 C9             3.6714     2.1863    -0.0198 C.3     
  10 N10            4.0783     2.4445    -1.4033 N.am    
  11 C11            5.2138     3.1251    -1.6559 C.2     
  12 C12            5.6207     3.3833    -3.0392 C.2     
  13 O13            5.9013     3.5253    -0.7345 O.2     
  14 S14            4.7304     2.8683    -4.4606 S.3     
  15 C15            5.8815     3.5666    -5.5121 C.2     
  16 C16            6.9018     4.1669    -4.7842 C.2     
  17 C17            6.7266     4.0536    -3.4031 C.2     
  18 N18            5.9262     3.6092    -6.8943 N.am    
  19 C19            6.9317     4.2161    -7.5410 C.2     
  20 N20            7.9433     4.8120    -6.8894 N.am    
  21 C21            7.9889     4.8237    -5.5443 C.2     
  22 O22            8.9095     5.3662    -4.9620 O.2     
  23 O23            6.9277     4.2268    -8.7567 O.2     
  24 C24            4.8533     2.9781    -7.6669 C.3     
  25 C25            9.0130     5.4584    -7.6536 C.3     
  26 C26            8.6466     6.9223    -7.9058 C.3     
  27 S27            9.9711     7.7227    -8.8522 S.o2    
  28 C28            9.4183     9.3821    -9.0651 C.ar    
  29 O29           11.1458     7.8434    -8.0617 O.2     
  30 O30           10.0269     7.1998   -10.1723 O.2     
  31 C31            9.7433    10.3442    -8.1270 C.ar    
  32 C32            9.3106    11.6461    -8.2932 C.ar    
  33 C33            8.5515    11.9868    -9.3998 C.ar    
  34 C34            8.2266    11.0225   -10.3388 C.ar    
  35 C35            8.6648     9.7223   -10.1731 C.ar    
  36 F36            8.1276    13.2592    -9.5631 F       
  37 H37           -0.9590     1.9108     0.0170 H       
  38 H38            1.2314    -1.7588    -0.0188 H       
  39 H39            3.3426    -0.4935    -0.0325 H       
  40 H40            1.1567     3.1688     0.0084 H       
  41 H41           -2.0703    -2.5577     0.0089 H       
  42 H42           -0.5412    -2.4498    -0.8957 H       
  43 H43           -0.5235    -2.4593     0.8841 H       
  44 H44            3.5318     3.1338     0.5007 H       
  45 H45            4.4441     1.6055     0.4838 H       
  46 H46            3.5304     2.1257    -2.1375 H       
  47 H47            7.4251     4.4632    -2.6885 H       
  48 H48            4.0608     3.7041    -7.8483 H       
  49 H49            5.2497     2.6273    -8.6198 H       
  50 H50            4.4513     2.1334    -7.1075 H       
  51 H51            9.9439     5.4089    -7.0889 H       
  52 H52            9.1389     4.9459    -8.6074 H       
  53 H53            7.7156     6.9718    -8.4706 H       
  54 H54            8.5207     7.4348    -6.9521 H       
  55 H55           10.3351    10.0781    -7.2637 H       
  56 H56            9.5643    12.3974    -7.5600 H       
  57 H57            7.6345    11.2871   -11.2023 H       
  58 H58            8.4116     8.9699   -10.9054 H       
@<TRIPOS>BOND
   1    1    2 ar
   2    1    6 ar
   3    1   37 1
   4    2    3 ar
   5    2    7 1
   6    3    4 ar
   7    3   38 1
   8    4    5 ar
   9    4   39 1
  10    5    6 ar
  11    5    9 1
  12    6   40 1
  13    7    8 1
  14    8   41 1
  15    8   42 1
  16    8   43 1
  17    9   10 1
  18    9   44 1
  19    9   45 1
  20   10   11 am
  21   10   46 1
  22   11   12 1
  23   11   13 2
  24   12   14 1
  25   12   17 2
  26   14   15 1
  27   15   16 2
  28   15   18 1
  29   16   17 1
  30   16   21 1
  31   17   47 1
  32   18   19 am
  33   18   24 1
  34   19   20 am
  35   19   23 2
  36   20   21 am
  37   20   25 1
  38   21   22 2
  39   24   48 1
  40   24   49 1
  41   24   50 1
  42   25   26 1
  43   25   51 1
  44   25   52 1
  45   26   27 1
  46   26   53 1
  47   26   54 1
  48   27   28 1
  49   27   29 2
  50   27   30 2
  51   28   31 ar
  52   28   35 ar
  53   31   32 ar
  54   31   55 1
  55   32   33 ar
  56   32   56 1
  57   33   34 ar
  58   33   36 1
  59   34   35 ar
  60   34   57 1
  61   35   58 1

#	End of record

