#	Name: ASD05430317
#	Creating user name:	WinNT
#	Creation time:	15. 06. 2019 21:00

#	Modifying user name:	WinNT
#	Modification time:	15. 06. 2019 21:00

#	Program:	/corina/corina34_cracker 3.40 0067  02.08.2006

@<TRIPOS>MOLECULE
ASD05430317
  56   60    0    0    0
SMALL
NO_CHARGES


@<TRIPOS>ATOM
   1 N1            -0.1464     1.5994     0.0971 N.pl3   
   2 N2            -0.3732     0.2596     0.2278 N.3     
   3 C3             0.3458    -0.4628    -0.8370 C.3     
   4 C4             1.8207    -0.0584    -0.8361 C.3     
   5 C5             1.9540     1.4461    -1.1017 C.3     
   6 C6             1.2010     2.1974     0.0024 C.3     
   7 O7             0.9516     3.5530    -0.3872 O.3     
   8 N8            -0.4486     3.7479    -0.2908 N.2     
   9 C9            -1.0526     2.6317    -0.0076 C.2     
  10 C10            1.9329     2.1137     1.3170 C.ar    
  11 C11            3.1572     2.7381     1.4669 C.ar    
  12 C12            1.3769     1.4174     2.3740 C.ar    
  13 C13            2.0468     1.3407     3.5803 C.ar    
  14 C14            3.2755     1.9612     3.7300 C.ar    
  15 C15            3.8291     2.6624     2.6721 C.ar    
  16 F16            3.9313     1.8869     4.9088 F       
  17 C17           -2.5026     2.4907     0.1747 C.2     
  18 C18           -3.3041     3.5646     0.0502 C.2     
  19 C19           -4.7580     3.4232     0.2330 C.ar    
  20 C20           -5.3081     2.1735     0.5361 C.ar    
  21 C21           -5.5915     4.5389     0.1097 C.ar    
  22 C22           -6.9557     4.4006     0.2828 C.ar    
  23 C23           -7.4977     3.1505     0.5796 C.ar    
  24 C24           -6.6690     2.0431     0.7073 C.ar    
  25 N25           -8.8812     3.0122     0.7552 N.pl3   
  26 C26           -9.6742     3.7750     1.5516 C.2     
  27 N27          -10.9020     3.3433     1.4515 N.2     
  28 C28          -10.9404     2.3060     0.6020 C.2     
  29 C29           -9.6907     2.0854     0.1511 C.2     
  30 O30           -7.7692     5.4834     0.1641 O.3     
  31 C31           -7.1460     6.7327    -0.1408 C.3     
  32 C32          -12.1701     1.5256     0.2151 C.3     
  33 H33           -0.0922    -0.0674     1.1400 H       
  34 H34            0.2646    -1.5360    -0.6648 H       
  35 H35           -0.0961    -0.2179    -1.8028 H       
  36 H36            2.2598    -0.2947     0.1331 H       
  37 H37            2.3475    -0.6109    -1.6141 H       
  38 H38            3.0063     1.7299    -1.0876 H       
  39 H39            1.5205     1.6878    -2.0722 H       
  40 H40            3.5888     3.2849     0.6417 H       
  41 H41            0.4185     0.9334     2.2571 H       
  42 H42            1.6120     0.7972     4.4061 H       
  43 H43            4.7876     3.1465     2.7876 H       
  44 H44           -2.9260     1.5251     0.4087 H       
  45 H45           -2.8807     4.5302    -0.1838 H       
  46 H46           -4.6662     1.3107     0.6356 H       
  47 H47           -5.1703     5.5065    -0.1198 H       
  48 H48           -7.0929     1.0767     0.9369 H       
  49 H49           -9.3442     4.6001     2.1653 H       
  50 H50           -9.3841     1.3206    -0.5471 H       
  51 H51           -7.9060     7.5112    -0.2073 H       
  52 H52           -6.4348     6.9855     0.6456 H       
  53 H53           -6.6218     6.6544    -1.0933 H       
  54 H54          -12.6306     1.9836    -0.6603 H       
  55 H55          -11.8903     0.4981    -0.0172 H       
  56 H56          -12.8791     1.5308     1.0431 H       
@<TRIPOS>BOND
   1    1    2 1
   2    1    6 1
   3    1    9 1
   4    2    3 1
   5    2   33 1
   6    3    4 1
   7    3   34 1
   8    3   35 1
   9    4    5 1
  10    4   36 1
  11    4   37 1
  12    5    6 1
  13    5   38 1
  14    5   39 1
  15    6    7 1
  16    6   10 1
  17    7    8 1
  18    8    9 2
  19    9   17 1
  20   10   11 ar
  21   10   12 ar
  22   11   15 ar
  23   11   40 1
  24   12   13 ar
  25   12   41 1
  26   13   14 ar
  27   13   42 1
  28   14   15 ar
  29   14   16 1
  30   15   43 1
  31   17   18 2
  32   17   44 1
  33   18   19 1
  34   18   45 1
  35   19   20 ar
  36   19   21 ar
  37   20   24 ar
  38   20   46 1
  39   21   22 ar
  40   21   47 1
  41   22   23 ar
  42   22   30 1
  43   23   24 ar
  44   23   25 1
  45   24   48 1
  46   25   26 1
  47   25   29 1
  48   26   27 2
  49   26   49 1
  50   27   28 1
  51   28   29 2
  52   28   32 1
  53   29   50 1
  54   30   31 1
  55   31   51 1
  56   31   52 1
  57   31   53 1
  58   32   54 1
  59   32   55 1
  60   32   56 1

#	End of record

