#	Name: ASD08170025
#	Creating user name:	WinNT
#	Creation time:	15. 06. 2019 21:17

#	Modifying user name:	WinNT
#	Modification time:	15. 06. 2019 21:17

#	Program:	/corina/corina34_cracker 3.40 0067  02.08.2006

@<TRIPOS>MOLECULE
ASD08170025
  40   42    0    0    0
SMALL
NO_CHARGES


@<TRIPOS>ATOM
   1 C1            -0.0167     1.3794     0.0096 C.ar    
   2 C2             0.0021    -0.0041     0.0020 C.ar    
   3 C3             1.2042    -0.6806    -0.0131 C.ar    
   4 C4             2.4035     0.0338    -0.0207 C.ar    
   5 C5             2.3774     1.4295    -0.0129 C.ar    
   6 C6             1.1683     2.0936     0.0021 C.ar    
   7 C7             3.6952    -0.6843    -0.0363 C.2     
   8 C8             6.0659    -0.6669    -0.0584 C.2     
   9 N9             6.2265    -1.9589    -0.0668 N.2     
  10 N10            7.4071    -2.4016    -0.0851 N.2     
  11 C11            8.3761    -1.5441    -0.0941 C.2     
  12 S12            7.6684     0.0725    -0.0766 S.3     
  13 C13            9.8477    -1.8683    -0.1153 C.3     
  14 C14           10.3265    -1.9708    -1.5649 C.3     
  15 C15           11.8205    -2.3000    -1.5864 C.3     
  16 C16           12.2993    -2.4025    -3.0359 C.3     
  17 C17           13.7709    -2.7268    -3.0571 C.2     
  18 S18           15.0924    -1.5571    -3.0688 S.3     
  19 C19           16.2358    -2.9015    -3.0908 C.2     
  20 N20           15.5466    -4.0066    -3.0871 N.2     
  21 N21           14.2894    -3.9114    -3.0643 N.2     
  22 N22           17.6190    -2.7995    -3.1087 N.pl3   
  23 O23            3.7149    -1.8998    -0.0427 O.2     
  24 N24            4.8513     0.0084    -0.0436 N.am    
  25 H25           -0.9606     1.9042     0.0169 H       
  26 H26           -0.9265    -0.5555     0.0083 H       
  27 H27            1.2175    -1.7605    -0.0186 H       
  28 H28            3.3017     1.9882    -0.0187 H       
  29 H29            1.1467     3.1734     0.0082 H       
  30 H30           10.4008    -1.0799     0.3951 H       
  31 H31           10.0178    -2.8182     0.3915 H       
  32 H32            9.7733    -2.7592    -2.0753 H       
  33 H33           10.1564    -1.0210    -2.0717 H       
  34 H34           12.3736    -1.5116    -1.0759 H       
  35 H35           11.9906    -3.2499    -1.0795 H       
  36 H36           11.7462    -3.1909    -3.5464 H       
  37 H37           12.1292    -1.4527    -3.5428 H       
  38 H38           18.0409    -1.9261    -3.1099 H       
  39 H39           18.1643    -3.6016    -3.1199 H       
  40 H40            4.8357     0.9782    -0.0386 H       
@<TRIPOS>BOND
   1    1    2 ar
   2    1    6 ar
   3    1   25 1
   4    2    3 ar
   5    2   26 1
   6    3    4 ar
   7    3   27 1
   8    4    5 ar
   9    4    7 1
  10    5    6 ar
  11    5   28 1
  12    6   29 1
  13    7   23 2
  14    7   24 am
  15    8    9 2
  16    8   12 1
  17    8   24 1
  18    9   10 1
  19   10   11 2
  20   11   12 1
  21   11   13 1
  22   13   14 1
  23   13   30 1
  24   13   31 1
  25   14   15 1
  26   14   32 1
  27   14   33 1
  28   15   16 1
  29   15   34 1
  30   15   35 1
  31   16   17 1
  32   16   36 1
  33   16   37 1
  34   17   18 1
  35   17   21 2
  36   18   19 1
  37   19   20 2
  38   19   22 1
  39   20   21 1
  40   22   38 1
  41   22   39 1
  42   24   40 1

#	End of record

