#	Name: ASD03330835
#	Creating user name:	WinNT
#	Creation time:	15. 06. 2019 20:38

#	Modifying user name:	WinNT
#	Modification time:	15. 06. 2019 20:38

#	Program:	/corina/corina34_cracker 3.40 0067  02.08.2006

@<TRIPOS>MOLECULE
ASD03330835
  69   72    0    0    0
SMALL
NO_CHARGES


@<TRIPOS>ATOM
   1 C1             0.2013     2.0150    -1.0921 C.2     
   2 N2             0.2554     0.7345    -1.5284 N.pl3   
   3 C3             1.4539     2.3507    -0.6747 C.2     
   4 N4             2.2553     1.2823    -0.8769 N.2     
   5 C5             1.5446     0.3085    -1.3950 C.2     
   6 C6             2.0558    -1.0281    -1.7716 C.ar    
   7 C7             1.2173    -2.1422    -1.7052 C.ar    
   8 C8             1.8614     3.6471    -0.1047 C.2     
   9 O9             1.0432     4.5371     0.0283 O.2     
  10 C10            3.5460     5.1354     0.8359 C.3     
  11 N11            3.1408     3.8466     0.2692 N.am    
  12 C12            1.6935    -3.3892    -2.0568 C.ar    
  13 C13            3.0009    -3.5425    -2.4760 C.ar    
  14 C14            3.8481    -2.4375    -2.5460 C.ar    
  15 C15            3.3733    -1.1767    -2.1987 C.ar    
  16 C16           -0.8812    -0.0399    -2.0348 C.3     
  17 C17           -1.6591     0.8100    -3.0443 C.3     
  18 C18           -2.7031     1.6494    -2.3147 C.3     
  19 N19           -2.2221     2.0524    -0.9916 N.3     
  20 C20           -1.0216     2.8952    -1.0939 C.3     
  21 C21           -3.2795     2.7324    -0.2317 C.3     
  22 C22            3.2593     5.1444     2.3387 C.3     
  23 C23            3.9691     3.9616     3.0005 C.3     
  24 C24            3.7706     6.4516     2.9476 C.3     
  25 C25            1.7514     5.0292     2.5710 C.3     
  26 C26            5.0203     5.3446     0.6045 C.2     
  27 O27            5.7386     4.3952     0.3730 O.2     
  28 N28            5.5407     6.5869     0.6547 N.am    
  29 C29            6.9514     6.8040     0.3245 C.3     
  30 C30            5.2521    -2.6049    -2.9961 C.ar    
  31 C31            5.7454    -3.8616    -3.3544 C.ar    
  32 C32            7.0592    -3.9728    -3.7679 C.ar    
  33 N33            7.8425    -2.9119    -3.8260 N.ar    
  34 C34            7.4144    -1.7080    -3.4962 C.ar    
  35 C35            6.1153    -1.5081    -3.0784 C.ar    
  36 Cl36           7.6878    -5.5277    -4.2161 Cl      
  37 H37            0.1944    -2.0283    -1.3779 H       
  38 H38            2.9853     5.9364     0.3542 H       
  39 H39            3.7934     3.1367     0.1631 H       
  40 H40            1.0415    -4.2485    -2.0036 H       
  41 H41            3.3676    -4.5207    -2.7497 H       
  42 H42            4.0262    -0.3179    -2.2518 H       
  43 H43           -0.5173    -0.9437    -2.5234 H       
  44 H44           -1.5354    -0.3109    -1.2062 H       
  45 H45           -0.9689     1.4682    -3.5720 H       
  46 H46           -2.1558     0.1567    -3.7616 H       
  47 H47           -2.9206     2.5407    -2.9033 H       
  48 H48           -3.6162     1.0652    -2.2009 H       
  49 H49           -0.9813     3.5766    -0.2440 H       
  50 H50           -1.0567     3.4683    -2.0204 H       
  51 H51           -4.1268     2.0584    -0.1052 H       
  52 H52           -2.8955     3.0209     0.7468 H       
  53 H53           -3.6008     3.6224    -0.7727 H       
  54 H54            5.0433     4.0437     2.8350 H       
  55 H55            3.7648     3.9681     4.0712 H       
  56 H56            3.6048     3.0303     2.5667 H       
  57 H57            3.2835     7.2952     2.4585 H       
  58 H58            3.5438     6.4691     4.0136 H       
  59 H59            4.8489     6.5218     2.8044 H       
  60 H60            1.3871     4.0980     2.1372 H       
  61 H61            1.5471     5.0357     3.6416 H       
  62 H62            1.2457     5.8719     2.0995 H       
  63 H63            4.9812     7.3371     0.9094 H       
  64 H64            7.1881     7.8636     0.4206 H       
  65 H65            7.5770     6.2287     1.0070 H       
  66 H66            7.1387     6.4812    -0.6996 H       
  67 H67            5.1097    -4.7334    -3.3086 H       
  68 H68            8.0894    -0.8672    -3.5581 H       
  69 H69            5.7721    -0.5198    -2.8105 H       
@<TRIPOS>BOND
   1    1    2 1
   2    1    3 2
   3    1   20 1
   4    2   16 1
   5    2    5 1
   6    3    4 1
   7    3    8 1
   8    4    5 2
   9    5    6 1
  10    6    7 ar
  11    6   15 ar
  12    7   12 ar
  13    7   37 1
  14    8    9 2
  15    8   11 am
  16   10   11 1
  17   10   22 1
  18   10   26 1
  19   10   38 1
  20   11   39 1
  21   12   13 ar
  22   12   40 1
  23   13   14 ar
  24   13   41 1
  25   14   15 ar
  26   14   30 1
  27   15   42 1
  28   16   17 1
  29   16   43 1
  30   16   44 1
  31   17   18 1
  32   17   45 1
  33   17   46 1
  34   18   19 1
  35   18   47 1
  36   18   48 1
  37   19   20 1
  38   19   21 1
  39   20   49 1
  40   20   50 1
  41   21   51 1
  42   21   52 1
  43   21   53 1
  44   22   23 1
  45   22   24 1
  46   22   25 1
  47   23   54 1
  48   23   55 1
  49   23   56 1
  50   24   57 1
  51   24   58 1
  52   24   59 1
  53   25   60 1
  54   25   61 1
  55   25   62 1
  56   26   27 2
  57   26   28 am
  58   28   29 1
  59   28   63 1
  60   29   64 1
  61   29   65 1
  62   29   66 1
  63   30   31 ar
  64   30   35 ar
  65   31   32 ar
  66   31   67 1
  67   32   33 ar
  68   32   36 1
  69   33   34 ar
  70   34   35 ar
  71   34   68 1
  72   35   69 1

#	End of record

