#	Name: ASD02408432
#	Creating user name:	WinNT
#	Creation time:	15. 06. 2019 20:21

#	Modifying user name:	WinNT
#	Modification time:	15. 06. 2019 20:21

#	Program:	/corina/corina34_cracker 3.40 0067  02.08.2006

@<TRIPOS>MOLECULE
ASD02408432
  40   43    0    0    0
SMALL
NO_CHARGES


@<TRIPOS>ATOM
   1 N1            -0.0163     1.3527     0.0095 N.am    
   2 C2             0.0021    -0.0041     0.0020 C.2     
   3 N3             1.1021    -0.6986    -0.0122 N.2     
   4 C4             2.3094    -0.1135    -0.0206 C.2     
   5 C5             2.3912     1.2882    -0.0138 C.2     
   6 C6             1.1433     2.0510     0.0022 C.2     
   7 N7             3.5893    -0.5767    -0.0357 N.pl3   
   8 N8             4.4547     0.5245    -0.0383 N.2     
   9 C9             3.7573     1.6273    -0.0255 C.2     
  10 C10           -1.3127    -0.7406     0.0111 C.3     
  11 C11           -1.0527    -2.2483     0.0004 C.3     
  12 C12            3.9745    -1.9233    -0.0460 C.ar    
  13 C13            5.1051    -2.3178    -0.7485 C.ar    
  14 C14            5.4828    -3.6476    -0.7563 C.ar    
  15 C15            4.7348    -4.5844    -0.0651 C.ar    
  16 C16            3.6083    -4.1934     0.6352 C.ar    
  17 C17            3.2294    -2.8655     0.6513 C.ar    
  18 O18            1.1474     3.2694     0.0083 O.2     
  19 C19           -2.3810    -3.0132     0.1355 C.3     
  20 C20           -2.5266    -3.8719    -1.1378 C.3     
  21 C21           -1.0735    -4.0503    -1.6437 C.3     
  22 C22           -0.4374    -2.6689    -1.3502 C.3     
  23 Cl23           6.8963    -4.1427    -1.6342 Cl      
  24 H24           -0.8640     1.8242     0.0160 H       
  25 H25            4.1596     2.6295    -0.0240 H       
  26 H26           -1.8719    -0.4746     0.9081 H       
  27 H27           -1.8896    -0.4651    -0.8717 H       
  28 H28           -0.3824    -2.5171     0.8168 H       
  29 H29            5.6885    -1.5868    -1.2885 H       
  30 H30            5.0311    -5.6230    -0.0729 H       
  31 H31            3.0262    -4.9269     1.1734 H       
  32 H32            2.3495    -2.5612     1.1985 H       
  33 H33           -2.3550    -3.6538     1.0170 H       
  34 H34           -3.2109    -2.3102     0.2087 H       
  35 H35           -2.9682    -4.8389    -0.8973 H       
  36 H36           -3.1285    -3.3510    -1.8824 H       
  37 H37           -0.5642    -4.8364    -1.0863 H       
  38 H38           -1.0601    -4.2625    -2.7128 H       
  39 H39           -0.7020    -1.9538    -2.1292 H       
  40 H40            0.6456    -2.7580    -1.2648 H       
@<TRIPOS>BOND
   1    1    2 1
   2    1    6 am
   3    1   24 1
   4    2    3 2
   5    2   10 1
   6    3    4 1
   7    4    5 2
   8    4    7 1
   9    5    6 1
  10    5    9 1
  11    6   18 2
  12    7    8 1
  13    7   12 1
  14    8    9 2
  15    9   25 1
  16   10   11 1
  17   10   26 1
  18   10   27 1
  19   11   19 1
  20   11   22 1
  21   11   28 1
  22   12   13 ar
  23   12   17 ar
  24   13   14 ar
  25   13   29 1
  26   14   15 ar
  27   14   23 1
  28   15   16 ar
  29   15   30 1
  30   16   17 ar
  31   16   31 1
  32   17   32 1
  33   19   20 1
  34   19   33 1
  35   19   34 1
  36   20   21 1
  37   20   35 1
  38   20   36 1
  39   21   22 1
  40   21   37 1
  41   21   38 1
  42   22   39 1
  43   22   40 1

#	End of record

