#	Name: ASD00310414
#	Creating user name:	WinNT
#	Creation time:	15. 06. 2019 18:34

#	Modifying user name:	WinNT
#	Modification time:	15. 06. 2019 18:34

#	Program:	/corina/corina34_cracker 3.40 0067  02.08.2006

@<TRIPOS>MOLECULE
ASD00310414
  43   46    0    0    0
SMALL
NO_CHARGES


@<TRIPOS>ATOM
   1 N1            -0.0163     1.3500     0.0095 N.pl3   
   2 C2             0.0021    -0.0041     0.0020 C.2     
   3 C3             1.2921    -0.4483    -0.0127 C.2     
   4 C4             2.1475     0.7539    -0.0144 C.ar    
   5 C5             3.5230     0.9583    -0.0264 C.ar    
   6 C6             4.0239     2.2538    -0.0243 C.ar    
   7 C7             3.1465     3.3436    -0.0100 C.ar    
   8 C8             1.7850     3.1436     0.0019 C.ar    
   9 C9             1.2694     1.8502    -0.0001 C.ar    
  10 C10            1.7402    -1.8454    -0.0240 C.2     
  11 O11            2.9286    -2.1027    -0.0364 O.2     
  12 O12            0.8342    -2.8441    -0.0208 O.3     
  13 C13            5.4898     2.4821    -0.0365 C.ar    
  14 C14            6.0532     3.3601    -0.9605 C.ar    
  15 C15            7.4174     3.5690    -0.9671 C.ar    
  16 C16            8.2252     2.9084    -0.0591 C.ar    
  17 C17            7.6714     2.0358     0.8602 C.ar    
  18 C18            6.3078     1.8237     0.8796 C.ar    
  19 C19            9.7143     3.1399    -0.0719 C.3     
  20 C20           10.0866     4.1295     1.0352 C.3     
  21 C21           11.6072     4.3134     1.0548 C.3     
  22 C22           12.2731     2.9475     1.2479 C.3     
  23 C23           11.8163     2.0035     0.1325 C.3     
  24 O24           10.3911     1.9012     0.1508 O.3     
  25 Cl25           3.7801     4.9599    -0.0068 Cl      
  26 H26           -0.8206     1.8922     0.0164 H       
  27 H27           -0.8729    -0.6372     0.0070 H       
  28 H28            4.1975     0.1150    -0.0370 H       
  29 H29            1.1155     3.9910     0.0128 H       
  30 H30            1.1773    -3.7482    -0.0286 H       
  31 H31            5.4234     3.8758    -1.6703 H       
  32 H32            7.8550     4.2492    -1.6828 H       
  33 H33            8.3069     1.5225     1.5667 H       
  34 H34            5.8759     1.1457     1.6008 H       
  35 H35           10.0107     3.5474    -1.0384 H       
  36 H36            9.6062     5.0889     0.8430 H       
  37 H37            9.7542     3.7411     1.9979 H       
  38 H38           11.9341     4.7481     0.1103 H       
  39 H39           11.8841     4.9735     1.8768 H       
  40 H40           13.3564     3.0614     1.2078 H       
  41 H41           11.9849     2.5351     2.2149 H       
  42 H42           12.1402     2.3962    -0.8313 H       
  43 H43           12.2536     1.0174     0.2891 H       
@<TRIPOS>BOND
   1    1    2 1
   2    1    9 1
   3    1   26 1
   4    2    3 2
   5    2   27 1
   6    3    4 1
   7    3   10 1
   8    4    5 ar
   9    4    9 ar
  10    5    6 ar
  11    5   28 1
  12    6    7 ar
  13    6   13 1
  14    7    8 ar
  15    7   25 1
  16    8    9 ar
  17    8   29 1
  18   10   11 2
  19   10   12 1
  20   12   30 1
  21   13   14 ar
  22   13   18 ar
  23   14   15 ar
  24   14   31 1
  25   15   16 ar
  26   15   32 1
  27   16   17 ar
  28   16   19 1
  29   17   18 ar
  30   17   33 1
  31   18   34 1
  32   19   20 1
  33   19   24 1
  34   19   35 1
  35   20   21 1
  36   20   36 1
  37   20   37 1
  38   21   22 1
  39   21   38 1
  40   21   39 1
  41   22   23 1
  42   22   40 1
  43   22   41 1
  44   23   24 1
  45   23   42 1
  46   23   43 1

#	End of record

