#	Name: ASD09610026
#	Creating user name:	WinNT
#	Creation time:	15. 06. 2019 21:22

#	Modifying user name:	WinNT
#	Modification time:	15. 06. 2019 21:22

#	Program:	/corina/corina34_cracker 3.40 0067  02.08.2006

@<TRIPOS>MOLECULE
ASD09610026
  41   44    0    0    0
SMALL
NO_CHARGES


@<TRIPOS>ATOM
   1 C1            -0.0104     1.3175    -0.1929 C.2     
   2 N2             0.0061    -0.0106    -0.0276 N.2     
   3 C3             1.1331    -0.6645     0.1578 C.2     
   4 C4             2.3559     0.0268     0.1866 C.2     
   5 C5             2.3478     1.4085     0.0154 C.2     
   6 N6             1.1511     2.0367    -0.1737 N.pl3   
   7 N7             0.7918     3.3761    -0.3731 N.2     
   8 C8            -0.5122     3.4091    -0.4988 C.2     
   9 N9            -1.0013     2.1794    -0.3968 N.2     
  10 C10            3.6310    -0.7014     0.3959 C.ar    
  11 C11            4.1831    -0.7936     1.6741 C.ar    
  12 C12            5.3713    -1.4738     1.8634 C.ar    
  13 C13            6.0139    -2.0633     0.7872 C.ar    
  14 C14            5.4704    -1.9748    -0.4838 C.ar    
  15 C15            4.2799    -1.3016    -0.6838 C.ar    
  16 F16            3.7480    -1.2208    -1.9231 F       
  17 F17            7.1754    -2.7266     0.9778 F       
  18 F18            3.5576    -0.2188     2.7245 F       
  19 N19            3.5216     2.1255     0.0370 N.pl3   
  20 C20            3.7777     3.1107     1.0965 C.3     
  21 C21            4.1330     4.4520     0.4472 C.3     
  22 C22            5.3013     4.2520    -0.5208 C.3     
  23 C23            4.8899     3.2750    -1.6246 C.3     
  24 C24            4.5457     1.9164    -0.9957 C.3     
  25 C25            5.6815     5.5960    -1.1454 C.3     
  26 Cl26           1.1086    -2.3876     0.3680 Cl      
  27 H27           -1.0991     4.3006    -0.6636 H       
  28 H28            5.7997    -1.5455     2.8522 H       
  29 H29            5.9756    -2.4363    -1.3194 H       
  30 H30            2.8848     3.2272     1.7107 H       
  31 H31            4.6086     2.7733     1.7161 H       
  32 H32            3.2693     4.8321    -0.0984 H       
  33 H33            4.4187     5.1658     1.2198 H       
  34 H34            6.1568     3.8486     0.0209 H       
  35 H35            4.0192     3.6662    -2.1508 H       
  36 H36            5.7145     3.1511    -2.3267 H       
  37 H37            5.4379     1.4835    -0.5431 H       
  38 H38            4.1597     1.2445    -1.7623 H       
  39 H39            5.9757     6.2917    -0.3595 H       
  40 H40            6.5136     5.4538    -1.8349 H       
  41 H41            4.8260     6.0001    -1.6867 H       
@<TRIPOS>BOND
   1    1    2 1
   2    1    6 1
   3    1    9 2
   4    2    3 2
   5    3    4 1
   6    3   26 1
   7    4    5 2
   8    4   10 1
   9    5    6 1
  10    5   19 1
  11    6    7 1
  12    7    8 2
  13    8    9 1
  14    8   27 1
  15   10   11 ar
  16   10   15 ar
  17   11   12 ar
  18   11   18 1
  19   12   13 ar
  20   12   28 1
  21   13   14 ar
  22   13   17 1
  23   14   15 ar
  24   14   29 1
  25   15   16 1
  26   19   20 1
  27   19   24 1
  28   20   21 1
  29   20   30 1
  30   20   31 1
  31   21   22 1
  32   21   32 1
  33   21   33 1
  34   22   23 1
  35   22   25 1
  36   22   34 1
  37   23   24 1
  38   23   35 1
  39   23   36 1
  40   24   37 1
  41   24   38 1
  42   25   39 1
  43   25   40 1
  44   25   41 1

#	End of record

