#	Name: ASD01912496
#	Creating user name:	WinNT
#	Creation time:	15. 06. 2019 19:59

#	Modifying user name:	WinNT
#	Modification time:	15. 06. 2019 19:59

#	Program:	/corina/corina34_cracker 3.40 0067  02.08.2006

@<TRIPOS>MOLECULE
ASD01912496
  47   50    0    0    0
SMALL
NO_CHARGES


@<TRIPOS>ATOM
   1 C1            -0.0472     1.4673    -0.0235 C.2     
   2 O2            -0.0643     0.1324    -0.0893 O.3     
   3 N3            -1.2090    -0.2686    -0.0943 N.2     
   4 C4            -2.0388     0.7402    -0.0337 C.2     
   5 N5            -1.2937     1.8674     0.0177 N.2     
   6 C6            -3.5209     0.6623    -0.0184 C.ar    
   7 C7            -4.1561    -0.5762    -0.0709 C.ar    
   8 C8            -5.5360    -0.6428    -0.0564 C.ar    
   9 C9            -6.2862     0.5185     0.0102 C.ar    
  10 C10           -5.6594     1.7504     0.0624 C.ar    
  11 C11           -4.2815     1.8276     0.0543 C.ar    
  12 Cl12          -6.3301    -2.1851    -0.1223 Cl      
  13 C13            1.1764     2.3465     0.0046 C.3     
  14 C14            2.1065     2.0762     1.2013 C.3     
  15 N15            3.2175     2.2073     0.2388 N.am    
  16 C16            2.3285     1.8337    -0.8784 C.3     
  17 C17            4.5207     2.5360     0.3396 C.2     
  18 N18            5.3246     2.4423    -0.7381 N.am    
  19 O19            4.9710     2.9171     1.4027 O.2     
  20 C20            6.7062     2.9396    -0.6869 C.3     
  21 C21            7.6513     1.8159    -1.1238 C.3     
  22 C22            7.2203     1.2977    -2.4979 C.3     
  23 C23            5.8023     0.7290    -2.4087 C.3     
  24 C24            4.8380     1.8353    -1.9845 C.3     
  25 O25            5.4124     0.2176    -3.6848 O.3     
  26 C26            4.4960    -0.8768    -3.6171 C.3     
  27 H27           -3.5712    -1.4826    -0.1232 H       
  28 H28           -7.3647     0.4626     0.0210 H       
  29 H29           -6.2495     2.6535     0.1143 H       
  30 H30           -3.7936     2.7902     0.0955 H       
  31 H31            0.9451     3.4016    -0.1419 H       
  32 H32            2.0867     2.8597     1.9588 H       
  33 H33            2.0038     1.0752     1.6201 H       
  34 H34            2.2911     0.7614    -1.0705 H       
  35 H35            2.4860     2.4236    -1.7814 H       
  36 H36            6.8137     3.7900    -1.3603 H       
  37 H37            6.9473     3.2445     0.3314 H       
  38 H38            8.6698     2.1995    -1.1828 H       
  39 H39            7.6095     1.0030    -0.3990 H       
  40 H40            7.2385     2.1167    -3.2169 H       
  41 H41            7.9058     0.5148    -2.8221 H       
  42 H42            5.7780    -0.0737    -1.6717 H       
  43 H43            3.8459     1.4135    -1.8239 H       
  44 H44            4.7918     2.5977    -2.7621 H       
  45 H45            3.5870    -0.5585    -3.1067 H       
  46 H46            4.2494    -1.2071    -4.6262 H       
  47 H47            4.9526    -1.6995    -3.0668 H       
@<TRIPOS>BOND
   1    1    2 1
   2    1   13 1
   3    1    5 2
   4    2    3 1
   5    3    4 2
   6    4    5 1
   7    4    6 1
   8    6    7 ar
   9    6   11 ar
  10    7    8 ar
  11    7   27 1
  12    8    9 ar
  13    8   12 1
  14    9   10 ar
  15    9   28 1
  16   10   11 ar
  17   10   29 1
  18   11   30 1
  19   13   14 1
  20   13   16 1
  21   13   31 1
  22   14   15 1
  23   14   32 1
  24   14   33 1
  25   15   16 1
  26   15   17 am
  27   16   34 1
  28   16   35 1
  29   17   18 am
  30   17   19 2
  31   18   20 1
  32   18   24 1
  33   20   21 1
  34   20   36 1
  35   20   37 1
  36   21   22 1
  37   21   38 1
  38   21   39 1
  39   22   23 1
  40   22   40 1
  41   22   41 1
  42   23   24 1
  43   23   25 1
  44   23   42 1
  45   24   43 1
  46   24   44 1
  47   25   26 1
  48   26   45 1
  49   26   46 1
  50   26   47 1

#	End of record

