#	Name: ASD03092215
#	Creating user name:	WinNT
#	Creation time:	15. 06. 2019 20:32

#	Modifying user name:	WinNT
#	Modification time:	15. 06. 2019 20:32

#	Program:	/corina/corina34_cracker 3.40 0067  02.08.2006

@<TRIPOS>MOLECULE
ASD03092215
  39   41    0    0    0
SMALL
NO_CHARGES


@<TRIPOS>ATOM
   1 C1            -3.0383     0.6903    -2.0153 C.3     
   2 C2            -2.3864    -0.6150    -1.5545 C.3     
   3 O3            -1.3301    -0.9626    -2.4520 O.3     
   4 C4            -0.6478    -2.0966    -2.1857 C.2     
   5 O5            -0.9433    -2.7712    -1.2166 O.2     
   6 C6             0.4104    -2.5008    -3.0327 C.2     
   7 S7             1.0847    -1.5716    -4.3688 S.3     
   8 C8             2.1965    -2.8251    -4.7026 C.2     
   9 N9             3.1333    -2.7914    -5.7140 N.pl3   
  10 C10            3.3093    -1.6251    -6.4655 C.ar    
  11 C11            3.3306    -0.3882    -5.8354 C.ar    
  12 C12            3.5047     0.7629    -6.5812 C.ar    
  13 Cl13           3.5316     2.3101    -5.7943 Cl      
  14 C14            3.6581     0.6830    -7.9540 C.ar    
  15 C15            3.6368    -0.5477    -8.5847 C.ar    
  16 C16            3.4689    -1.7023    -7.8445 C.ar    
  17 Cl17           3.4507    -3.2471    -8.6362 Cl      
  18 N18            2.0410    -3.8146    -3.8743 N.2     
  19 C19            1.1044    -3.6920    -2.9571 C.2     
  20 C20            0.8192    -4.7344    -1.9442 C.ar    
  21 C21           -0.4966    -5.1181    -1.6857 C.ar    
  22 C22           -0.7558    -6.0901    -0.7413 C.ar    
  23 C23            0.2862    -6.6834    -0.0511 C.ar    
  24 C24            1.5934    -6.3067    -0.3028 C.ar    
  25 C25            1.8658    -5.3403    -1.2492 C.ar    
  26 H26           -2.2927     1.4854    -2.0243 H       
  27 H27           -3.4425     0.5599    -3.0191 H       
  28 H28           -3.8440     0.9554    -1.3307 H       
  29 H29           -1.9821    -0.4846    -0.5507 H       
  30 H30           -3.1319    -1.4101    -1.5456 H       
  31 H31            3.6701    -3.5765    -5.9043 H       
  32 H32            3.2109    -0.3252    -4.7639 H       
  33 H33            3.7943     1.5835    -8.5344 H       
  34 H34            3.7565    -0.6067    -9.6564 H       
  35 H35           -1.3108    -4.6552    -2.2233 H       
  36 H36           -1.7742    -6.3881    -0.5402 H       
  37 H37            0.0782    -7.4435     0.6874 H       
  38 H38            2.4025    -6.7730     0.2397 H       
  39 H39            2.8870    -5.0505    -1.4483 H       
@<TRIPOS>BOND
   1    1    2 1
   2    1   26 1
   3    1   27 1
   4    1   28 1
   5    2    3 1
   6    2   29 1
   7    2   30 1
   8    3    4 1
   9    4    5 2
  10    4    6 1
  11    6   19 2
  12    6    7 1
  13    7    8 1
  14    8    9 1
  15    8   18 2
  16    9   10 1
  17    9   31 1
  18   10   16 ar
  19   10   11 ar
  20   11   12 ar
  21   11   32 1
  22   12   13 1
  23   12   14 ar
  24   14   15 ar
  25   14   33 1
  26   15   16 ar
  27   15   34 1
  28   16   17 1
  29   18   19 1
  30   19   20 1
  31   20   25 ar
  32   20   21 ar
  33   21   22 ar
  34   21   35 1
  35   22   23 ar
  36   22   36 1
  37   23   24 ar
  38   23   37 1
  39   24   25 ar
  40   24   38 1
  41   25   39 1

#	End of record

