#	Name: ASD03320225
#	Creating user name:	WinNT
#	Creation time:	15. 06. 2019 20:36

#	Modifying user name:	WinNT
#	Modification time:	15. 06. 2019 20:36

#	Program:	/corina/corina34_cracker 3.40 0067  02.08.2006

@<TRIPOS>MOLECULE
ASD03320225
  41   43    0    0    0
SMALL
NO_CHARGES


@<TRIPOS>ATOM
   1 C1            -0.0167     1.3790     0.0096 C.ar    
   2 C2             0.0021    -0.0041     0.0020 C.ar    
   3 C3             1.2063    -0.6844    -0.0132 C.ar    
   4 C4             2.3965     0.0143    -0.0204 C.ar    
   5 C5             2.3835     1.4076    -0.0128 C.ar    
   6 C6             1.1676     2.0878     0.0021 C.ar    
   7 C7             3.6600     2.1642    -0.0205 C.ar    
   8 C8             3.6470     3.5575    -0.0129 C.ar    
   9 C9             4.8373     4.2562    -0.0201 C.ar    
  10 C10            6.0415     3.5758    -0.0349 C.ar    
  11 C11            6.0603     2.1928    -0.0425 C.ar    
  12 C12            4.8760     1.4840    -0.0295 C.ar    
  13 C13           -1.2943    -0.7725     0.0108 C.3     
  14 C14           -1.6545    -1.1484     1.4495 C.3     
  15 N15           -2.9714    -1.7899     1.4714 N.pl3   
  16 C16           -3.2295    -3.0976     1.2542 C.2     
  17 N17           -4.5157    -3.2928     1.3565 N.2     
  18 C18           -5.1187    -2.1287     1.6397 C.2     
  19 C19           -4.1695    -1.1769     1.7217 C.2     
  20 N20           -6.5721    -1.9267     1.8344 N.pl3   
  21 O21           -7.3362    -2.8706     1.7405 O.2     
  22 O22           -7.0040    -0.8165     2.0887 O.2     
  23 C23           -2.2023    -4.1560     0.9450 C.3     
  24 O24           -1.1490    -1.9606    -0.7698 O.3     
  25 H25           -0.9598     1.9052     0.0170 H       
  26 H26            1.2152    -1.7644    -0.0191 H       
  27 H27            3.3362    -0.5179    -0.0315 H       
  28 H28            1.1518     3.1677     0.0078 H       
  29 H29            2.7073     4.0897    -0.0017 H       
  30 H30            4.8284     5.3362    -0.0146 H       
  31 H31            6.9705     4.1265    -0.0409 H       
  32 H32            7.0033     1.6666    -0.0544 H       
  33 H33            4.8918     0.4041    -0.0310 H       
  34 H34           -2.0860    -0.1542    -0.4123 H       
  35 H35           -0.9078    -1.8382     1.8427 H       
  36 H36           -1.6782    -0.2491     2.0649 H       
  37 H37           -4.3240    -0.1306     1.9402 H       
  38 H38           -1.8462    -4.5994     1.8748 H       
  39 H39           -2.6532    -4.9292     0.3230 H       
  40 H40           -1.3644    -3.7048     0.4134 H       
  41 H41           -0.4602    -2.5594    -0.4503 H       
@<TRIPOS>BOND
   1    1    2 ar
   2    1    6 ar
   3    1   25 1
   4    2    3 ar
   5    2   13 1
   6    3    4 ar
   7    3   26 1
   8    4    5 ar
   9    4   27 1
  10    5    6 ar
  11    5    7 1
  12    6   28 1
  13    7    8 ar
  14    7   12 ar
  15    8    9 ar
  16    8   29 1
  17    9   10 ar
  18    9   30 1
  19   10   11 ar
  20   10   31 1
  21   11   12 ar
  22   11   32 1
  23   12   33 1
  24   13   14 1
  25   13   24 1
  26   13   34 1
  27   14   15 1
  28   14   35 1
  29   14   36 1
  30   15   16 1
  31   15   19 1
  32   16   17 2
  33   16   23 1
  34   17   18 1
  35   18   19 2
  36   18   20 1
  37   19   37 1
  38   20   21 2
  39   20   22 2
  40   23   38 1
  41   23   39 1
  42   23   40 1
  43   24   41 1

#	End of record

