#	Name: ASD06020149
#	Creating user name:	WinNT
#	Creation time:	15. 06. 2019 21:04

#	Modifying user name:	WinNT
#	Modification time:	15. 06. 2019 21:04

#	Program:	/corina/corina34_cracker 3.40 0067  02.08.2006

@<TRIPOS>MOLECULE
ASD06020149
  40   42    0    0    0
SMALL
NO_CHARGES


@<TRIPOS>ATOM
   1 C1            -0.0863     1.2060     0.5889 C.2     
   2 N2             0.0021    -0.0041     0.0020 N.am    
   3 O3             0.8930     1.7010     1.1109 O.2     
   4 O4            -1.2583     1.8688     0.5919 O.3     
   5 C5             1.2413    -0.6392    -0.1057 C.ar    
   6 C6             1.3219    -2.0239    -0.0042 C.ar    
   7 C7             2.5428    -2.6553    -0.1093 C.ar    
   8 C8             3.7017    -1.9020    -0.3189 C.ar    
   9 C9             3.6169    -0.5095    -0.4209 C.ar    
  10 C10            2.3895     0.1140    -0.3196 C.ar    
  11 F11            4.7336     0.2235    -0.6234 F       
  12 C12            8.0504    -4.9883    -0.6237 C.ar    
  13 C13            6.9919    -4.0868    -0.5619 C.ar    
  14 C14            7.2424    -2.7148    -0.7051 C.ar    
  15 C15            8.5881    -2.3242    -0.9078 C.ar    
  16 C16            9.5603    -3.2750    -0.9542 C.ar    
  17 N17            9.2820    -4.5608    -0.8149 N.ar    
  18 S18            5.2627    -4.3116    -0.3229 S.3     
  19 C19            5.0113    -2.5741    -0.4316 C.2     
  20 N20            6.1390    -1.9697    -0.6246 N.2     
  21 Cl21           7.7468    -6.6876    -0.4399 Cl      
  22 Cl22           2.6411    -4.3837     0.0188 Cl      
  23 C23           -1.2799     3.1668     1.2423 C.3     
  24 C24           -0.2820     4.0994     0.5526 C.3     
  25 C25           -2.6857     3.7626     1.1452 C.3     
  26 C26           -0.8945     3.0063     2.7142 C.3     
  27 H27           -0.7950    -0.4339    -0.3456 H       
  28 H28            0.4264    -2.6055     0.1577 H       
  29 H29            2.3219     1.1887    -0.4023 H       
  30 H30            8.8407    -1.2807    -1.0250 H       
  31 H31           10.5854    -2.9723    -1.1091 H       
  32 H32           -0.5565     4.2137    -0.4960 H       
  33 H33           -0.2982     5.0738     1.0408 H       
  34 H34            0.7196     3.6749     0.6218 H       
  35 H35           -3.3966     3.0982     1.6365 H       
  36 H36           -2.7019     4.7370     1.6333 H       
  37 H37           -2.9603     3.8770     0.0965 H       
  38 H38            0.1070     2.5818     2.7834 H       
  39 H39           -0.9107     3.9807     3.2024 H       
  40 H40           -1.6054     2.3419     3.2055 H       
@<TRIPOS>BOND
   1    1    2 am
   2    1    3 2
   3    1    4 1
   4    2    5 1
   5    2   27 1
   6    4   23 1
   7    5    6 ar
   8    5   10 ar
   9    6    7 ar
  10    6   28 1
  11    7    8 ar
  12    7   22 1
  13    8    9 ar
  14    8   19 1
  15    9   10 ar
  16    9   11 1
  17   10   29 1
  18   12   13 ar
  19   12   17 ar
  20   12   21 1
  21   13   14 ar
  22   13   18 1
  23   14   15 ar
  24   14   20 1
  25   15   16 ar
  26   15   30 1
  27   16   17 ar
  28   16   31 1
  29   18   19 1
  30   19   20 2
  31   23   24 1
  32   23   26 1
  33   23   25 1
  34   24   32 1
  35   24   33 1
  36   24   34 1
  37   25   35 1
  38   25   36 1
  39   25   37 1
  40   26   38 1
  41   26   39 1
  42   26   40 1

#	End of record

