#	Name: ASD01940020
#	Creating user name:	WinNT
#	Creation time:	15. 06. 2019 20:11

#	Modifying user name:	WinNT
#	Modification time:	15. 06. 2019 20:11

#	Program:	/corina/corina34_cracker 3.40 0067  02.08.2006

@<TRIPOS>MOLECULE
ASD01940020
  50   52    0    0    0
SMALL
NO_CHARGES


@<TRIPOS>ATOM
   1 C1            -0.3055     1.4699     0.4973 C.ar    
   2 C2            -0.3522     0.2642    -0.1902 C.ar    
   3 C3            -1.5467    -0.4199    -0.3046 C.ar    
   4 C4            -2.7000     0.0970     0.2665 C.ar    
   5 C5            -2.6547     1.3027     0.9542 C.ar    
   6 C6            -1.4594     1.9847     1.0746 C.ar    
   7 N7             0.9045     2.1631     0.6132 N.pl3   
   8 C8             0.9126     3.5464     0.6059 C.2     
   9 C9             1.9978     4.3822     0.8277 C.2     
  10 C10            1.6822     5.7398     0.7527 C.2     
  11 N11            0.4464     6.0409     0.4918 N.2     
  12 S12           -0.4187     4.5950     0.3124 S.3     
  13 O13            2.6232     6.7005     0.9439 O.3     
  14 C14            3.3530     3.8846     1.1148 C.2     
  15 N15            3.7431     3.6590     2.4185 N.pl3   
  16 N16            4.1866     3.6564     0.1344 N.2     
  17 C17            5.0919     3.1637     2.7042 C.3     
  18 C18            6.0645     4.3428     2.7717 C.3     
  19 C19            5.0909     2.4260     4.0446 C.3     
  20 O20            4.7963     3.3482     5.0957 O.3     
  21 O21           -3.8757    -0.5767     0.1526 O.3     
  22 C22           -3.8971    -1.6970    -0.6165 C.ar    
  23 C23           -3.5522    -2.9245    -0.0672 C.ar    
  24 C24           -3.5755    -4.0623    -0.8521 C.ar    
  25 C25           -3.9414    -3.9779    -2.1827 C.ar    
  26 C26           -4.2848    -2.7562    -2.7319 C.ar    
  27 C27           -4.2693    -1.6170    -1.9507 C.ar    
  28 Cl28          -3.0917    -3.0305     1.6033 Cl      
  29 Cl29          -4.0987     1.9491     1.6688 Cl      
  30 C30           -3.2014    -5.3954    -0.2572 C.3     
  31 F31           -3.3002    -6.3881    -1.2380 F       
  32 F32           -1.8875    -5.3407     0.2203 F       
  33 F33           -4.0691    -5.6949     0.7985 F       
  34 H34            0.5455    -0.1385    -0.6357 H       
  35 H35           -1.5827    -1.3576    -0.8392 H       
  36 H36           -1.4238     2.9223     1.6094 H       
  37 H37            1.7376     1.6737     0.6988 H       
  38 H38            3.0771     6.9730     0.1347 H       
  39 H39            3.1243     3.8284     3.1460 H       
  40 H40            5.0797     3.3284     0.3237 H       
  41 H41            5.4031     2.4808     1.9138 H       
  42 H42            5.7532     5.0258     3.5622 H       
  43 H43            7.0680     3.9743     2.9844 H       
  44 H44            6.0652     4.8684     1.8168 H       
  45 H45            4.3344     1.6414     4.0269 H       
  46 H46            6.0714     1.9815     4.2154 H       
  47 H47            4.7790     2.9486     5.9761 H       
  48 H48           -3.9586    -4.8678    -2.7944 H       
  49 H49           -4.5699    -2.6933    -3.7717 H       
  50 H50           -4.5380    -0.6633    -2.3805 H       
@<TRIPOS>BOND
   1    1    2 ar
   2    1    7 1
   3    1    6 ar
   4    2    3 ar
   5    2   34 1
   6    3    4 ar
   7    3   35 1
   8    4    5 ar
   9    4   21 1
  10    5    6 ar
  11    5   29 1
  12    6   36 1
  13    7    8 1
  14    7   37 1
  15    8    9 2
  16    8   12 1
  17    9   10 1
  18    9   14 1
  19   10   11 2
  20   10   13 1
  21   11   12 1
  22   13   38 1
  23   14   15 1
  24   14   16 2
  25   15   17 1
  26   15   39 1
  27   16   40 1
  28   17   18 1
  29   17   19 1
  30   17   41 1
  31   18   42 1
  32   18   43 1
  33   18   44 1
  34   19   20 1
  35   19   45 1
  36   19   46 1
  37   20   47 1
  38   21   22 1
  39   22   23 ar
  40   22   27 ar
  41   23   24 ar
  42   23   28 1
  43   24   25 ar
  44   24   30 1
  45   25   26 ar
  46   25   48 1
  47   26   27 ar
  48   26   49 1
  49   27   50 1
  50   30   31 1
  51   30   32 1
  52   30   33 1

#	End of record

