#	Name: ASD03240770
#	Creating user name:	WinNT
#	Creation time:	15. 06. 2019 20:35

#	Modifying user name:	WinNT
#	Modification time:	15. 06. 2019 20:35

#	Program:	/corina/corina34_cracker 3.40 0067  02.08.2006

@<TRIPOS>MOLECULE
ASD03240770
  82   88    0    0    0
SMALL
NO_CHARGES


@<TRIPOS>ATOM
   1 C1            -2.0863     4.0329    -0.3711 C.2     
   2 N2            -2.3956     2.7250    -0.4182 N.2     
   3 C3            -1.4764     1.7943    -0.4222 C.2     
   4 C4            -0.0693     2.1858    -0.3740 C.ar    
   5 C5             0.2488     3.5600    -0.3246 C.ar    
   6 N6            -0.7904     4.4706    -0.3243 N.pl3   
   7 C7             0.9586     1.2374    -0.3752 C.ar    
   8 C8             2.2704     1.6983    -0.3269 C.ar    
   9 C9             2.5092     3.0854    -0.2793 C.ar    
  10 N10            1.5092     3.9543    -0.2805 N.ar    
  11 N11           -0.8114     5.8699    -0.2830 N.2     
  12 C12           -2.0586     6.2747    -0.3033 C.2     
  13 C13           -2.8913     5.1638    -0.3524 C.2     
  14 C14            3.4027     0.7413    -0.3252 C.ar    
  15 C15            3.4128    -0.3290     0.5679 C.ar    
  16 C16            4.4692    -1.2170     0.5647 C.ar    
  17 C17            5.5170    -1.0463    -0.3222 C.ar    
  18 C18            5.5126     0.0142    -1.2104 C.ar    
  19 C19            4.4586     0.9050    -1.2205 C.ar    
  20 C20            3.9035     3.5816    -0.2278 C.ar    
  21 C21            4.2491     4.7675    -0.8758 C.ar    
  22 C22            5.5499     5.2247    -0.8242 C.ar    
  23 C23            6.5105     4.5095    -0.1315 C.ar    
  24 C24            6.1739     3.3326     0.5132 C.ar    
  25 C25            4.8753     2.8681     0.4738 C.ar    
  26 C26            7.9295     5.0143    -0.0796 C.3     
  27 N27            8.0943     5.8929     1.0861 N.3     
  28 C28            9.5101     6.2141     1.3070 C.3     
  29 C29            9.6577     7.0072     2.6075 C.3     
  30 C30            8.8322     8.2932     2.5118 C.3     
  31 C31            7.3704     7.9325     2.2334 C.3     
  32 C32            7.2891     7.1126     0.9438 C.3     
  33 C33            8.9255     9.0495     3.8120 C.2     
  34 N34            8.2739    10.2201     3.9590 N.am    
  35 O35            9.5870     8.6046     4.7261 O.2     
  36 C36            8.2775    10.8721     5.1970 C.ar    
  37 C37            9.4080    10.8307     6.0004 C.ar    
  38 C38            9.4075    11.4786     7.2276 C.ar    
  39 C39            8.2753    12.1665     7.6478 C.ar    
  40 C40            7.1515    12.2052     6.8456 C.ar    
  41 C41            7.1512    11.5662     5.6204 C.ar    
  42 N42           10.5432    11.4391     8.0396 N.am    
  43 S43           11.8655    12.3606     7.6592 S.o2    
  44 O44           12.8022    12.0709     8.6878 O.2     
  45 O45           12.1416    12.0348     6.3039 O.2     
  46 C46           11.2791    14.0718     7.7958 C.3     
  47 C47           -2.5144     7.7108    -0.2714 C.3     
  48 H48           -1.7535     0.7511    -0.4603 H       
  49 H49            0.7408     0.1802    -0.4121 H       
  50 H50           -3.9709     5.1776    -0.3745 H       
  51 H51            2.5956    -0.4629     1.2612 H       
  52 H52            4.4781    -2.0466     1.2561 H       
  53 H53            6.3418    -1.7435    -0.3209 H       
  54 H54            6.3335     0.1428    -1.9003 H       
  55 H55            4.4541     1.7300    -1.9174 H       
  56 H56            3.5001     5.3265    -1.4171 H       
  57 H57            5.8188     6.1426    -1.3258 H       
  58 H58            6.9283     2.7788     1.0523 H       
  59 H59            4.6128     1.9515     0.9812 H       
  60 H60            8.6130     4.1692     0.0029 H       
  61 H61            8.1501     5.5725    -0.9894 H       
  62 H62           10.0853     5.2909     1.3773 H       
  63 H63            9.8815     6.8106     0.4737 H       
  64 H64            9.2993     6.4060     3.4430 H       
  65 H65           10.7068     7.2589     2.7631 H       
  66 H66            9.2154     8.9126     1.7008 H       
  67 H67            6.9760     7.3459     3.0631 H       
  68 H68            6.7852     8.8453     2.1218 H       
  69 H69            7.6709     7.7049     0.1122 H       
  70 H70            6.2511     6.8420     0.7503 H       
  71 H71            7.8026    10.6106     3.2065 H       
  72 H72           10.2863    10.2952     5.6716 H       
  73 H73            8.2740    12.6710     8.6028 H       
  74 H74            6.2727    12.7398     7.1747 H       
  75 H75            6.2726    11.6023     4.9934 H       
  76 H76           10.5574    10.8718     8.8263 H       
  77 H77           11.0135    14.2832     8.8316 H       
  78 H78           12.0681    14.7528     7.4767 H       
  79 H79           10.4034    14.2075     7.1612 H       
  80 H80           -2.5979     8.0882    -1.2905 H       
  81 H81           -3.4855     7.7729     0.2198 H       
  82 H82           -1.7895     8.3099     0.2798 H       
@<TRIPOS>BOND
   1    1    2 1
   2    1    6 1
   3    1   13 2
   4    2    3 2
   5    3    4 1
   6    3   48 1
   7    4    5 ar
   8    4    7 ar
   9    5    6 1
  10    5   10 ar
  11    6   11 1
  12    7    8 ar
  13    7   49 1
  14    8    9 ar
  15    8   14 1
  16    9   10 ar
  17    9   20 1
  18   11   12 2
  19   12   13 1
  20   12   47 1
  21   13   50 1
  22   14   15 ar
  23   14   19 ar
  24   15   16 ar
  25   15   51 1
  26   16   17 ar
  27   16   52 1
  28   17   18 ar
  29   17   53 1
  30   18   19 ar
  31   18   54 1
  32   19   55 1
  33   20   21 ar
  34   20   25 ar
  35   21   22 ar
  36   21   56 1
  37   22   23 ar
  38   22   57 1
  39   23   24 ar
  40   23   26 1
  41   24   25 ar
  42   24   58 1
  43   25   59 1
  44   26   27 1
  45   26   60 1
  46   26   61 1
  47   27   28 1
  48   27   32 1
  49   28   29 1
  50   28   62 1
  51   28   63 1
  52   29   30 1
  53   29   64 1
  54   29   65 1
  55   30   31 1
  56   30   33 1
  57   30   66 1
  58   31   32 1
  59   31   67 1
  60   31   68 1
  61   32   69 1
  62   32   70 1
  63   33   34 am
  64   33   35 2
  65   34   36 1
  66   34   71 1
  67   36   37 ar
  68   36   41 ar
  69   37   38 ar
  70   37   72 1
  71   38   39 ar
  72   38   42 1
  73   39   40 ar
  74   39   73 1
  75   40   41 ar
  76   40   74 1
  77   41   75 1
  78   42   43 am
  79   42   76 1
  80   43   44 2
  81   43   45 2
  82   43   46 1
  83   46   77 1
  84   46   78 1
  85   46   79 1
  86   47   80 1
  87   47   81 1
  88   47   82 1

#	End of record

