#	Name: ASD01813523
#	Creating user name:	WinNT
#	Creation time:	15. 06. 2019 19:30

#	Modifying user name:	WinNT
#	Modification time:	15. 06. 2019 19:30

#	Program:	/corina/corina34_cracker 3.40 0067  02.08.2006

@<TRIPOS>MOLECULE
ASD01813523
  46   49    0    0    0
SMALL
NO_CHARGES


@<TRIPOS>ATOM
   1 C1            -0.0168     1.3825    -0.0466 C.ar    
   2 C2             0.0020    -0.0038    -0.0536 C.ar    
   3 C3             1.1975    -0.6932    -0.0497 C.ar    
   4 C4             2.4040     0.0044    -0.0390 C.ar    
   5 C5             2.3834     1.4096    -0.0324 C.ar    
   6 C6             1.1657     2.0946    -0.0360 C.ar    
   7 N7             3.6050    -0.6734    -0.0339 N.pl3   
   8 C8             4.7898    -0.0496    -0.0227 C.2     
   9 C9             4.8962     1.3266    -0.0150 C.2     
  10 C10            3.6660     2.1351    -0.0211 C.2     
  11 O11            3.7066     3.3531    -0.0152 O.2     
  12 C12            6.2155     1.9737    -0.0018 C.2     
  13 O13            6.3065     3.3187     0.0057 O.3     
  14 O14            7.2249     1.2962     0.0024 O.2     
  15 C15            3.5837    -2.1382    -0.0406 C.3     
  16 C16            3.4403    -2.6321    -1.4571 C.ar    
  17 N17            2.2383    -2.7342    -1.9904 N.ar    
  18 C18            2.0590    -3.1599    -3.2242 C.ar    
  19 C19            3.1477    -3.5209    -4.0150 C.ar    
  20 C20            4.4347    -3.4238    -3.4785 C.ar    
  21 C21            4.5715    -2.9657    -2.1796 C.ar    
  22 C22            2.9442    -4.0011    -5.4041 C.ar    
  23 F23            1.1984    -2.0441    -0.0557 F       
  24 F24            1.1457     3.4455    -0.0301 F       
  25 C25            4.0327    -4.3614    -6.1929 C.ar    
  26 N26            3.8563    -4.7890    -7.4273 N.ar    
  27 C27            2.6512    -4.8927    -7.9630 C.ar    
  28 C28            1.5158    -4.5510    -7.2373 C.ar    
  29 C29            1.6549    -4.1037    -5.9377 C.ar    
  30 O30            2.5217    -5.3380    -9.2378 O.3     
  31 C31            3.7243    -5.6733    -9.9332 C.3     
  32 H32           -0.9606     1.9075    -0.0539 H       
  33 H33           -0.9294    -0.5504    -0.0619 H       
  34 H34            5.6921    -0.6430    -0.0193 H       
  35 H35            7.1957     3.6986     0.0144 H       
  36 H36            4.5134    -2.5171     0.3839 H       
  37 H37            2.7418    -2.4920     0.5545 H       
  38 H38            1.0591    -3.2300    -3.6262 H       
  39 H39            5.3006    -3.6955    -4.0640 H       
  40 H40            5.5506    -2.8777    -1.7321 H       
  41 H41            5.0321    -4.2897    -5.7898 H       
  42 H42            0.5359    -4.6382    -7.6831 H       
  43 H43            0.7900    -3.8318    -5.3507 H       
  44 H44            3.4793    -6.0143   -10.9390 H       
  45 H45            4.3660    -4.7943    -9.9938 H       
  46 H46            4.2448    -6.4669    -9.3971 H       
@<TRIPOS>BOND
   1    1    2 ar
   2    1    6 ar
   3    1   32 1
   4    2    3 ar
   5    2   33 1
   6    3    4 ar
   7    3   23 1
   8    4    5 ar
   9    4    7 1
  10    5    6 ar
  11    5   10 1
  12    6   24 1
  13    7    8 1
  14    7   15 1
  15    8    9 2
  16    8   34 1
  17    9   10 1
  18    9   12 1
  19   10   11 2
  20   12   13 1
  21   12   14 2
  22   13   35 1
  23   15   16 1
  24   15   36 1
  25   15   37 1
  26   16   17 ar
  27   16   21 ar
  28   17   18 ar
  29   18   19 ar
  30   18   38 1
  31   19   20 ar
  32   19   22 1
  33   20   21 ar
  34   20   39 1
  35   21   40 1
  36   22   25 ar
  37   22   29 ar
  38   25   26 ar
  39   25   41 1
  40   26   27 ar
  41   27   28 ar
  42   27   30 1
  43   28   29 ar
  44   28   42 1
  45   29   43 1
  46   30   31 1
  47   31   44 1
  48   31   45 1
  49   31   46 1

#	End of record

