#	Name: ASD01230144
#	Creating user name:	WinNT
#	Creation time:	15. 06. 2019 19:11

#	Modifying user name:	WinNT
#	Modification time:	15. 06. 2019 19:11

#	Program:	/corina/corina34_cracker 3.40 0067  02.08.2006

@<TRIPOS>MOLECULE
ASD01230144
  37   38    0    0    0
SMALL
NO_CHARGES


@<TRIPOS>ATOM
   1 C1            -0.1589     1.8384    -0.7281 C.3     
   2 C2            -0.2866     0.3030    -0.5211 C.3     
   3 O3            -1.4848    -0.0916    -1.1657 O.3     
   4 C4            -2.6371     0.4603    -0.5068 C.3     
   5 C5            -2.5949     1.9858    -0.4766 C.3     
   6 C6            -1.2552     2.4922     0.0885 C.3     
   7 O7             1.1861     2.1272    -0.3987 O.3     
   8 C8             1.9922     0.9790    -0.7461 C.3     
   9 C9             1.0215    -0.1511    -1.1883 C.3     
  10 C10            2.9352     1.3347    -1.8973 C.3     
  11 C11            2.7886     0.5307     0.4522 C.2     
  12 O12            3.2965     1.4399     1.2989 O.3     
  13 O13            2.9698    -0.6473     0.6507 O.2     
  14 O14           -1.1314     2.1165     1.4616 O.3     
  15 O15           -3.6617     2.4682     0.3427 O.3     
  16 C16            3.9620     2.3621    -1.4166 C.3     
  17 N17            4.9575     2.5904    -2.4724 N.3     
  18 C18            3.2634     3.6583    -1.0960 C.2     
  19 O19            3.2817     4.5673    -1.8918 O.2     
  20 O20            2.6208     3.8031     0.0735 O.3     
  21 H21           -0.3264     2.0698    -1.7800 H       
  22 H22           -0.3093     0.0461     0.5379 H       
  23 H23           -3.5355     0.1401    -1.0345 H       
  24 H24           -2.6749     0.0856     0.5161 H       
  25 H25           -2.7228     2.3672    -1.4897 H       
  26 H26           -1.1960     3.5762    -0.0089 H       
  27 H27            1.3436    -1.1181    -0.8021 H       
  28 H28            0.9196    -0.1783    -2.2732 H       
  29 H29            3.4513     0.4360    -2.2351 H       
  30 H30            2.3595     1.7548    -2.7220 H       
  31 H31            3.8001     1.1044     2.0531 H       
  32 H32           -1.8281     2.4711     2.0308 H       
  33 H33           -4.5414     2.2102     0.0352 H       
  34 H34            4.4601     1.9870    -0.5225 H       
  35 H35            5.4303     1.7328    -2.7152 H       
  36 H36            4.5327     3.0116    -3.2850 H       
  37 H37            2.1876     4.6525     0.2343 H       
@<TRIPOS>BOND
   1    1    2 1
   2    1    7 1
   3    1    6 1
   4    1   21 1
   5    2    3 1
   6    2    9 1
   7    2   22 1
   8    3    4 1
   9    4    5 1
  10    4   23 1
  11    4   24 1
  12    5    6 1
  13    5   15 1
  14    5   25 1
  15    6   14 1
  16    6   26 1
  17    7    8 1
  18    8    9 1
  19    8   10 1
  20    8   11 1
  21    9   27 1
  22    9   28 1
  23   10   16 1
  24   10   29 1
  25   10   30 1
  26   11   12 1
  27   11   13 2
  28   12   31 1
  29   14   32 1
  30   15   33 1
  31   16   17 1
  32   16   18 1
  33   16   34 1
  34   17   35 1
  35   17   36 1
  36   18   19 2
  37   18   20 1
  38   20   37 1

#	End of record

