#	Name: ASD03092296
#	Creating user name:	WinNT
#	Creation time:	15. 06. 2019 20:32

#	Modifying user name:	WinNT
#	Modification time:	15. 06. 2019 20:32

#	Program:	/corina/corina34_cracker 3.40 0067  02.08.2006

@<TRIPOS>MOLECULE
ASD03092296
  59   62    0    0    0
SMALL
NO_CHARGES


@<TRIPOS>ATOM
   1 C1            -0.1121     1.2348    -0.7224 C.3     
   2 C2            -0.1591    -0.2895    -0.9199 C.3     
   3 C3             1.2705    -0.3279    -0.3546 C.3     
   4 C4             1.4172     1.1238    -0.8401 C.3     
   5 C5            -0.7495     2.0092    -1.8471 C.2     
   6 O6            -1.2352     1.4206    -2.7897 O.2     
   7 N7            -0.7797     3.3560    -1.8056 N.am    
   8 C8            -1.3993     4.1089    -2.8990 C.3     
   9 S9            -1.7702     7.9589    -1.8803 S.3     
  10 C10           -0.2748     7.5644    -2.6085 C.2     
  11 N11           -0.2381     6.3004    -2.9065 N.2     
  12 C12           -1.3016     5.5849    -2.6111 C.2     
  13 C13           -2.2977     6.2845    -2.0285 C.2     
  14 C14           -5.9898     5.8456    -1.4994 C.ar    
  15 C15           -4.7972     6.3874    -1.9274 C.ar    
  16 C16           -3.5992     5.7424    -1.5920 C.ar    
  17 C17           -3.6717     4.5680    -0.8310 C.ar    
  18 C18           -4.9082     4.0974    -0.4455 C.ar    
  19 N19           -6.0127     4.7365    -0.7837 N.ar    
  20 C20           -5.0008     2.8355     0.3732 C.3     
  21 C21           -7.2853     6.5323    -1.8475 C.3     
  22 N22            0.7495     8.4626    -2.8467 N.3     
  23 C23            0.3847     9.8113    -2.3892 C.3     
  24 C24            1.5193    10.7827    -2.7254 C.3     
  25 O25            2.7317    10.3172    -2.1265 O.3     
  26 C26            3.1172     9.0068    -2.5503 C.3     
  27 C27            1.9988     8.0175    -2.2123 C.3     
  28 C28            4.4008     8.5932    -1.8278 C.3     
  29 C29            1.1808    12.1717    -2.1806 C.3     
  30 H30           -0.4520     1.5583     0.2614 H       
  31 H31           -0.8925    -0.7894    -0.2871 H       
  32 H32           -0.2237    -0.5926    -1.9650 H       
  33 H33            1.3086    -0.4317     0.7298 H       
  34 H34            1.9256    -1.0294    -0.8712 H       
  35 H35            1.7836     1.2071    -1.8633 H       
  36 H36            1.9565     1.7650    -0.1428 H       
  37 H37           -0.3911     3.8268    -1.0518 H       
  38 H38           -0.8824     3.8857    -3.8324 H       
  39 H39           -2.4478     3.8246    -2.9874 H       
  40 H40           -4.7860     7.2949    -2.5128 H       
  41 H41           -2.7723     4.0395    -0.5512 H       
  42 H42           -4.9656     3.0868     1.4333 H       
  43 H43           -5.9388     2.3266     0.1514 H       
  44 H44           -4.1650     2.1805     0.1271 H       
  45 H45           -7.6575     6.1463    -2.7966 H       
  46 H46           -8.0194     6.3415    -1.0647 H       
  47 H47           -7.1160     7.6056    -1.9331 H       
  48 H48           -0.5288    10.1310    -2.8906 H       
  49 H49            0.2237     9.7987    -1.3112 H       
  50 H50            1.6446    10.8357    -3.8068 H       
  51 H51            3.2889     9.0083    -3.6267 H       
  52 H52            1.8636     7.9763    -1.1315 H       
  53 H53            2.2635     7.0278    -2.5846 H       
  54 H54            4.2273     8.5903    -0.7517 H       
  55 H55            4.6941     7.5944    -2.1512 H       
  56 H56            5.1957     9.3001    -2.0657 H       
  57 H57            1.0577    12.1177    -1.0989 H       
  58 H58            1.9889    12.8628    -2.4203 H       
  59 H59            0.2546    12.5243    -2.6345 H       
@<TRIPOS>BOND
   1    1    2 1
   2    1    4 1
   3    1    5 1
   4    1   30 1
   5    2    3 1
   6    2   31 1
   7    2   32 1
   8    3    4 1
   9    3   33 1
  10    3   34 1
  11    4   35 1
  12    4   36 1
  13    5    6 2
  14    5    7 am
  15    7    8 1
  16    7   37 1
  17    8   12 1
  18    8   38 1
  19    8   39 1
  20    9   10 1
  21    9   13 1
  22   10   11 2
  23   10   22 1
  24   11   12 1
  25   12   13 2
  26   13   16 1
  27   14   15 ar
  28   14   19 ar
  29   14   21 1
  30   15   16 ar
  31   15   40 1
  32   16   17 ar
  33   17   18 ar
  34   17   41 1
  35   18   19 ar
  36   18   20 1
  37   20   42 1
  38   20   43 1
  39   20   44 1
  40   21   45 1
  41   21   46 1
  42   21   47 1
  43   22   23 1
  44   22   27 1
  45   23   24 1
  46   23   48 1
  47   23   49 1
  48   24   25 1
  49   24   29 1
  50   24   50 1
  51   25   26 1
  52   26   27 1
  53   26   28 1
  54   26   51 1
  55   27   52 1
  56   27   53 1
  57   28   54 1
  58   28   55 1
  59   28   56 1
  60   29   57 1
  61   29   58 1
  62   29   59 1

#	End of record

