#	Name: ASD03451025
#	Creating user name:	WinNT
#	Creation time:	15. 06. 2019 20:42

#	Modifying user name:	WinNT
#	Modification time:	15. 06. 2019 20:42

#	Program:	/corina/corina34_cracker 3.40 0067  02.08.2006

@<TRIPOS>MOLECULE
ASD03451025
  37   40    0    0    0
SMALL
NO_CHARGES


@<TRIPOS>ATOM
   1 C1            -0.0167     1.3795     0.0096 C.ar    
   2 C2             0.0021    -0.0041     0.0020 C.ar    
   3 C3             1.2174    -0.6630    -0.0098 C.ar    
   4 C4             2.3986     0.0938    -0.0140 C.ar    
   5 C5             2.3045     1.4913    -0.0123 C.ar    
   6 N6             1.0994     2.0729     0.0027 N.ar    
   7 C7             3.6795    -0.6288    -0.0143 C.2     
   8 N8             4.7164    -0.2688     0.6720 N.2     
   9 C9             4.6937     0.9305     1.5098 C.3     
  10 C10            4.4730     2.1313     0.6328 C.2     
  11 N11            3.3863     2.3091    -0.0313 N.2     
  12 C12            3.7893    -1.8378    -0.8471 C.2     
  13 C13            3.5737     0.8248     2.5125 C.2     
  14 C14            4.8932    -2.6283    -0.9692 C.2     
  15 C15            4.5538    -3.6623    -1.8589 C.2     
  16 C16            3.2733    -3.4579    -2.2346 C.2     
  17 O17            2.8139    -2.3596    -1.6176 O.3     
  18 O18            2.3481     0.3311     2.2720 O.3     
  19 C19            1.6126     0.3922     3.3940 C.2     
  20 C20            2.3679     0.9296     4.3687 C.2     
  21 C21            3.6338     1.2036     3.8018 C.2     
  22 N22            5.4610     3.0664     0.5384 N.pl3   
  23 C23            5.2738     4.2469    -0.3086 C.3     
  24 H24           -0.9641     1.8979     0.0169 H       
  25 H25           -0.9221    -0.5628     0.0057 H       
  26 H26            1.2567    -1.7423    -0.0154 H       
  27 H27            5.6455     1.0294     2.0317 H       
  28 H28            5.8446    -2.4870    -0.4780 H       
  29 H29            5.1963    -4.4682    -2.1815 H       
  30 H30            2.7106    -4.0789    -2.9158 H       
  31 H31            0.5883     0.0655     3.4963 H       
  32 H32            2.0664     1.1132     5.3894 H       
  33 H33            4.4839     1.6395     4.3056 H       
  34 H34            6.2878     2.9499     1.0322 H       
  35 H35            6.1630     4.8753    -0.2577 H       
  36 H36            5.1097     3.9323    -1.3392 H       
  37 H37            4.4094     4.8115     0.0410 H       
@<TRIPOS>BOND
   1    1    2 ar
   2    1    6 ar
   3    1   24 1
   4    2    3 ar
   5    2   25 1
   6    3    4 ar
   7    3   26 1
   8    4    5 ar
   9    4    7 1
  10    5    6 ar
  11    5   11 1
  12    7    8 2
  13    7   12 1
  14    8    9 1
  15    9   10 1
  16    9   13 1
  17    9   27 1
  18   10   11 2
  19   10   22 1
  20   12   14 2
  21   12   17 1
  22   13   18 1
  23   13   21 2
  24   14   15 1
  25   14   28 1
  26   15   16 2
  27   15   29 1
  28   16   17 1
  29   16   30 1
  30   18   19 1
  31   19   20 2
  32   19   31 1
  33   20   21 1
  34   20   32 1
  35   21   33 1
  36   22   23 1
  37   22   34 1
  38   23   35 1
  39   23   36 1
  40   23   37 1

#	End of record

