#	Name: ASD01814585
#	Creating user name:	WinNT
#	Creation time:	15. 06. 2019 19:32

#	Modifying user name:	WinNT
#	Modification time:	15. 06. 2019 19:32

#	Program:	/corina/corina34_cracker 3.40 0067  02.08.2006

@<TRIPOS>MOLECULE
ASD01814585
  50   54    0    0    0
SMALL
NO_CHARGES


@<TRIPOS>ATOM
   1 C1            -0.0629     1.3418     0.0827 C.2     
   2 C2            -0.0331    -0.0590     0.0527 C.2     
   3 C3             1.1684    -0.7048     0.0312 C.2     
   4 C4             2.3559     0.0457     0.0395 C.2     
   5 N5             2.2974     1.4126     0.0693 N.am    
   6 C6             1.0907     2.0471     0.0903 C.2     
   7 C7             3.5920    -0.6155     0.0175 C.2     
   8 C8             4.7515     0.1041     0.0257 C.2     
   9 C9             4.6875     1.5095     0.0559 C.2     
  10 C10            3.4293     2.1452     0.0779 C.2     
  11 O11            3.3644     3.3626     0.1037 O.2     
  12 C12            5.9172     2.3049     0.0657 C.2     
  13 O13            5.8490     3.6519     0.0947 O.3     
  14 O14            7.0000     1.7510     0.0478 O.2     
  15 C15            3.6402    -2.1214    -0.0148 C.3     
  16 N16            3.7676    -2.5776    -1.4053 N.3     
  17 C17            4.0544    -4.0144    -1.4628 C.3     
  18 C18            4.0840    -4.4896    -2.8918 C.ar    
  19 C19            3.5302    -3.7508    -3.9158 C.ar    
  20 C20            2.8684    -2.4205    -3.6631 C.3     
  21 C21            2.5517    -2.2696    -2.1749 C.3     
  22 C22            4.6882    -5.7064    -3.1706 C.ar    
  23 C23            4.7360    -6.1816    -4.4659 C.ar    
  24 C24            4.1782    -5.4418    -5.4916 C.ar    
  25 C25            3.5773    -4.2296    -5.2159 C.ar    
  26 C26            5.4127    -4.2847    -0.8125 C.3     
  27 C27            5.8366    -5.7449    -0.6427 C.3     
  28 C28            6.5158    -4.8689    -1.6973 C.3     
  29 H29           -1.0105     1.8598     0.0954 H       
  30 H30           -0.9542    -0.6229     0.0470 H       
  31 H31            1.2063    -1.7838     0.0083 H       
  32 H32            1.0559     3.1263     0.1138 H       
  33 H33            5.7070    -0.3992     0.0096 H       
  34 H34            6.6873     4.1338     0.1002 H       
  35 H35            4.4970    -2.4699     0.5619 H       
  36 H36            2.7237    -2.5236     0.4170 H       
  37 H37            3.2814    -4.5576    -0.9190 H       
  38 H38            3.5379    -1.6184    -3.9737 H       
  39 H39            1.9440    -2.3612    -4.2378 H       
  40 H40            1.7572    -2.9624    -1.8975 H       
  41 H41            2.2375    -1.2463    -1.9693 H       
  42 H42            5.1241    -6.2854    -2.3699 H       
  43 H43            5.2086    -7.1294    -4.6775 H       
  44 H44            4.2126    -5.8108    -6.5060 H       
  45 H45            3.1412    -3.6517    -6.0173 H       
  46 H46            5.7103    -3.5806    -0.0355 H       
  47 H47            6.4135    -6.0014     0.2459 H       
  48 H48            5.1478    -6.5131    -0.9942 H       
  49 H49            6.2738    -5.0607    -2.7426 H       
  50 H50            7.5394    -4.5490    -1.5026 H       
@<TRIPOS>BOND
   1    1    2 1
   2    1    6 2
   3    1   29 1
   4    2    3 2
   5    2   30 1
   6    3    4 1
   7    3   31 1
   8    4    5 1
   9    4    7 2
  10    5    6 1
  11    5   10 am
  12    6   32 1
  13    7    8 1
  14    7   15 1
  15    8    9 2
  16    8   33 1
  17    9   10 1
  18    9   12 1
  19   10   11 2
  20   12   13 1
  21   12   14 2
  22   13   34 1
  23   15   16 1
  24   15   35 1
  25   15   36 1
  26   16   17 1
  27   16   21 1
  28   17   18 1
  29   17   26 1
  30   17   37 1
  31   18   19 ar
  32   18   22 ar
  33   19   20 1
  34   19   25 ar
  35   20   21 1
  36   20   38 1
  37   20   39 1
  38   21   40 1
  39   21   41 1
  40   22   23 ar
  41   22   42 1
  42   23   24 ar
  43   23   43 1
  44   24   25 ar
  45   24   44 1
  46   25   45 1
  47   26   27 1
  48   26   28 1
  49   26   46 1
  50   27   28 1
  51   27   47 1
  52   27   48 1
  53   28   49 1
  54   28   50 1

#	End of record

