#	Name: ASD03330787
#	Creating user name:	WinNT
#	Creation time:	15. 06. 2019 20:37

#	Modifying user name:	WinNT
#	Modification time:	15. 06. 2019 20:37

#	Program:	/corina/corina34_cracker 3.40 0067  02.08.2006

@<TRIPOS>MOLECULE
ASD03330787
  57   59    0    0    0
SMALL
NO_CHARGES


@<TRIPOS>ATOM
   1 C1            -0.2819     1.8879    -0.8646 C.2     
   2 N2            -0.5101     0.5478    -0.8662 N.pl3   
   3 C3             0.9315     2.0866    -0.2787 C.2     
   4 N4             1.4328     0.8764     0.0515 N.2     
   5 C5             0.5770    -0.0533    -0.3025 C.2     
   6 C6             0.7605    -1.5100    -0.1207 C.ar    
   7 C7             1.5813     3.3887    -0.0470 C.2     
   8 O8             1.0269     4.4149    -0.3914 O.2     
   9 C9             3.4362     4.7369     0.7770 C.3     
  10 N10            2.7901     3.4424     0.5466 N.am    
  11 C11            4.1983     5.1576    -0.4812 C.3     
  12 C12            4.3980     4.6199     1.9313 C.2     
  13 O13            4.9201     3.5538     2.1800 O.2     
  14 C14           -1.7187    -0.1077    -1.3734 C.3     
  15 C15           -2.0645     0.4711    -2.7489 C.3     
  16 C16           -2.9424     1.7073    -2.5824 C.3     
  17 N17           -2.5877     2.4458    -1.3688 N.3     
  18 C18           -1.2034     2.9383    -1.4283 C.3     
  19 C19            2.0402    -2.0647    -0.1601 C.ar    
  20 C20            2.2051    -3.4255     0.0103 C.ar    
  21 C21           -3.5288     3.5480    -1.1293 C.3     
  22 N22            4.6780     5.7000     2.6872 N.am    
  23 C23            1.1012    -4.2387     0.2201 C.ar    
  24 C24            3.2200     5.2886    -1.6502 C.3     
  25 C25            4.8835     6.5035    -0.2363 C.3     
  26 C26            5.2537     4.1014    -0.8153 C.3     
  27 C27           -0.3448    -2.3330     0.0964 C.ar    
  28 C28           -0.1696    -3.6920     0.2593 C.ar    
  29 Cl29           1.3143    -5.9483     0.4336 Cl      
  30 F30            3.4431    -3.9651    -0.0279 F       
  31 H31            2.6784     5.4849     1.0099 H       
  32 H32            3.2324     2.6239     0.8213 H       
  33 H33           -1.5414    -1.1795    -1.4633 H       
  34 H34           -2.5453     0.0693    -0.6854 H       
  35 H35           -1.1462     0.7459    -3.2679 H       
  36 H36           -2.5998    -0.2775    -3.3331 H       
  37 H37           -2.8124     2.3575    -3.4475 H       
  38 H38           -3.9861     1.3992    -2.5213 H       
  39 H39           -1.1163     3.8525    -0.8412 H       
  40 H40           -0.9333     3.1420    -2.4644 H       
  41 H41            2.8997    -1.4316    -0.3238 H       
  42 H42           -4.5357     3.1472    -1.0128 H       
  43 H43           -3.2422     4.0798    -0.2220 H       
  44 H44           -3.5067     4.2349    -1.9754 H       
  45 H45            4.2040     6.5330     2.5374 H       
  46 H46            5.3534     5.6444     3.3812 H       
  47 H47            2.4681     6.0411    -1.4121 H       
  48 H48            3.7629     5.5883    -2.5465 H       
  49 H49            2.7318     4.3298    -1.8246 H       
  50 H50            5.6514     6.3865     0.5284 H       
  51 H51            5.3425     6.8513    -1.1618 H       
  52 H52            4.1448     7.2316     0.0989 H       
  53 H53            4.7655     3.1425    -0.9898 H       
  54 H54            5.7966     4.4011    -1.7117 H       
  55 H55            5.9507     4.0080     0.0175 H       
  56 H56           -1.3368    -1.9076     0.1325 H       
  57 H57           -1.0252    -4.3292     0.4274 H       
@<TRIPOS>BOND
   1    1    2 1
   2    1    3 2
   3    1   18 1
   4    2   14 1
   5    2    5 1
   6    3    4 1
   7    3    7 1
   8    4    5 2
   9    5    6 1
  10    6   27 ar
  11    6   19 ar
  12    7    8 2
  13    7   10 am
  14    9   10 1
  15    9   11 1
  16    9   12 1
  17    9   31 1
  18   10   32 1
  19   11   24 1
  20   11   25 1
  21   11   26 1
  22   12   13 2
  23   12   22 am
  24   14   15 1
  25   14   33 1
  26   14   34 1
  27   15   16 1
  28   15   35 1
  29   15   36 1
  30   16   17 1
  31   16   37 1
  32   16   38 1
  33   17   18 1
  34   17   21 1
  35   18   39 1
  36   18   40 1
  37   19   20 ar
  38   19   41 1
  39   20   30 1
  40   20   23 ar
  41   21   42 1
  42   21   43 1
  43   21   44 1
  44   22   45 1
  45   22   46 1
  46   23   29 1
  47   23   28 ar
  48   24   47 1
  49   24   48 1
  50   24   49 1
  51   25   50 1
  52   25   51 1
  53   25   52 1
  54   26   53 1
  55   26   54 1
  56   26   55 1
  57   27   28 ar
  58   27   56 1
  59   28   57 1

#	End of record

