#	Name: ASD04590773
#	Creating user name:	WinNT
#	Creation time:	15. 06. 2019 20:51

#	Modifying user name:	WinNT
#	Modification time:	15. 06. 2019 20:51

#	Program:	/corina/corina34_cracker 3.40 0067  02.08.2006

@<TRIPOS>MOLECULE
ASD04590773
  57   62    0    0    0
SMALL
NO_CHARGES


@<TRIPOS>ATOM
   1 N1            -0.0171     1.3233    -0.0128 N.ar    
   2 C2             0.0017    -0.0035    -0.0056 C.ar    
   3 N3             1.1300    -0.6947    -0.0121 N.ar    
   4 C4             2.3048    -0.0726    -0.0269 C.ar    
   5 C5             2.3188     1.3367    -0.0353 C.ar    
   6 C6             1.1071     2.0203    -0.0274 C.ar    
   7 N7             3.6049    -0.5198    -0.0369 N.pl3   
   8 C8             4.4838     0.5514    -0.0518 C.ar    
   9 C9             3.7312     1.7395    -0.0515 C.ar    
  10 C10            5.8692     0.6451    -0.0666 C.ar    
  11 N11            6.4613     1.8220    -0.0800 N.ar    
  12 C12            5.7838     2.9564    -0.0801 C.ar    
  13 C13            4.4050     2.9601    -0.0657 C.ar    
  14 C14            3.9868    -1.8669    -0.0320 C.ar    
  15 N15           -1.2019    -0.6888     0.0098 N.pl3   
  16 C16           -2.4019     0.0119     0.1303 C.ar    
  17 C17           -3.6090    -0.6708     0.0327 C.ar    
  18 C18           -4.7936     0.0331     0.1536 C.ar    
  19 C19           -4.7293     1.4084     0.3700 C.ar    
  20 C20           -3.4882     2.0220     0.4565 C.ar    
  21 N21           -2.3783     1.3181     0.3417 N.ar    
  22 N22           -5.9026     2.1613     0.4981 N.3     
  23 C23           -5.5956     3.5813     0.7196 C.3     
  24 C24           -6.9001     4.3799     0.7746 C.3     
  25 N25           -7.7488     3.8532     1.8525 N.3     
  26 C26           -8.0558     2.4332     1.6309 C.3     
  27 C27           -6.7513     1.6346     1.5759 C.3     
  28 C28            4.6547    -2.4047    -1.1241 C.ar    
  29 C29            5.0305    -3.7339    -1.1159 C.ar    
  30 C30            4.7419    -4.5287    -0.0221 C.ar    
  31 C31            4.0767    -3.9960     1.0673 C.ar    
  32 C32            3.7034    -2.6665     1.0677 C.ar    
  33 C33            3.7641    -4.8660     2.2575 C.3     
  34 F34            4.2419    -6.1606     2.0272 F       
  35 F35            4.3807    -4.3371     3.3965 F       
  36 F36            2.3796    -4.9079     2.4537 F       
  37 H37            1.0847     3.1001    -0.0332 H       
  38 H38            6.4666    -0.2547    -0.0668 H       
  39 H39            6.3180     3.8950    -0.0913 H       
  40 H40            3.8572     3.8909    -0.0660 H       
  41 H41           -1.2102    -1.6560    -0.0632 H       
  42 H42           -3.6217    -1.7375    -0.1359 H       
  43 H43           -5.7460    -0.4711     0.0816 H       
  44 H44           -3.4299     3.0874     0.6241 H       
  45 H45           -5.0597     3.6947     1.6620 H       
  46 H46           -4.9768     3.9514    -0.0978 H       
  47 H47           -6.6763     5.4291     0.9678 H       
  48 H48           -7.4228     4.2886    -0.1775 H       
  49 H49           -7.3174     3.9935     2.7538 H       
  50 H50           -8.6746     2.0631     2.4483 H       
  51 H51           -8.5917     2.3197     0.6885 H       
  52 H52           -6.9751     0.5854     1.3828 H       
  53 H53           -6.2286     1.7259     2.5280 H       
  54 H54            4.8798    -1.7845    -1.9791 H       
  55 H55            5.5500    -4.1528    -1.9651 H       
  56 H56            5.0361    -5.5679    -0.0184 H       
  57 H57            3.1841    -2.2512     1.9186 H       
@<TRIPOS>BOND
   1    1    2 ar
   2    1    6 ar
   3    2    3 ar
   4    2   15 1
   5    3    4 ar
   6    4    5 ar
   7    4    7 1
   8    5    6 ar
   9    5    9 1
  10    6   37 1
  11    7    8 1
  12    7   14 1
  13    8    9 ar
  14    8   10 ar
  15    9   13 ar
  16   10   11 ar
  17   10   38 1
  18   11   12 ar
  19   12   13 ar
  20   12   39 1
  21   13   40 1
  22   14   28 ar
  23   14   32 ar
  24   15   16 1
  25   15   41 1
  26   16   17 ar
  27   16   21 ar
  28   17   18 ar
  29   17   42 1
  30   18   19 ar
  31   18   43 1
  32   19   20 ar
  33   19   22 1
  34   20   21 ar
  35   20   44 1
  36   22   23 1
  37   22   27 1
  38   23   24 1
  39   23   45 1
  40   23   46 1
  41   24   25 1
  42   24   47 1
  43   24   48 1
  44   25   26 1
  45   25   49 1
  46   26   27 1
  47   26   50 1
  48   26   51 1
  49   27   52 1
  50   27   53 1
  51   28   29 ar
  52   28   54 1
  53   29   30 ar
  54   29   55 1
  55   30   31 ar
  56   30   56 1
  57   31   32 ar
  58   31   33 1
  59   32   57 1
  60   33   34 1
  61   33   35 1
  62   33   36 1

#	End of record

