#	Name: ASD01910411
#	Creating user name:	WinNT
#	Creation time:	15. 06. 2019 19:55

#	Modifying user name:	WinNT
#	Modification time:	15. 06. 2019 19:55

#	Program:	/corina/corina34_cracker 3.40 0067  02.08.2006

@<TRIPOS>MOLECULE
ASD01910411
  45   47    0    0    0
SMALL
NO_CHARGES


@<TRIPOS>ATOM
   1 C1            -0.0988     1.1966     0.3714 C.ar    
   2 C2            -0.0418    -0.0751    -0.1824 C.ar    
   3 C3            -1.1856    -0.6649    -0.6964 C.ar    
   4 C4            -2.3881     0.0084    -0.6609 C.ar    
   5 C5            -2.4535     1.2892    -0.1044 C.ar    
   6 C6            -1.2985     1.8783     0.4176 C.ar    
   7 F7             1.0201     1.7657     0.8707 F       
   8 F8             1.1336    -0.7402    -0.2207 F       
   9 C9            -3.6999     1.9932    -0.0654 C.1     
  10 C10           -4.7218     2.5703    -0.0335 C.1     
  11 C11           -5.9682     3.2742     0.0055 C.ar    
  12 C12           -6.0310     4.5563     0.5631 C.ar    
  13 C13           -7.2199     5.2272     0.5996 C.ar    
  14 C14           -8.3743     4.6333     0.0804 C.ar    
  15 C15           -8.3124     3.3523    -0.4765 C.ar    
  16 C16           -7.1230     2.6828    -0.5192 C.ar    
  17 C17           -9.6591     5.3589     0.1205 C.2     
  18 N18          -10.7571     4.7580     0.6203 N.am    
  19 O19           -9.7269     6.4988    -0.2972 O.2     
  20 C20          -12.0227     5.4940     0.7436 C.3     
  21 C21          -12.5207     5.3800     2.1878 C.3     
  22 C22          -12.6124     3.9026     2.5764 C.3     
  23 C23          -11.2240     3.2642     2.4924 C.3     
  24 C24          -10.7128     3.3526     1.0464 C.3     
  25 C25          -13.1424     3.7837     4.0068 C.3     
  26 O26          -13.3383     2.4054     4.3292 O.3     
  27 H27           -1.1348    -1.6544    -1.1263 H       
  28 H28           -3.2782    -0.4527    -1.0627 H       
  29 H29           -1.3429     2.8673     0.8492 H       
  30 H30           -5.1395     5.0148     0.9649 H       
  31 H31           -7.2685     6.2165     1.0299 H       
  32 H32           -9.2046     2.8940    -0.8770 H       
  33 H33           -7.0753     1.6933    -0.9493 H       
  34 H34          -11.8612     6.5428     0.4945 H       
  35 H35          -12.7622     5.0653     0.0672 H       
  36 H36          -11.8242     5.8889     2.8541 H       
  37 H37          -13.5056     5.8397     2.2704 H       
  38 H38          -13.2901     3.3891     1.8944 H       
  39 H39          -10.5397     3.7930     3.1558 H       
  40 H40          -11.2860     2.2179     2.7918 H       
  41 H41          -11.3464     2.7482     0.3973 H       
  42 H42           -9.6860     2.9898     0.9991 H       
  43 H43          -12.4218     4.2198     4.6987 H       
  44 H44          -14.0911     4.3143     4.0880 H       
  45 H45          -13.6740     2.2545     5.2234 H       
@<TRIPOS>BOND
   1    1    2 ar
   2    1    7 1
   3    1    6 ar
   4    2    3 ar
   5    2    8 1
   6    3    4 ar
   7    3   27 1
   8    4    5 ar
   9    4   28 1
  10    5    6 ar
  11    5    9 1
  12    6   29 1
  13    9   10 3
  14   10   11 1
  15   11   12 ar
  16   11   16 ar
  17   12   13 ar
  18   12   30 1
  19   13   14 ar
  20   13   31 1
  21   14   15 ar
  22   14   17 1
  23   15   16 ar
  24   15   32 1
  25   16   33 1
  26   17   18 am
  27   17   19 2
  28   18   20 1
  29   18   24 1
  30   20   21 1
  31   20   34 1
  32   20   35 1
  33   21   22 1
  34   21   36 1
  35   21   37 1
  36   22   23 1
  37   22   25 1
  38   22   38 1
  39   23   24 1
  40   23   39 1
  41   23   40 1
  42   24   41 1
  43   24   42 1
  44   25   26 1
  45   25   43 1
  46   25   44 1
  47   26   45 1

#	End of record

