#	Name: ASD07930795
#	Creating user name:	WinNT
#	Creation time:	15. 06. 2019 21:13

#	Modifying user name:	WinNT
#	Modification time:	15. 06. 2019 21:13

#	Program:	/corina/corina34_cracker 3.40 0067  02.08.2006

@<TRIPOS>MOLECULE
ASD07930795
  39   41    0    0    0
SMALL
NO_CHARGES


@<TRIPOS>ATOM
   1 C1            -0.0318     1.4605     0.0557 C.3     
   2 N2             0.7691    -0.3832    -2.1512 N.2     
   3 N3            -0.8969    -1.7697    -1.2773 N.pl3   
   4 C4            -0.9005    -2.8248    -0.2586 C.3     
   5 C5            -1.1955    -2.2027     1.1132 C.3     
   6 S6             0.0408    -0.9043     1.4293 S.o2    
   7 N7            -0.0061    -0.0040     0.0280 N.am    
   8 C8            -0.0201    -0.7099    -1.1666 C.2     
   9 C9             0.4680    -3.5082    -0.2261 C.3     
  10 C10           -1.9634    -3.8404    -0.5898 C.ar    
  11 C11           -2.9995    -4.0552     0.2917 C.ar    
  12 C12           -3.9837    -4.9912    -0.0082 C.ar    
  13 C13           -3.9094    -5.7112    -1.2139 C.ar    
  14 C14           -2.8532    -5.4829    -2.0988 C.ar    
  15 C15           -1.8916    -4.5474    -1.7849 C.ar    
  16 F16           -0.8684    -4.3229    -2.6380 F       
  17 N17           -5.1148    -5.4202     0.6519 N.pl3   
  18 C18           -5.7508    -6.3778    -0.0899 C.2     
  19 C19           -5.0742    -6.5995    -1.2279 C.2     
  20 C20           -7.0226    -7.0798     0.3111 C.3     
  21 O21           -0.4100    -0.0143     2.4413 O.2     
  22 O22            1.3515    -1.4523     1.4585 O.2     
  23 H23            0.9891     1.8422     0.0401 H       
  24 H24           -0.5716     1.8310    -0.8158 H       
  25 H25           -0.5320     1.7980     0.9635 H       
  26 H26            1.3795     0.3646    -2.0558 H       
  27 H27           -1.5071    -1.8188    -2.0298 H       
  28 H28           -2.1944    -1.7665     1.1117 H       
  29 H29           -1.1297    -2.9687     1.8859 H       
  30 H30            1.2357    -2.7730     0.0155 H       
  31 H31            0.4647    -4.2922     0.5311 H       
  32 H32            0.6787    -3.9463    -1.2017 H       
  33 H33           -3.0475    -3.4975     1.2153 H       
  34 H34           -2.7925    -6.0341    -3.0256 H       
  35 H35           -5.4153    -5.0922     1.5139 H       
  36 H36           -5.3384    -7.3000    -2.0063 H       
  37 H37           -7.8800    -6.5195    -0.0618 H       
  38 H38           -7.0326    -8.0839    -0.1127 H       
  39 H39           -7.0752    -7.1437     1.3980 H       
@<TRIPOS>BOND
   1    1    7 1
   2    1   23 1
   3    1   24 1
   4    1   25 1
   5    2    8 2
   6    2   26 1
   7    3    4 1
   8    3    8 1
   9    3   27 1
  10    4    5 1
  11    4    9 1
  12    4   10 1
  13    5    6 1
  14    5   28 1
  15    5   29 1
  16    6    7 am
  17    6   21 2
  18    6   22 2
  19    7    8 1
  20    9   30 1
  21    9   31 1
  22    9   32 1
  23   10   11 ar
  24   10   15 ar
  25   11   12 ar
  26   11   33 1
  27   12   13 ar
  28   12   17 1
  29   13   14 ar
  30   13   19 1
  31   14   15 ar
  32   14   34 1
  33   15   16 1
  34   17   18 1
  35   17   35 1
  36   18   19 2
  37   18   20 1
  38   19   36 1
  39   20   37 1
  40   20   38 1
  41   20   39 1

#	End of record

