#	Name: ASD05740063
#	Creating user name:	WinNT
#	Creation time:	15. 06. 2019 21:02

#	Modifying user name:	WinNT
#	Modification time:	15. 06. 2019 21:02

#	Program:	/corina/corina34_cracker 3.40 0067  02.08.2006

@<TRIPOS>MOLECULE
ASD05740063
  49   50    0    0    0
SMALL
NO_CHARGES


@<TRIPOS>ATOM
   1 C1            -0.0225     1.8097     0.0120 C.3     
   2 C2             2.5380     0.3605     3.6721 C.3     
   3 N3             4.1902     6.2455     4.3252 N.ar    
   4 C4             4.2702     6.5476     3.0341 C.ar    
   5 C5             3.8555     5.0429     4.7434 C.ar    
   6 C6             3.5687     4.0349     3.8205 C.ar    
   7 C7             3.6431     4.3197     2.4404 C.ar    
   8 C8             4.0011     5.6018     2.0527 C.ar    
   9 C9             3.1923     2.6868     4.2457 C.2     
  10 C10            2.9293     1.7631     3.2839 C.2     
  11 C11            3.0234     2.1182     1.9227 C.2     
  12 O12            3.3701     3.3580     1.5379 O.3     
  13 C13            1.0356     0.2442     3.6878 C.2     
  14 S14            0.0094     0.5540     5.0821 S.3     
  15 O15            2.7849     1.2788     1.0732 O.2     
  16 N16            4.6293     7.8331     2.6583 N.pl3   
  17 C17            3.0992     2.3323     5.7075 C.3     
  18 C18            0.2785    -0.1047     2.6419 C.2     
  19 C19           -1.0852    -0.1380     2.8965 C.2     
  20 C20           -1.4307     0.1752     4.1466 C.2     
  21 N21            0.8226    -0.4138     1.3808 N.am    
  22 S22            0.0021    -0.0041     0.0020 S.o2    
  23 O23           -1.3056    -0.5216     0.2056 O.2     
  24 O24            0.8248    -0.4858    -1.0517 O.2     
  25 C25            4.7221     8.1822     1.2385 C.3     
  26 H26            1.0001     2.1870     0.0043 H       
  27 H27           -0.5497     2.1708    -0.8711 H       
  28 H28           -0.5327     2.1613     0.9088 H       
  29 H29            2.9495    -0.3446     2.9499 H       
  30 H30            2.9303     0.1352     4.6639 H       
  31 H31            3.8012     4.8359     5.8020 H       
  32 H32            4.0695     5.8607     1.0064 H       
  33 H33            4.8190     8.5012     3.3354 H       
  34 H34            3.3471     3.2063     6.3098 H       
  35 H35            2.0848     2.0075     5.9387 H       
  36 H36            3.7985     1.5267     5.9312 H       
  37 H37           -1.8111    -0.4031     2.1420 H       
  38 H38           -2.4422     0.2014     4.5242 H       
  39 H39            1.6782    -0.8667     1.3196 H       
  40 H40            5.4672     7.5492     0.7566 H       
  41 H41            3.7533     8.0297     0.7628 H       
  42 H42            5.0148     9.2275     1.1398 H       
  43 C43           10.9944    16.8968    13.1781 C.3     
  44 N44           11.0142    15.4320    13.1700 N.2     
  45 C45           11.5549    14.8195    12.2240 C.1     
  46 O46           12.0775    14.2275    11.3098 O.2     
  47 H47           12.0169    17.2741    13.1703 H       
  48 H48           10.4672    17.2579    12.2950 H       
  49 H49           10.4842    17.2484    14.0749 H       
@<TRIPOS>BOND
   1    1   22 1
   2    1   26 1
   3    1   27 1
   4    1   28 1
   5    2   10 1
   6    2   13 1
   7    2   29 1
   8    2   30 1
   9    3    4 ar
  10    3    5 ar
  11    4   16 1
  12    4    8 ar
  13    5    6 ar
  14    5   31 1
  15    6    7 ar
  16    6    9 1
  17    7    8 ar
  18    7   12 1
  19    8   32 1
  20    9   10 2
  21    9   17 1
  22   10   11 1
  23   11   12 1
  24   11   15 2
  25   13   14 1
  26   13   18 2
  27   14   20 1
  28   16   25 1
  29   16   33 1
  30   17   34 1
  31   17   35 1
  32   17   36 1
  33   18   19 1
  34   18   21 1
  35   19   20 2
  36   19   37 1
  37   20   38 1
  38   21   22 am
  39   21   39 1
  40   22   23 2
  41   22   24 2
  42   25   40 1
  43   25   41 1
  44   25   42 1
  45   43   44 1
  46   43   47 1
  47   43   48 1
  48   43   49 1
  49   44   45 2
  50   45   46 2

#	End of record

