#	Name: ASD07300514
#	Creating user name:	WinNT
#	Creation time:	15. 06. 2019 21:09

#	Modifying user name:	WinNT
#	Modification time:	15. 06. 2019 21:09

#	Program:	/corina/corina34_cracker 3.40 0067  02.08.2006

@<TRIPOS>MOLECULE
ASD07300514
  32   35    0    0    0
SMALL
NO_CHARGES


@<TRIPOS>ATOM
   1 C1            -0.0158     1.3128     0.0093 C.2     
   2 N2             0.0021    -0.0041     0.0020 N.2     
   3 C3             1.2853    -0.4491    -0.0126 C.ar    
   4 C4             2.1167     0.6808    -0.0145 C.ar    
   5 N5             1.2676     1.7868    -0.0004 N.am    
   6 C6             1.8585    -1.7229    -0.0249 C.ar    
   7 C7             3.2298    -1.8555    -0.0387 C.ar    
   8 C8             4.0453    -0.7347    -0.0405 C.ar    
   9 C9             3.4928     0.5312    -0.0284 C.ar    
  10 N10           -0.9266     2.3546     0.0285 N.pl3   
  11 C11           -0.1446     3.5992     0.0233 C.3     
  12 C12            1.2948     3.1366     0.0072 C.2     
  13 O13            2.2815     3.8408     0.0018 O.2     
  14 C14           -2.3228     2.2443     0.0483 C.ar    
  15 C15           -3.1094     3.3886     0.0663 C.ar    
  16 C16           -4.4857     3.2800     0.0858 C.ar    
  17 C17           -5.0833     2.0263     0.0874 C.ar    
  18 C18           -4.2966     0.8820     0.0694 C.ar    
  19 C19           -2.9204     0.9908     0.0442 C.ar    
  20 N20           -6.4782     1.9162     0.1077 N.pl3   
  21 H21            1.2290    -2.6006    -0.0233 H       
  22 H22            3.6728    -2.8404    -0.0479 H       
  23 H23            5.1189    -0.8519    -0.0514 H       
  24 H24            4.1324     1.4014    -0.0299 H       
  25 H25           -0.3708     4.1876    -0.8660 H       
  26 H26           -0.3438     4.1781     0.9251 H       
  27 H27           -2.6447     4.3635     0.0654 H       
  28 H28           -5.0975     4.1699     0.1002 H       
  29 H29           -4.7613    -0.0929     0.0710 H       
  30 H30           -2.3086     0.1010     0.0257 H       
  31 H31           -7.0277     2.7154     0.1206 H       
  32 H32           -6.8956     1.0406     0.1088 H       
@<TRIPOS>BOND
   1    1    2 2
   2    1    5 1
   3    1   10 1
   4    2    3 1
   5    3    4 ar
   6    3    6 ar
   7    4    5 1
   8    4    9 ar
   9    5   12 am
  10    6    7 ar
  11    6   21 1
  12    7    8 ar
  13    7   22 1
  14    8    9 ar
  15    8   23 1
  16    9   24 1
  17   10   11 1
  18   10   14 1
  19   11   12 1
  20   11   25 1
  21   11   26 1
  22   12   13 2
  23   14   15 ar
  24   14   19 ar
  25   15   16 ar
  26   15   27 1
  27   16   17 ar
  28   16   28 1
  29   17   18 ar
  30   17   20 1
  31   18   19 ar
  32   18   29 1
  33   19   30 1
  34   20   31 1
  35   20   32 1

#	End of record

