#	Name: ASD01478045
#	Creating user name:	WinNT
#	Creation time:	15. 06. 2019 19:21

#	Modifying user name:	WinNT
#	Modification time:	15. 06. 2019 19:21

#	Program:	/corina/corina34_cracker 3.40 0067  02.08.2006

@<TRIPOS>MOLECULE
ASD01478045
  77   80    0    0    0
SMALL
NO_CHARGES


@<TRIPOS>ATOM
   1 C1             8.3991    10.4813    -3.2295 C.3     
   2 C2             8.3775     7.5316     7.3091 C.3     
   3 C3             9.2205     8.6696     7.9195 C.3     
   4 C4             9.1146     6.2409     7.7406 C.3     
   5 C5             9.5844     6.5672     9.1784 C.3     
   6 C6             9.9622     8.0724     9.1248 C.3     
   7 C7             7.2476     7.1829     5.2360 C.2     
   8 O8             8.3485     7.6407     5.8615 O.3     
   9 N9             7.1567     7.2543     3.8932 N.am    
  10 O10            6.3361     6.7053     5.8821 O.2     
  11 C11            4.8893     7.8502     3.1966 C.3     
  12 C12            5.9588     6.7562     3.2126 C.3     
  13 C13            6.3130     6.3681     1.7757 C.3     
  14 C14            5.0940     5.7326     1.1039 C.3     
  15 N15            5.4690     5.2422    -0.2247 N.am    
  16 S16            4.8034     5.9262    -1.5780 S.o2    
  17 C17            5.8535     7.2564    -2.0603 C.ar    
  18 C18            6.8969     7.0300    -2.9383 C.ar    
  19 C19            7.7210     8.0735    -3.3163 C.ar    
  20 C20            7.5011     9.3436    -2.8170 C.ar    
  21 C21            6.4576     9.5701    -1.9390 C.ar    
  22 C22            5.6304     8.5276    -1.5651 C.ar    
  23 O23            4.8940     4.9502    -2.6069 O.2     
  24 O24            3.5754     6.5125    -1.1688 O.2     
  25 C25            6.4327     4.1467    -0.3560 C.3     
  26 C26            5.8199     2.8592     0.1987 C.3     
  27 C27            4.5963     2.4758    -0.6359 C.3     
  28 C28            6.8540     1.7333     0.1347 C.3     
  29 O29            6.7027     7.5354     1.0493 O.3     
  30 O30           10.8256     5.8821     9.4204 O.3     
  31 C31           11.8437     6.8856     9.5701 C.3     
  32 O32           11.3796     8.0407     8.8397 O.3     
  33 O33            7.8676    11.1080    -4.3986 O.3     
  34 C34            4.4520     8.1458     4.6081 C.ar    
  35 C35            5.1043     9.1167     5.3448 C.ar    
  36 C36            4.7032     9.3878     6.6396 C.ar    
  37 C37            3.6493     8.6885     7.1975 C.ar    
  38 C38            2.9964     7.7183     6.4604 C.ar    
  39 C39            3.3947     7.4501     5.1642 C.ar    
  40 H40            8.4570    11.2101    -2.4210 H       
  41 H41            9.3963    10.0974    -3.4446 H       
  42 H42            7.3657     7.5468     7.7143 H       
  43 H43            9.9373     9.0377     7.1854 H       
  44 H44            8.5705     9.4813     8.2462 H       
  45 H45            8.4327     5.3905     7.7422 H       
  46 H46            9.9685     6.0497     7.0907 H       
  47 H47            8.8230     6.3502     9.9276 H       
  48 H48            9.7291     8.5936    10.0533 H       
  49 H49            7.8844     7.6356     3.3775 H       
  50 H50            5.3006     8.7539     2.7468 H       
  51 H51            4.0324     7.5120     2.6140 H       
  52 H52            5.5773     5.8828     3.7414 H       
  53 H53            7.1364     5.6540     1.7846 H       
  54 H54            4.7372     4.9006     1.7109 H       
  55 H55            4.3036     6.4768     1.0067 H       
  56 H56            7.0687     6.0376    -3.3283 H       
  57 H57            8.5366     7.8964    -4.0017 H       
  58 H58            6.2860    10.5623    -1.5487 H       
  59 H59            4.8151     8.7045    -0.8792 H       
  60 H60            6.6823     4.0064    -1.4078 H       
  61 H61            7.3366     4.3890     0.2028 H       
  62 H62            5.5184     3.0171     1.2342 H       
  63 H63            4.1598     1.5586    -0.2407 H       
  64 H64            3.8596     3.2778    -0.5903 H       
  65 H65            4.8978     2.3179    -1.6714 H       
  66 H66            7.7258     2.0065     0.7293 H       
  67 H67            6.4175     0.8161     0.5299 H       
  68 H68            7.1555     1.5754    -0.9008 H       
  69 H69            6.0169     8.2154     1.0004 H       
  70 H70           11.9725     7.1349    10.6233 H       
  71 H71           12.7849     6.5302     9.1506 H       
  72 H72            8.3958    11.8509    -4.7213 H       
  73 H73            5.9277     9.6631     4.9090 H       
  74 H74            5.2133    10.1458     7.2154 H       
  75 H75            3.3364     8.8999     8.2093 H       
  76 H76            2.1733     7.1717     6.8964 H       
  77 H77            2.8822     6.6948     4.5870 H       
@<TRIPOS>BOND
   1    1   33 1
   2    1   20 1
   3    1   40 1
   4    1   41 1
   5    2    3 1
   6    2    4 1
   7    2    8 1
   8    2   42 1
   9    3    6 1
  10    3   43 1
  11    3   44 1
  12    4    5 1
  13    4   45 1
  14    4   46 1
  15    5    6 1
  16    5   30 1
  17    5   47 1
  18    6   32 1
  19    6   48 1
  20    7    8 1
  21    7    9 am
  22    7   10 2
  23    9   12 1
  24    9   49 1
  25   11   12 1
  26   11   34 1
  27   11   50 1
  28   11   51 1
  29   12   13 1
  30   12   52 1
  31   13   14 1
  32   13   29 1
  33   13   53 1
  34   14   15 1
  35   14   54 1
  36   14   55 1
  37   15   16 am
  38   15   25 1
  39   16   17 1
  40   16   23 2
  41   16   24 2
  42   17   18 ar
  43   17   22 ar
  44   18   19 ar
  45   18   56 1
  46   19   20 ar
  47   19   57 1
  48   20   21 ar
  49   21   22 ar
  50   21   58 1
  51   22   59 1
  52   25   26 1
  53   25   60 1
  54   25   61 1
  55   26   27 1
  56   26   28 1
  57   26   62 1
  58   27   63 1
  59   27   64 1
  60   27   65 1
  61   28   66 1
  62   28   67 1
  63   28   68 1
  64   29   69 1
  65   30   31 1
  66   31   32 1
  67   31   70 1
  68   31   71 1
  69   33   72 1
  70   34   35 ar
  71   34   39 ar
  72   35   36 ar
  73   35   73 1
  74   36   37 ar
  75   36   74 1
  76   37   38 ar
  77   37   75 1
  78   38   39 ar
  79   38   76 1
  80   39   77 1

#	End of record

