#	Name: ASD03331491
#	Creating user name:	WinNT
#	Creation time:	15. 06. 2019 20:39

#	Modifying user name:	WinNT
#	Modification time:	15. 06. 2019 20:39

#	Program:	/corina/corina34_cracker 3.40 0067  02.08.2006

@<TRIPOS>MOLECULE
ASD03331491
  58   60    0    0    0
SMALL
NO_CHARGES


@<TRIPOS>ATOM
   1 C1            -0.4064     0.8935    -1.9868 C.ar    
   2 C2            -0.2026    -0.5473    -1.7220 C.2     
   3 N3            -1.1709    -1.5096    -1.7643 N.pl3   
   4 C4            -0.5803    -2.6923    -1.4490 C.2     
   5 C5             0.7405    -2.4385    -1.2346 C.2     
   6 N6             0.9395    -1.1143    -1.4131 N.2     
   7 C7             1.7691    -3.4313    -0.8776 C.2     
   8 N8             3.0462    -3.0420    -0.6932 N.am    
   9 C9            -1.1460     1.3041    -3.0958 C.ar    
  10 O10            1.4657    -4.6021    -0.7492 O.2     
  11 C11            4.0689    -4.0291    -0.3382 C.3     
  12 C12            4.0690    -4.2410     1.1770 C.3     
  13 C13            5.4219    -3.5302    -0.7758 C.2     
  14 C14            2.6691    -4.6562     1.6340 C.3     
  15 C15            5.0703    -5.3399     1.5383 C.3     
  16 C16            4.4677    -2.9386     1.8741 C.3     
  17 O17            5.5689    -2.3660    -1.0824 O.2     
  18 N18            6.4687    -4.3776    -0.8263 N.am    
  19 C19            7.7995    -3.8777    -1.1801 C.3     
  20 C20           -1.3328     2.6518    -3.3376 C.ar    
  21 C21           -0.7867     3.5945    -2.4815 C.ar    
  22 C22           -0.0520     3.1941    -1.3806 C.ar    
  23 C23            0.1364     1.8492    -1.1238 C.ar    
  24 F24            0.8541     1.4595    -0.0475 F       
  25 F25           -2.0490     3.0510    -4.4113 F       
  26 C26           -2.5840    -1.3119    -2.0993 C.3     
  27 C27           -3.4263    -2.3863    -1.4077 C.3     
  28 C28           -3.5457    -3.6130    -2.3106 C.3     
  29 C29           -2.1696    -4.2136    -2.5803 C.3     
  30 C30           -1.2784    -4.0229    -1.3490 C.3     
  31 H31            3.2882    -2.1083    -0.7956 H       
  32 H32           -1.5716     0.5703    -3.7642 H       
  33 H33            3.8511    -4.9734    -0.8371 H       
  34 H34            2.3851    -5.5840     1.1375 H       
  35 H35            2.6692    -4.8071     2.7135 H       
  36 H36            1.9558    -3.8733     1.3767 H       
  37 H37            6.0372    -5.1125     1.0892 H       
  38 H38            5.1764    -5.3930     2.6218 H       
  39 H39            4.7108    -6.2973     1.1611 H       
  40 H40            3.7543    -2.1557     1.6167 H       
  41 H41            4.4677    -3.0895     2.9536 H       
  42 H42            5.4650    -2.6428     1.5485 H       
  43 H43            6.3409    -5.3186    -0.6285 H       
  44 H44            7.7691    -3.4371    -2.1766 H       
  45 H45            8.1075    -3.1217    -0.4578 H       
  46 H46            8.5122    -4.7024    -1.1691 H       
  47 H47           -0.9353     4.6465    -2.6752 H       
  48 H48            0.3717     3.9338    -0.7174 H       
  49 H49           -2.9032    -0.3261    -1.7610 H       
  50 H50           -2.7154    -1.3860    -3.1788 H       
  51 H51           -2.9501    -2.6718    -0.4698 H       
  52 H52           -4.4207    -1.9900    -1.2018 H       
  53 H53           -4.1744    -4.3584    -1.8235 H       
  54 H54           -4.0023    -3.3207    -3.2562 H       
  55 H55           -2.2730    -5.2776    -2.7927 H       
  56 H56           -1.7170    -3.7144    -3.4371 H       
  57 H57           -0.5374    -4.8213    -1.3081 H       
  58 H58           -1.8915    -4.0463    -0.4481 H       
@<TRIPOS>BOND
   1    1    2 1
   2    1    9 ar
   3    1   23 ar
   4    2    3 1
   5    2    6 2
   6    3    4 1
   7    3   26 1
   8    4    5 2
   9    4   30 1
  10    5    6 1
  11    5    7 1
  12    7    8 am
  13    7   10 2
  14    8   11 1
  15    8   31 1
  16    9   20 ar
  17    9   32 1
  18   11   12 1
  19   11   13 1
  20   11   33 1
  21   12   14 1
  22   12   15 1
  23   12   16 1
  24   13   17 2
  25   13   18 am
  26   14   34 1
  27   14   35 1
  28   14   36 1
  29   15   37 1
  30   15   38 1
  31   15   39 1
  32   16   40 1
  33   16   41 1
  34   16   42 1
  35   18   19 1
  36   18   43 1
  37   19   44 1
  38   19   45 1
  39   19   46 1
  40   20   21 ar
  41   20   25 1
  42   21   22 ar
  43   21   47 1
  44   22   23 ar
  45   22   48 1
  46   23   24 1
  47   26   27 1
  48   26   49 1
  49   26   50 1
  50   27   28 1
  51   27   51 1
  52   27   52 1
  53   28   29 1
  54   28   53 1
  55   28   54 1
  56   29   30 1
  57   29   55 1
  58   29   56 1
  59   30   57 1
  60   30   58 1

#	End of record

