#	Name: ASD01208695
#	Creating user name:	WinNT
#	Creation time:	15. 06. 2019 19:10

#	Modifying user name:	WinNT
#	Modification time:	15. 06. 2019 19:10

#	Program:	/corina/corina34_cracker 3.40 0067  02.08.2006

@<TRIPOS>MOLECULE
ASD01208695
  61   64    0    0    0
SMALL
NO_CHARGES


@<TRIPOS>ATOM
   1 C1            -1.3022     1.1130     0.9966 C.2     
   2 C2            -0.9242    -0.1675     0.3622 C.ar    
   3 C3             0.4119    -0.4291     0.0556 C.ar    
   4 C4             0.7618    -1.6300    -0.5388 C.ar    
   5 C5            -0.2140    -2.5725    -0.8300 C.ar    
   6 C6            -1.5436    -2.3167    -0.5270 C.ar    
   7 C7            -1.9015    -1.1204     0.0734 C.ar    
   8 O8            -0.4487     1.9400     1.2520 O.2     
   9 N9            -2.5938     1.3659     1.2868 N.am    
  10 S10           -4.5433     3.0202     2.3044 S.3     
  11 C11           -2.9490     2.5691     1.8829 C.2     
  12 N12           -2.1197     3.5135     2.2012 N.2     
  13 C13           -2.6306     4.5932     2.7626 C.2     
  14 C14           -3.9546     4.5597     2.9265 C.2     
  15 O15           -2.4954    -3.2429    -0.8147 O.3     
  16 C16           -3.1361    -3.1491    -2.0085 C.ar    
  17 C17           -4.1929    -4.0035    -2.2966 C.ar    
  18 C18           -4.8455    -3.9114    -3.5069 C.ar    
  19 C19           -4.4435    -2.9575    -4.4440 C.ar    
  20 C20           -3.3811    -2.1003    -4.1505 C.ar    
  21 C21           -2.7366    -2.1953    -2.9361 C.ar    
  22 O22           -4.8598    -1.9872    -6.7351 O.3     
  23 C23           -5.1403    -2.8558    -5.7431 C.2     
  24 N24           -6.1478    -3.5945    -6.1463 N.2     
  25 N25           -6.4979    -3.2257    -7.3282 N.2     
  26 C26           -5.7346    -2.2456    -7.7230 C.2     
  27 C27           -5.8176    -1.5313    -9.0474 C.3     
  28 O28            2.0627    -1.8856    -0.8377 O.3     
  29 C29            3.5200    -3.0395    -2.3821 C.3     
  30 C30            2.3611    -3.1686    -1.3916 C.3     
  31 C31            2.7550    -4.1299    -0.2684 C.3     
  32 C32            1.6417    -4.1725     0.7803 C.3     
  33 C33            2.9651    -5.5309    -0.8463 C.3     
  34 O34            4.7024    -2.6452    -1.6832 O.3     
  35 C35            5.8502    -2.4953    -2.5211 C.3     
  36 H36            1.1720     0.3042     0.2813 H       
  37 H37            0.0622    -3.5077    -1.2942 H       
  38 H38           -2.9360    -0.9238     0.3131 H       
  39 H39           -3.2754     0.7076     1.0793 H       
  40 H40           -2.0262     5.4356     3.0648 H       
  41 H41           -4.5595     5.3400     3.3641 H       
  42 H42           -4.5032    -4.7411    -1.5713 H       
  43 H43           -5.6666    -4.5765    -3.7304 H       
  44 H44           -3.0671    -1.3615    -4.8730 H       
  45 H45           -1.9173    -1.5301    -2.7069 H       
  46 H46           -5.1791    -2.0355    -9.7728 H       
  47 H47           -6.8484    -1.5413    -9.4016 H       
  48 H48           -5.4853    -0.5003    -8.9255 H       
  49 H49            3.6895    -3.9993    -2.8702 H       
  50 H50            3.2743    -2.2885    -3.1329 H       
  51 H51            1.4825    -3.5544    -1.9086 H       
  52 H52            3.6791    -3.7864     0.1966 H       
  53 H53            0.7176    -4.5161     0.3154 H       
  54 H54            1.9223    -4.8574     1.5805 H       
  55 H55            1.4920    -3.1745     1.1920 H       
  56 H56            3.7763    -5.5059    -1.5740 H       
  57 H57            3.2195    -6.2213    -0.0422 H       
  58 H58            2.0491    -5.8636    -1.3346 H       
  59 H59            6.0680    -3.4438    -3.0120 H       
  60 H60            5.6528    -1.7330    -3.2747 H       
  61 H61            6.7053    -2.1948    -1.9156 H       
@<TRIPOS>BOND
   1    1    2 1
   2    1    8 2
   3    1    9 am
   4    2    3 ar
   5    2    7 ar
   6    3    4 ar
   7    3   36 1
   8    4    5 ar
   9    4   28 1
  10    5    6 ar
  11    5   37 1
  12    6    7 ar
  13    6   15 1
  14    7   38 1
  15    9   11 1
  16    9   39 1
  17   10   11 1
  18   10   14 1
  19   11   12 2
  20   12   13 1
  21   13   14 2
  22   13   40 1
  23   14   41 1
  24   15   16 1
  25   16   17 ar
  26   16   21 ar
  27   17   18 ar
  28   17   42 1
  29   18   19 ar
  30   18   43 1
  31   19   20 ar
  32   19   23 1
  33   20   21 ar
  34   20   44 1
  35   21   45 1
  36   22   23 1
  37   22   26 1
  38   23   24 2
  39   24   25 1
  40   25   26 2
  41   26   27 1
  42   27   46 1
  43   27   47 1
  44   27   48 1
  45   28   30 1
  46   29   30 1
  47   29   34 1
  48   29   49 1
  49   29   50 1
  50   30   31 1
  51   30   51 1
  52   31   32 1
  53   31   33 1
  54   31   52 1
  55   32   53 1
  56   32   54 1
  57   32   55 1
  58   33   56 1
  59   33   57 1
  60   33   58 1
  61   34   35 1
  62   35   59 1
  63   35   60 1
  64   35   61 1

#	End of record

