#	Name: ASD08710074
#	Creating user name:	WinNT
#	Creation time:	15. 06. 2019 21:19

#	Modifying user name:	WinNT
#	Modification time:	15. 06. 2019 21:19

#	Program:	/corina/corina34_cracker 3.40 0067  02.08.2006

@<TRIPOS>MOLECULE
ASD08710074
  56   57    0    0    0
SMALL
NO_CHARGES


@<TRIPOS>ATOM
   1 C1             0.0849     1.3317     1.0056 C.ar    
   2 C2             0.1400     0.3580     0.0095 C.ar    
   3 C3             1.3240    -0.2816    -0.2394 C.ar    
   4 C4             2.4482     0.0698     0.5239 C.ar    
   5 C5             2.3204     1.0540     1.5051 C.ar    
   6 N6             1.1621     1.6450     1.7125 N.ar    
   7 N7            -1.1099     1.9849     1.2563 N.pl3   
   8 C8             3.7463    -0.5921     0.2925 C.2     
   9 O9             4.7542     0.0753     0.1611 O.2     
  10 N10            3.8150    -1.9365     0.2270 N.am    
  11 C11            5.0779    -2.6050    -0.1167 C.3     
  12 C12            5.4201    -3.6066     0.9932 C.3     
  13 N13            4.2336    -4.4303     1.2646 N.am    
  14 C14            2.9707    -3.7618     1.6083 C.3     
  15 C15            2.6300    -2.7604     0.5038 C.3     
  16 S16            4.3180    -6.0822     1.1841 S.o2    
  17 O17            2.9950    -6.5402     0.9412 O.2     
  18 O18            5.4145    -6.3869     0.3331 O.2     
  19 C19            4.7581    -6.6609     2.7891 C.ar    
  20 C20            3.7718    -6.9613     3.7099 C.ar    
  21 C21            4.1171    -7.4152     4.9692 C.ar    
  22 C22            5.4485    -7.5692     5.3074 C.ar    
  23 C23            6.4348    -7.2696     4.3862 C.ar    
  24 C24            6.0894    -6.8198     3.1255 C.ar    
  25 C25            5.8249    -8.0631     6.6805 C.3     
  26 F26            5.9090    -9.4595     6.6669 F       
  27 F27            7.0633    -7.5249     7.0464 F       
  28 F28            4.8519    -7.6634     7.6028 F       
  29 C29            6.1944    -1.5653    -0.2323 C.3     
  30 C30            3.5174     1.4434     2.3337 C.3     
  31 C31           -2.3048     1.6510     0.4772 C.3     
  32 H32           -0.7436     0.1103    -0.5601 H       
  33 H33            1.3917    -1.0397    -1.0056 H       
  34 H34           -1.1558     2.6635     1.9478 H       
  35 H35            4.9665    -3.1327    -1.0640 H       
  36 H36            6.2422    -4.2448     0.6694 H       
  37 H37            5.7058    -3.0679     1.8967 H       
  38 H38            2.1753    -4.5025     1.6906 H       
  39 H39            3.0821    -3.2341     2.5556 H       
  40 H40            1.8091    -2.1223     0.8312 H       
  41 H41            2.3403    -3.2994    -0.3982 H       
  42 H42            2.7316    -6.8410     3.4457 H       
  43 H43            3.3466    -7.6493     5.6888 H       
  44 H44            7.4750    -7.3896     4.6506 H       
  45 H45            6.8598    -6.5893     2.4046 H       
  46 H46            6.2641    -1.0021     0.6983 H       
  47 H47            7.1417    -2.0693    -0.4238 H       
  48 H48            5.9728    -0.8840    -1.0537 H       
  49 H49            4.1008     2.1931     1.7993 H       
  50 H50            3.1819     1.8547     3.2857 H       
  51 H51            4.1351     0.5639     2.5154 H       
  52 H52           -2.1157     1.8440    -0.5787 H       
  53 H53           -2.5465     0.5972     0.6163 H       
  54 H54           -3.1412     2.2632     0.8144 H       
  55 Cl55          12.4750     7.6635    12.6028 Cl      
  56 H56           12.4750     9.0335    12.6028 H       
@<TRIPOS>BOND
   1    1    2 ar
   2    1    6 ar
   3    1    7 1
   4    2    3 ar
   5    2   32 1
   6    3    4 ar
   7    3   33 1
   8    4    5 ar
   9    4    8 1
  10    5    6 ar
  11    5   30 1
  12    7   31 1
  13    7   34 1
  14    8    9 2
  15    8   10 am
  16   10   11 1
  17   10   15 1
  18   11   12 1
  19   11   29 1
  20   11   35 1
  21   12   13 1
  22   12   36 1
  23   12   37 1
  24   13   14 1
  25   13   16 am
  26   14   15 1
  27   14   38 1
  28   14   39 1
  29   15   40 1
  30   15   41 1
  31   16   17 2
  32   16   18 2
  33   16   19 1
  34   19   20 ar
  35   19   24 ar
  36   20   21 ar
  37   20   42 1
  38   21   22 ar
  39   21   43 1
  40   22   23 ar
  41   22   25 1
  42   23   24 ar
  43   23   44 1
  44   24   45 1
  45   25   26 1
  46   25   27 1
  47   25   28 1
  48   29   46 1
  49   29   47 1
  50   29   48 1
  51   30   49 1
  52   30   50 1
  53   30   51 1
  54   31   52 1
  55   31   53 1
  56   31   54 1
  57   55   56 1

#	End of record

