#	Name: ASD01028719
#	Creating user name:	WinNT
#	Creation time:	15. 06. 2019 18:58

#	Modifying user name:	WinNT
#	Modification time:	15. 06. 2019 18:58

#	Program:	/corina/corina34_cracker 3.40 0067  02.08.2006

@<TRIPOS>MOLECULE
ASD01028719
  67   72    0    0    0
SMALL
NO_CHARGES


@<TRIPOS>ATOM
   1 C1            -0.0186     1.5205     0.0104 C.3     
   2 C2             0.0021    -0.0041     0.0020 C.2     
   3 C3             1.1239    -0.7147    -0.2404 C.2     
   4 C4             2.4870    -0.1180    -0.5222 C.3     
   5 C5             2.3166     1.3483    -0.9311 C.3     
   6 N6             1.3747     1.9880    -0.0004 N.am    
   7 C7            -1.1179    -0.7848     0.2394 C.2     
   8 C8            -0.9178    -2.1128     0.1880 C.2     
   9 S9             0.7700    -2.4366    -0.1783 S.3     
  10 C10            1.7787     2.9771     0.8212 C.2     
  11 O11            2.9345     3.3512     0.7991 O.2     
  12 O12            0.9015     3.5505     1.6664 O.3     
  13 C13           -3.8807    -5.0679     0.8106 C.2     
  14 C14           -2.5595    -5.4620     0.5221 C.2     
  15 C15           -1.6122    -4.5093     0.3235 C.2     
  16 C16           -1.9556    -3.1409     0.4061 C.2     
  17 N17           -3.1910    -2.7723     0.6760 N.2     
  18 N18           -4.1854    -3.7301     0.8851 N.pl3   
  19 N19           -5.9544    -4.8902     1.2584 N.2     
  20 N20           -5.0024    -5.7298     1.0435 N.2     
  21 C21           -5.5038    -3.6632     1.1710 C.2     
  22 C22           -6.3114    -2.4041     1.3539 C.3     
  23 O23           -6.8517    -1.9977     0.0949 O.3     
  24 N24           -9.1535     1.4246     0.0870 N.ar    
  25 C25           -8.6237     0.9880     1.2055 C.ar    
  26 C26           -7.8427    -0.1600     1.2466 C.ar    
  27 C27           -7.6097    -0.8736     0.0844 C.ar    
  28 C28           -8.1854    -0.3947    -1.1140 C.ar    
  29 C29           -7.9939    -1.0647    -2.3314 C.ar    
  30 C30           -8.5619    -0.5787    -3.4685 C.ar    
  31 C31           -9.3372     0.5842    -3.4402 C.ar    
  32 C32           -9.5436     1.2642    -2.2613 C.ar    
  33 C33           -8.9689     0.7844    -1.0736 C.ar    
  34 O34           -9.8929     1.0487    -4.5893 O.3     
  35 C35           -9.6422     0.2997    -5.7802 C.3     
  36 C36            1.4065     4.6094     2.5220 C.3     
  37 C37            1.9489     5.7489     1.6571 C.3     
  38 C38            0.2735     5.1349     3.4058 C.3     
  39 C39            2.5290     4.0603     3.4047 C.3     
  40 H40           -0.5381     1.8876    -0.8747 H       
  41 H41           -0.5211     1.8780     0.9092 H       
  42 H42            3.1033    -0.1771     0.3749 H       
  43 H43            2.9657    -0.6690    -1.3318 H       
  44 H44            3.2800     1.8559    -0.8833 H       
  45 H45            1.9216     1.4019    -1.9456 H       
  46 H46           -2.0858    -0.3553     0.4516 H       
  47 H47           -2.3028    -6.5092     0.4602 H       
  48 H48           -0.5954    -4.7978     0.1015 H       
  49 H49           -7.1248    -2.5927     2.0546 H       
  50 H50           -5.6699    -1.6147     1.7458 H       
  51 H51           -8.7992     1.5367     2.1190 H       
  52 H52           -7.4194    -0.4944     2.1822 H       
  53 H53           -7.3967    -1.9639    -2.3663 H       
  54 H54           -8.4118    -1.0974    -4.4039 H       
  55 H55          -10.1439     2.1620    -2.2502 H       
  56 H56           -8.5690     0.2636    -5.9675 H       
  57 H57          -10.0241    -0.7140    -5.6590 H       
  58 H58          -10.1421     0.7781    -6.6223 H       
  59 H59            1.1492     6.1402     1.0282 H       
  60 H60            2.3280     6.5439     2.2993 H       
  61 H61            2.7561     5.3746     1.0274 H       
  62 H62           -0.1130     4.3231     4.0220 H       
  63 H63            0.6525     5.9298     4.0481 H       
  64 H64           -0.5263     5.5261     2.7770 H       
  65 H65            3.3362     3.6859     2.7751 H       
  66 H66            2.9081     4.8552     4.0470 H       
  67 H67            2.1426     3.2485     4.0209 H       
@<TRIPOS>BOND
   1    1    2 1
   2    1    6 1
   3    1   40 1
   4    1   41 1
   5    2    3 2
   6    2    7 1
   7    3    4 1
   8    3    9 1
   9    4    5 1
  10    4   42 1
  11    4   43 1
  12    5    6 1
  13    5   44 1
  14    5   45 1
  15    6   10 am
  16    7    8 2
  17    7   46 1
  18    8    9 1
  19    8   16 1
  20   10   11 2
  21   10   12 1
  22   12   36 1
  23   13   14 1
  24   13   18 1
  25   13   20 2
  26   14   15 2
  27   14   47 1
  28   15   16 1
  29   15   48 1
  30   16   17 2
  31   17   18 1
  32   18   21 1
  33   19   20 1
  34   19   21 2
  35   21   22 1
  36   22   23 1
  37   22   49 1
  38   22   50 1
  39   23   27 1
  40   24   25 ar
  41   24   33 ar
  42   25   26 ar
  43   25   51 1
  44   26   27 ar
  45   26   52 1
  46   27   28 ar
  47   28   29 ar
  48   28   33 ar
  49   29   30 ar
  50   29   53 1
  51   30   31 ar
  52   30   54 1
  53   31   32 ar
  54   31   34 1
  55   32   33 ar
  56   32   55 1
  57   34   35 1
  58   35   56 1
  59   35   57 1
  60   35   58 1
  61   36   37 1
  62   36   39 1
  63   36   38 1
  64   37   59 1
  65   37   60 1
  66   37   61 1
  67   38   62 1
  68   38   63 1
  69   38   64 1
  70   39   65 1
  71   39   66 1
  72   39   67 1

#	End of record

