#	Name: ASD01884877
#	Creating user name:	WinNT
#	Creation time:	15. 06. 2019 19:49

#	Modifying user name:	WinNT
#	Modification time:	15. 06. 2019 19:49

#	Program:	/corina/corina34_cracker 3.40 0067  02.08.2006

@<TRIPOS>MOLECULE
ASD01884877
  37   41    0    0    0
SMALL
NO_CHARGES


@<TRIPOS>ATOM
   1 N1             2.3587     1.1424    -1.3399 N.ar    
   2 C2             2.2118    -0.1597    -1.2442 C.ar    
   3 C3             1.4897    -0.7362    -0.1945 C.ar    
   4 C4             0.9148     0.0918     0.7691 C.ar    
   5 C5             1.0907     1.4691     0.6365 C.ar    
   6 C6             1.8320     1.9745    -0.4497 C.ar    
   7 C7             0.6588     2.6330     1.4135 C.2     
   8 C8             1.1378     3.7187     0.7867 C.2     
   9 N9             1.8401     3.3430    -0.3269 N.pl3   
  10 C10            1.3369    -2.2078    -0.1075 C.2     
  11 C11            0.5920    -2.8889    -1.0514 C.2     
  12 C12            1.9577    -2.9303     0.9402 C.2     
  13 C13            1.8182    -4.2671     1.0172 C.2     
  14 N14            1.0803    -4.9475     0.0919 N.pl3   
  15 C15            0.4657    -4.2843    -0.9427 C.2     
  16 C16            0.7739    -6.2637    -0.0765 C.2     
  17 N17            0.0222    -6.3599    -1.1426 N.2     
  18 N18           -0.1661    -5.1983    -1.6630 N.2     
  19 C19            1.2196    -7.4019     0.8048 C.3     
  20 H20            2.2795     3.9536    -0.9394 H       
  21 C21            0.1324    -8.2345     1.4873 C.3     
  22 C22            0.9296    -8.8245     0.3222 C.3     
  23 C23           -0.0755    -2.1463    -2.1802 C.3     
  24 F24            0.8535    -1.9159    -3.2005 F       
  25 F25           -1.1357    -2.9108    -2.6788 F       
  26 F26           -0.5638    -0.9228    -1.7091 F       
  27 H27            2.6579    -0.7984    -1.9922 H       
  28 H28            0.3506    -0.3207     1.5924 H       
  29 H29            0.0678     2.6201     2.3174 H       
  30 H30            0.9904     4.7379     1.1121 H       
  31 H31            2.5456    -2.4072     1.6799 H       
  32 H32            2.2962    -4.8078     1.8206 H       
  33 H33            2.1458    -7.2357     1.3548 H       
  34 H34            0.3436    -8.6164     2.4861 H       
  35 H35           -0.9052    -7.9590     1.2987 H       
  36 H36            0.4164    -8.9372    -0.6328 H       
  37 H37            1.6652    -9.5946     0.5545 H       
@<TRIPOS>BOND
   1    1    2 ar
   2    1    6 ar
   3    2    3 ar
   4    2   27 1
   5    3    4 ar
   6    3   10 1
   7    4    5 ar
   8    4   28 1
   9    5    6 ar
  10    5    7 1
  11    6    9 1
  12    7    8 2
  13    7   29 1
  14    8    9 1
  15    8   30 1
  16    9   20 1
  17   10   11 2
  18   10   12 1
  19   11   23 1
  20   11   15 1
  21   12   13 2
  22   12   31 1
  23   13   14 1
  24   13   32 1
  25   14   15 1
  26   14   16 1
  27   15   18 2
  28   16   17 2
  29   16   19 1
  30   17   18 1
  31   19   21 1
  32   19   22 1
  33   19   33 1
  34   21   22 1
  35   21   34 1
  36   21   35 1
  37   22   36 1
  38   22   37 1
  39   23   24 1
  40   23   25 1
  41   23   26 1

#	End of record

