#	Name: ASD01901165
#	Creating user name:	WinNT
#	Creation time:	15. 06. 2019 19:53

#	Modifying user name:	WinNT
#	Modification time:	15. 06. 2019 19:53

#	Program:	/corina/corina34_cracker 3.40 0067  02.08.2006

@<TRIPOS>MOLECULE
ASD01901165
  57   60    0    0    0
SMALL
NO_CHARGES


@<TRIPOS>ATOM
   1 C1             0.1127     1.3090    -0.5317 C.ar    
   2 N2             0.1437    -0.0063    -0.5793 N.ar    
   3 C3             1.2752    -0.6803    -0.4993 C.ar    
   4 C4             2.4874    -0.0285    -0.3609 C.ar    
   5 C5             2.5112     1.3537    -0.3056 C.ar    
   6 C6             1.2941     2.0426    -0.3930 C.ar    
   7 C7             1.2615     3.4733    -0.3416 C.1     
   8 C8             1.2347     4.6462    -0.2994 C.1     
   9 C9             1.2021     6.0769    -0.2480 C.ar    
  10 C10            2.3902     6.8002    -0.1091 C.ar    
  11 C11            2.3549     8.1789    -0.0598 C.ar    
  12 C12            1.1388     8.8489    -0.1478 C.ar    
  13 C13           -0.0456     8.1323    -0.2862 C.ar    
  14 C14           -0.0173     6.7537    -0.3424 C.ar    
  15 N15            1.1068    10.2501    -0.0965 N.am    
  16 C16            1.2007    10.9562    -1.2355 C.2     
  17 N17            1.4129    12.2822    -1.2255 N.am    
  18 C18            1.6736    12.9931     0.0276 C.3     
  19 C19            0.8452    12.3677     1.1522 C.3     
  20 C20            0.9769    10.8669     1.0923 C.2     
  21 O21            1.0914    10.3811    -2.3006 O.2     
  22 O22            0.9694    10.2165     2.1155 O.2     
  23 C23            1.3836    13.0278    -2.4862 C.3     
  24 C24            3.1610    12.8864     0.3702 C.3     
  25 C25            1.2911    14.4662    -0.1286 C.3     
  26 F26            3.5027     8.8788     0.0744 F       
  27 F27           -1.2243     8.7870    -0.3708 F       
  28 C28           -0.2230    14.5829    -0.3151 C.3     
  29 C29            1.7117    15.2380     1.1237 C.3     
  30 C30            1.3291    16.7111     0.9674 C.3     
  31 C31           -0.1850    16.8278     0.7809 C.3     
  32 C32           -0.6056    16.0561    -0.4714 C.3     
  33 H33           -0.8330     1.8255    -0.6050 H       
  34 H34            1.2545    -1.7592    -0.5423 H       
  35 H35            3.4059    -0.5929    -0.2963 H       
  36 H36            3.4436     1.8879    -0.1976 H       
  37 H37            3.3345     6.2807    -0.0400 H       
  38 H38           -0.9367     6.1982    -0.4543 H       
  39 H39            1.2071    12.7285     2.1150 H       
  40 H40           -0.2022    12.6430     1.0294 H       
  41 H41            1.2705    12.3319    -3.3174 H       
  42 H42            0.5443    13.7232    -2.4776 H       
  43 H43            2.3144    13.5833    -2.6015 H       
  44 H44            3.4337    11.8370     0.4820 H       
  45 H45            3.7511    13.3318    -0.4307 H       
  46 H46            3.3577    13.4144     1.3032 H       
  47 H47            1.7976    14.8828    -0.9993 H       
  48 H48           -0.5227    14.0331    -1.2073 H       
  49 H49           -0.7295    14.1664     0.5556 H       
  50 H50            1.2052    14.8215     1.9944 H       
  51 H51            2.7903    15.1549     1.2566 H       
  52 H52            1.6287    17.2610     1.8596 H       
  53 H53            1.8356    17.1277     0.0967 H       
  54 H54           -0.6915    16.4113     1.6516 H       
  55 H55           -0.4575    17.8773     0.6696 H       
  56 H56           -0.0991    16.4726    -1.3421 H       
  57 H57           -1.6843    16.1392    -0.6043 H       
@<TRIPOS>BOND
   1    1    2 ar
   2    1    6 ar
   3    1   33 1
   4    2    3 ar
   5    3    4 ar
   6    3   34 1
   7    4    5 ar
   8    4   35 1
   9    5    6 ar
  10    5   36 1
  11    6    7 1
  12    7    8 3
  13    8    9 1
  14    9   10 ar
  15    9   14 ar
  16   10   11 ar
  17   10   37 1
  18   11   12 ar
  19   11   26 1
  20   12   13 ar
  21   12   15 1
  22   13   14 ar
  23   13   27 1
  24   14   38 1
  25   15   16 am
  26   15   20 am
  27   16   17 am
  28   16   21 2
  29   17   23 1
  30   17   18 1
  31   18   19 1
  32   18   24 1
  33   18   25 1
  34   19   20 1
  35   19   39 1
  36   19   40 1
  37   20   22 2
  38   23   41 1
  39   23   42 1
  40   23   43 1
  41   24   44 1
  42   24   45 1
  43   24   46 1
  44   25   29 1
  45   25   28 1
  46   25   47 1
  47   28   32 1
  48   28   48 1
  49   28   49 1
  50   29   30 1
  51   29   50 1
  52   29   51 1
  53   30   31 1
  54   30   52 1
  55   30   53 1
  56   31   32 1
  57   31   54 1
  58   31   55 1
  59   32   56 1
  60   32   57 1

#	End of record

