#	Name: ASD01420167
#	Creating user name:	WinNT
#	Creation time:	15. 06. 2019 19:20

#	Modifying user name:	WinNT
#	Modification time:	15. 06. 2019 19:20

#	Program:	/corina/corina34_cracker 3.40 0067  02.08.2006

@<TRIPOS>MOLECULE
ASD01420167
  69   73    0    0    0
SMALL
NO_CHARGES


@<TRIPOS>ATOM
   1 C1            -0.0144     1.2120     0.0087 C.2     
   2 O2             0.1295     0.0132     0.1547 O.2     
   3 C3             1.0482     3.4384    -0.4755 C.3     
   4 N4             1.0607     2.0009    -0.1867 N.am    
   5 C5             2.4665     1.5858    -0.1513 C.3     
   6 C6             3.3116     2.8043    -0.4252 C.ar    
   7 C7             4.6836     2.9612    -0.5037 C.ar    
   8 C8             5.2260     4.2102    -0.7735 C.ar    
   9 C9             4.3869     5.3009    -0.9642 C.ar    
  10 C10            3.0188     5.1381    -0.8847 C.ar    
  11 C11            2.4800     3.8908    -0.6154 C.ar    
  12 N12            6.6114     4.3700    -0.8525 N.3     
  13 C13            6.9643     5.7650    -1.1452 C.3     
  14 C14            8.4744     5.8745    -1.3681 C.3     
  15 C15            9.2069     5.3961    -0.1115 C.3     
  16 C16            8.7850     3.9573     0.1990 C.3     
  17 C17            7.2659     3.9034     0.3765 C.3     
  18 N18           10.6572     5.4438    -0.3405 N.3     
  19 C19           11.3955     5.1041     0.8846 C.3     
  20 C20           12.8971     5.1075     0.5865 C.3     
  21 O21           13.2717     6.3856     0.0654 O.3     
  22 C22           12.5724     6.7481    -1.1283 C.3     
  23 C23           11.0674     6.7613    -0.8476 C.3     
  24 C24           -1.3642     1.8009     0.0394 C.ar    
  25 C25           -2.2646     1.4464     1.0558 C.ar    
  26 C26           -3.5308     2.0049     1.0775 C.ar    
  27 C27           -3.9068     2.9112     0.0968 C.ar    
  28 C28           -3.0152     3.2636    -0.9116 C.ar    
  29 C29           -1.7517     2.7197    -0.9407 C.ar    
  30 C30           -3.4329     4.2490    -1.9725 C.3     
  31 C31           -2.5005     5.4616    -1.9378 C.3     
  32 C32           -3.3523     3.5828    -3.3475 C.3     
  33 O33           -5.1495     3.4560     0.1208 O.3     
  34 O34           -1.8954     0.5593     2.0134 O.3     
  35 H35            0.5097     3.6238    -1.4048 H       
  36 H36            0.5694     3.9755     0.3433 H       
  37 H37            2.7079     1.1824     0.8321 H       
  38 H38            2.6482     0.8307    -0.9161 H       
  39 H39            5.3333     2.1115    -0.3546 H       
  40 H40            4.8045     6.2745    -1.1739 H       
  41 H41            2.3663     5.9859    -1.0326 H       
  42 H42            6.4401     6.0915    -2.0434 H       
  43 H43            6.6744     6.3969    -0.3057 H       
  44 H44            8.7631     5.2536    -2.2162 H       
  45 H45            8.7382     6.9127    -1.5700 H       
  46 H46            8.9484     6.0408     0.7285 H       
  47 H47            9.0785     3.3062    -0.6244 H       
  48 H48            9.2706     3.6257     1.1168 H       
  49 H49            6.9745     4.5439     1.2088 H       
  50 H50            6.9606     2.8777     0.5836 H       
  51 H51           11.1762     5.8406     1.6577 H       
  52 H52           11.0948     4.1143     1.2281 H       
  53 H53           13.4509     4.9124     1.5049 H       
  54 H54           13.1243     4.3344    -0.1475 H       
  55 H55           12.8913     7.7394    -1.4502 H       
  56 H56           12.7901     6.0227    -1.9122 H       
  57 H57           10.5273     6.9812    -1.7685 H       
  58 H58           10.8429     7.5242    -0.1022 H       
  59 H59           -4.2266     1.7346     1.8580 H       
  60 H60           -1.0610     2.9992    -1.7225 H       
  61 H61           -4.4568     4.5725    -1.7850 H       
  62 H62           -1.4766     5.1381    -2.1253 H       
  63 H63           -2.8027     6.1743    -2.7051 H       
  64 H64           -2.5580     5.9362    -0.9582 H       
  65 H65           -2.3284     3.2594    -3.5350 H       
  66 H66           -4.0165     2.7190    -3.3722 H       
  67 H67           -3.6544     4.2956    -4.1148 H       
  68 H68           -5.2088     4.2782     0.6264 H       
  69 H69           -1.4867     0.9660     2.7898 H       
@<TRIPOS>BOND
   1    1    2 2
   2    1    4 am
   3    1   24 1
   4    3    4 1
   5    3   11 1
   6    3   35 1
   7    3   36 1
   8    4    5 1
   9    5    6 1
  10    5   37 1
  11    5   38 1
  12    6    7 ar
  13    6   11 ar
  14    7    8 ar
  15    7   39 1
  16    8    9 ar
  17    8   12 1
  18    9   10 ar
  19    9   40 1
  20   10   11 ar
  21   10   41 1
  22   12   13 1
  23   12   17 1
  24   13   14 1
  25   13   42 1
  26   13   43 1
  27   14   15 1
  28   14   44 1
  29   14   45 1
  30   15   16 1
  31   15   18 1
  32   15   46 1
  33   16   17 1
  34   16   47 1
  35   16   48 1
  36   17   49 1
  37   17   50 1
  38   18   19 1
  39   18   23 1
  40   19   20 1
  41   19   51 1
  42   19   52 1
  43   20   21 1
  44   20   53 1
  45   20   54 1
  46   21   22 1
  47   22   23 1
  48   22   55 1
  49   22   56 1
  50   23   57 1
  51   23   58 1
  52   24   25 ar
  53   24   29 ar
  54   25   26 ar
  55   25   34 1
  56   26   27 ar
  57   26   59 1
  58   27   28 ar
  59   27   33 1
  60   28   29 ar
  61   28   30 1
  62   29   60 1
  63   30   31 1
  64   30   32 1
  65   30   61 1
  66   31   62 1
  67   31   63 1
  68   31   64 1
  69   32   65 1
  70   32   66 1
  71   32   67 1
  72   33   68 1
  73   34   69 1

#	End of record

