#	Name: ASD08170198
#	Creating user name:	WinNT
#	Creation time:	15. 06. 2019 21:17

#	Modifying user name:	WinNT
#	Modification time:	15. 06. 2019 21:17

#	Program:	/corina/corina34_cracker 3.40 0067  02.08.2006

@<TRIPOS>MOLECULE
ASD08170198
  93   96    0    0    0
SMALL
NO_CHARGES


@<TRIPOS>ATOM
   1 N1            -0.0150     1.2583     0.0090 N.2     
   2 N2             0.0021    -0.0041     0.0020 N.2     
   3 C3             1.1271     1.8769     0.0014 C.2     
   4 S4             2.3826     0.7116    -0.0169 S.3     
   5 C5             1.1681    -0.5677    -0.0121 C.2     
   6 C6             1.4387    -2.0502    -0.0227 C.3     
   7 C7             1.5165    -2.5442    -1.4687 C.3     
   8 C8             1.8986    -4.7206    -3.2516 C.3     
   9 C9             2.1699    -6.2152    -3.4347 C.3     
  10 C10            2.2167    -6.5408    -4.9053 C.2     
  11 N11            3.2694    -6.5184    -5.6596 N.2     
  12 S12            0.8491    -7.0282    -5.9071 S.3     
  13 C13            1.9000    -7.1354    -7.2557 C.2     
  14 N14            3.1017    -6.8250    -6.8728 N.2     
  15 N15            1.5289    -7.4992    -8.5457 N.am    
  16 C16            2.4537    -7.5464    -9.5250 C.2     
  17 O17            3.6096    -7.2716    -9.2812 O.2     
  18 C18            2.0516    -7.9407   -10.9228 C.3     
  19 N19            1.3017     3.2566     0.0067 N.am    
  20 C20            0.2284     4.0717     0.0214 C.2     
  21 O21           -0.8897     3.6019     0.0299 O.2     
  22 C22            0.4176     5.5667     0.0272 C.3     
  23 C23            1.1734     5.9822    -1.2087 C.ar    
  24 C24            1.0213    -6.9709   -11.4415 C.ar    
  25 S25            1.8422    -4.3286    -1.4814 S.3     
  26 C26           -0.3188    -7.3092   -11.4202 C.ar    
  27 C27           -1.2639    -6.4196   -11.8960 C.ar    
  28 C28           -0.8688    -5.1915   -12.3927 C.ar    
  29 C29            0.4712    -4.8528   -12.4131 C.ar    
  30 C30            1.4159    -5.7407   -11.9333 C.ar    
  31 C31            2.5295     6.2401    -1.1355 C.ar    
  32 C32            3.2227     6.6212    -2.2691 C.ar    
  33 C33            2.5600     6.7440    -3.4759 C.ar    
  34 C34            1.2040     6.4853    -3.5493 C.ar    
  35 C35            0.5116     6.1000    -2.4166 C.ar    
  36 N36           -0.8913     6.2246     0.0433 N.am    
  37 C37           -1.0135     7.4698     0.5442 C.2     
  38 O38           -2.2164     8.0744     0.5591 O.3     
  39 O39           -0.0380     8.0469     0.9823 O.2     
  40 C40           -2.2735     9.4153     1.1133 C.3     
  41 C41           -1.3587    10.3396     0.3072 C.3     
  42 C42           -3.7111     9.9345     1.0453 C.3     
  43 C43           -1.8107     9.3846     2.5713 C.3     
  44 N44            3.2285    -7.9156   -11.7949 N.am    
  45 C45            3.2597    -8.6770   -12.9066 C.2     
  46 O46            4.3413    -8.6540   -13.7080 O.3     
  47 O47            2.3118    -9.3842   -13.1855 O.2     
  48 C48            4.3055    -9.4994   -14.8880 C.3     
  49 C49            3.1282    -9.0883   -15.7744 C.3     
  50 C50            5.6116    -9.3408   -15.6689 C.3     
  51 C51            4.1390   -10.9600   -14.4640 C.3     
  52 H52            2.3843    -2.2506     0.4811 H       
  53 H53            0.6334    -2.5702     0.4961 H       
  54 H54            0.5709    -2.3438    -1.9724 H       
  55 H55            2.3218    -2.0242    -1.9874 H       
  56 H56            2.6943    -4.1461    -3.7258 H       
  57 H57            0.9434    -4.4658    -3.7108 H       
  58 H58            3.1250    -6.4700    -2.9755 H       
  59 H59            1.3741    -6.7896    -2.9605 H       
  60 H60            0.6045    -7.7190    -8.7407 H       
  61 H61            1.6303    -8.9459   -10.9098 H       
  62 H62            2.1959     3.6323    -0.0001 H       
  63 H63            0.9817     5.8582     0.9132 H       
  64 H64           -0.6275    -8.2686   -11.0322 H       
  65 H65           -2.3109    -6.6842   -11.8801 H       
  66 H66           -1.6071    -4.4968   -12.7651 H       
  67 H67            0.7799    -3.8935   -12.8015 H       
  68 H68            2.4629    -5.4761   -11.9493 H       
  69 H69            3.0473     6.1441    -0.1926 H       
  70 H70            4.2821     6.8234    -2.2118 H       
  71 H71            3.1014     7.0425    -4.3614 H       
  72 H72            0.6861     6.5816    -4.4921 H       
  73 H73           -0.5477     5.8978    -2.4739 H       
  74 H74           -1.6700     5.7639    -0.3064 H       
  75 H75           -1.6884    10.3614    -0.7315 H       
  76 H76           -1.4016    11.3462     0.7232 H       
  77 H77           -0.3346     9.9697     0.3556 H       
  78 H78           -4.3628     9.2759     1.6195 H       
  79 H79           -3.7539    10.9410     1.4613 H       
  80 H80           -4.0408     9.9563     0.0066 H       
  81 H81           -0.7865     9.0147     2.6197 H       
  82 H82           -1.8536    10.3912     2.9873 H       
  83 H83           -2.4624     8.7261     3.1455 H       
  84 H84            3.9852    -7.3511   -11.5722 H       
  85 H85            3.2468    -8.0477   -16.0765 H       
  86 H86            3.1013    -9.7229   -16.6602 H       
  87 H87            2.1977    -9.2013   -15.2181 H       
  88 H88            6.4504    -9.6337   -15.0374 H       
  89 H89            5.5847    -9.9754   -16.5547 H       
  90 H90            5.7302    -8.3002   -15.9709 H       
  91 H91            3.2085   -11.0731   -13.9077 H       
  92 H92            4.1121   -11.5947   -15.3498 H       
  93 H93            4.9777   -11.2530   -13.8325 H       
@<TRIPOS>BOND
   1    1    2 1
   2    1    3 2
   3    2    5 2
   4    3    4 1
   5    3   19 1
   6    4    5 1
   7    5    6 1
   8    6    7 1
   9    6   52 1
  10    6   53 1
  11    7   25 1
  12    7   54 1
  13    7   55 1
  14    8    9 1
  15    8   25 1
  16    8   56 1
  17    8   57 1
  18    9   10 1
  19    9   58 1
  20    9   59 1
  21   10   11 2
  22   10   12 1
  23   11   14 1
  24   12   13 1
  25   13   14 2
  26   13   15 1
  27   15   16 am
  28   15   60 1
  29   16   17 2
  30   16   18 1
  31   18   24 1
  32   18   44 1
  33   18   61 1
  34   19   20 am
  35   19   62 1
  36   20   21 2
  37   20   22 1
  38   22   23 1
  39   22   36 1
  40   22   63 1
  41   23   31 ar
  42   23   35 ar
  43   24   26 ar
  44   24   30 ar
  45   26   27 ar
  46   26   64 1
  47   27   28 ar
  48   27   65 1
  49   28   29 ar
  50   28   66 1
  51   29   30 ar
  52   29   67 1
  53   30   68 1
  54   31   32 ar
  55   31   69 1
  56   32   33 ar
  57   32   70 1
  58   33   34 ar
  59   33   71 1
  60   34   35 ar
  61   34   72 1
  62   35   73 1
  63   36   37 am
  64   36   74 1
  65   37   38 1
  66   37   39 2
  67   38   40 1
  68   40   41 1
  69   40   42 1
  70   40   43 1
  71   41   75 1
  72   41   76 1
  73   41   77 1
  74   42   78 1
  75   42   79 1
  76   42   80 1
  77   43   81 1
  78   43   82 1
  79   43   83 1
  80   44   45 am
  81   44   84 1
  82   45   46 1
  83   45   47 2
  84   46   48 1
  85   48   49 1
  86   48   50 1
  87   48   51 1
  88   49   85 1
  89   49   86 1
  90   49   87 1
  91   50   88 1
  92   50   89 1
  93   50   90 1
  94   51   91 1
  95   51   92 1
  96   51   93 1

#	End of record

