#	Name: ASD01870512
#	Creating user name:	WinNT
#	Creation time:	15. 06. 2019 19:39

#	Modifying user name:	WinNT
#	Modification time:	15. 06. 2019 19:39

#	Program:	/corina/corina34_cracker 3.40 0067  02.08.2006

@<TRIPOS>MOLECULE
ASD01870512
  40   43    0    0    0
SMALL
NO_CHARGES


@<TRIPOS>ATOM
   1 C1            -0.0557     1.4155     0.0665 C.ar    
   2 C2            -0.0445     0.0275     0.0766 C.ar    
   3 C3             1.1521    -0.6629     0.0771 C.ar    
   4 C4             2.3587     0.0204     0.0676 C.ar    
   5 C5             2.3642     1.4056     0.0575 C.ar    
   6 C6             1.1438     2.1119     0.0569 C.ar    
   7 C7             3.4260     2.4338     0.0461 C.2     
   8 N8             2.8466     3.6478     0.0394 N.am    
   9 C9             1.5054     3.5440     0.0460 C.2     
  10 O10            0.7225     4.4727     0.0420 O.2     
  11 O11            4.6213     2.2186     0.0432 O.2     
  12 C12            3.5486     4.8624     0.0276 C.ar    
  13 C13            2.8547     6.0650     0.0215 C.ar    
  14 C14            3.5444     7.2611     0.0103 C.ar    
  15 C15            4.9327     7.2622     0.0048 C.ar    
  16 C16            5.6285     6.0580     0.0109 C.ar    
  17 C17            4.9368     4.8613     0.0279 C.ar    
  18 N18            5.6324     8.4758    -0.0074 N.am    
  19 C19            5.1284     9.5377    -0.6668 C.2     
  20 C20            5.7956    10.8403    -0.5777 C.2     
  21 O21            4.1192     9.4154    -1.3363 O.2     
  22 C22            5.3933    11.9917    -1.1920 C.2     
  23 C23            6.3179    12.9849    -0.8330 C.2     
  24 C24            7.2325    12.4037    -0.0256 C.2     
  25 O25            6.9114    11.1127     0.1301 O.3     
  26 C26            4.1899    12.1628    -2.0827 C.3     
  27 F27            6.9795     6.0579     0.0056 F       
  28 Cl28          -1.5637     2.2755     0.0587 Cl      
  29 H29           -0.9775    -0.5164     0.0844 H       
  30 H30            1.1479    -1.7429     0.0854 H       
  31 H31            3.2907    -0.5253     0.0685 H       
  32 H32            1.7747     6.0648     0.0251 H       
  33 H33            3.0038     8.1960     0.0056 H       
  34 H34            5.4763     3.9257     0.0371 H       
  35 H35            6.4797     8.5519     0.4587 H       
  36 H36            6.3015    14.0191    -1.1436 H       
  37 H37            8.0803    12.8996     0.4236 H       
  38 H38            3.3268    12.4411    -1.4779 H       
  39 H39            4.3881    12.9456    -2.8149 H       
  40 H40            3.9842    11.2255    -2.5997 H       
@<TRIPOS>BOND
   1    1    2 ar
   2    1    6 ar
   3    1   28 1
   4    2    3 ar
   5    2   29 1
   6    3    4 ar
   7    3   30 1
   8    4    5 ar
   9    4   31 1
  10    5    7 1
  11    5    6 ar
  12    6    9 1
  13    7    8 am
  14    7   11 2
  15    8    9 am
  16    8   12 1
  17    9   10 2
  18   12   13 ar
  19   12   17 ar
  20   13   14 ar
  21   13   32 1
  22   14   15 ar
  23   14   33 1
  24   15   16 ar
  25   15   18 1
  26   16   17 ar
  27   16   27 1
  28   17   34 1
  29   18   19 am
  30   18   35 1
  31   19   20 1
  32   19   21 2
  33   20   22 2
  34   20   25 1
  35   22   23 1
  36   22   26 1
  37   23   24 2
  38   23   36 1
  39   24   25 1
  40   24   37 1
  41   26   38 1
  42   26   39 1
  43   26   40 1

#	End of record

