#	Name: ASD00060013
#	Creating user name:	WinNT
#	Creation time:	15. 06. 2019 18:29

#	Modifying user name:	WinNT
#	Modification time:	15. 06. 2019 18:29

#	Program:	/corina/corina34_cracker 3.40 0067  02.08.2006

@<TRIPOS>MOLECULE
ASD00060013
  39   41    0    0    0
SMALL
NO_CHARGES


@<TRIPOS>ATOM
   1 C1             0.0082     1.4075    -0.1989 C.ar    
   2 C2             0.0265     0.0171    -0.3489 C.ar    
   3 C3            -1.1544    -0.6670    -0.5457 C.ar    
   4 C4            -2.3557     0.0187    -0.5949 C.ar    
   5 C5            -2.3820     1.3947    -0.4477 C.ar    
   6 C6            -1.2103     2.0924    -0.2440 C.ar    
   7 C7             1.2641     2.1453     0.0115 C.2     
   8 C8             1.5043     2.8687     1.3115 C.3     
   9 C9             0.9244     4.2818     1.2236 C.3     
  10 C10            1.1646     5.0052     2.5236 C.2     
  11 C11            2.2004     2.1740    -0.9595 C.2     
  12 C12            2.3762     5.7359     2.9032 C.ar    
  13 C13            2.1383     6.2381     4.1955 C.ar    
  14 N14            0.8735     5.8354     4.5614 N.pl3   
  15 C15            0.3067     5.1072     3.5510 C.2     
  16 C16            3.5941     5.9909     2.2699 C.ar    
  17 C17            4.5500     6.7281     2.9097 C.ar    
  18 C18            4.3203     7.2256     4.1853 C.ar    
  19 C19            3.1257     6.9867     4.8281 C.ar    
  20 C20            3.3722     3.0376    -0.8199 C.2     
  21 O21            4.3672     2.9766    -1.7289 O.3     
  22 O22            3.4499     3.8108     0.1156 O.2     
  23 H23            0.9631    -0.5193    -0.3111 H       
  24 H24           -1.1420    -1.7406    -0.6621 H       
  25 H25           -3.2773    -0.5227    -0.7493 H       
  26 H26           -3.3233     1.9227    -0.4876 H       
  27 H27           -1.2325     3.1661    -0.1289 H       
  28 H28            1.0197     2.3270     2.1237 H       
  29 H29            2.5759     2.9270     1.5022 H       
  30 H30            1.4090     4.8236     0.4113 H       
  31 H31           -0.1472     4.2235     1.0328 H       
  32 H32            2.0844     1.5593    -1.8398 H       
  33 H33            0.4464     6.0405     5.4078 H       
  34 H34           -0.6815     4.6724     3.5791 H       
  35 H35            3.7801     5.6065     1.2779 H       
  36 H36            5.4919     6.9251     2.4195 H       
  37 H37            5.0858     7.8064     4.6784 H       
  38 H38            2.9565     7.3783     5.8203 H       
  39 H39            5.0985     3.5842    -1.5529 H       
@<TRIPOS>BOND
   1    1    2 ar
   2    1    7 1
   3    1    6 ar
   4    2    3 ar
   5    2   23 1
   6    3    4 ar
   7    3   24 1
   8    4    5 ar
   9    4   25 1
  10    5    6 ar
  11    5   26 1
  12    6   27 1
  13    7    8 1
  14    7   11 2
  15    8    9 1
  16    8   28 1
  17    8   29 1
  18    9   10 1
  19    9   30 1
  20    9   31 1
  21   10   12 1
  22   10   15 2
  23   11   20 1
  24   11   32 1
  25   12   13 ar
  26   12   16 ar
  27   13   14 1
  28   13   19 ar
  29   14   15 1
  30   14   33 1
  31   15   34 1
  32   16   17 ar
  33   16   35 1
  34   17   18 ar
  35   17   36 1
  36   18   19 ar
  37   18   37 1
  38   19   38 1
  39   20   21 1
  40   20   22 2
  41   21   39 1

#	End of record

