#	Name: ASD01911183
#	Creating user name:	WinNT
#	Creation time:	15. 06. 2019 19:57

#	Modifying user name:	WinNT
#	Modification time:	15. 06. 2019 19:57

#	Program:	/corina/corina34_cracker 3.40 0067  02.08.2006

@<TRIPOS>MOLECULE
ASD01911183
  40   42    0    0    0
SMALL
NO_CHARGES


@<TRIPOS>ATOM
   1 N1            -0.0070     1.4096    -0.0033 N.2     
   2 N2            -0.0071     0.0096    -0.0453 N.pl3   
   3 C3             1.2423     1.8243     0.0384 C.2     
   4 C4             2.0821     0.6976     0.0242 C.2     
   5 C5             1.2900    -0.4115    -0.0277 C.2     
   6 C6             1.7537    -1.8166    -0.0586 C.ar    
   7 C7             1.6870     3.2388     0.0906 C.ar    
   8 C8             0.7403     4.2606     0.0989 C.ar    
   9 C9             1.1702     5.5755     0.1482 C.ar    
  10 C10            2.5346     5.8252     0.1877 C.ar    
  11 C11            3.4190     4.7624     0.1767 C.ar    
  12 N12            2.9829     3.5199     0.1344 N.ar    
  13 C13           -1.1917    -0.8507    -0.0984 C.3     
  14 C14           -1.6291    -1.0154    -1.5311 C.2     
  15 O15           -2.7016    -1.7679    -1.8232 O.3     
  16 O16           -1.0144    -0.4701    -2.4169 O.2     
  17 C17           -3.0650    -1.8819    -3.2243 C.3     
  18 C18            3.0475     7.2412     0.2415 C.3     
  19 C19            0.9284    -2.8153    -0.5757 C.ar    
  20 C20            1.3664    -4.1234    -0.6018 C.ar    
  21 C21            2.6213    -4.4455    -0.1164 C.ar    
  22 C22            3.4443    -3.4597     0.3981 C.ar    
  23 C23            3.0201    -2.1469     0.4240 C.ar    
  24 H24            3.1617     0.7080     0.0497 H       
  25 H25           -0.3144     4.0302     0.0669 H       
  26 H26            0.4597     6.3888     0.1555 H       
  27 H27            4.4816     4.9533     0.2073 H       
  28 H28           -0.9509    -1.8269     0.3224 H       
  29 H29           -1.9975    -0.3955     0.4774 H       
  30 H30           -3.2840    -0.8920    -3.6246 H       
  31 H31           -2.2375    -2.3235    -3.7796 H       
  32 H32           -3.9465    -2.5159    -3.3206 H       
  33 H33            3.1470     7.5523     1.2814 H       
  34 H34            4.0198     7.2943    -0.2483 H       
  35 H35            2.3467     7.9012    -0.2698 H       
  36 H36           -0.0516    -2.5651    -0.9546 H       
  37 H37            0.7283    -4.8976    -1.0016 H       
  38 H38            2.9596    -5.4709    -0.1390 H       
  39 H39            4.4225    -3.7175     0.7762 H       
  40 H40            3.6636    -1.3782     0.8256 H       
@<TRIPOS>BOND
   1    1    2 1
   2    1    3 2
   3    2   13 1
   4    2    5 1
   5    3    4 1
   6    3    7 1
   7    4    5 2
   8    4   24 1
   9    5    6 1
  10    6   19 ar
  11    6   23 ar
  12    7    8 ar
  13    7   12 ar
  14    8    9 ar
  15    8   25 1
  16    9   10 ar
  17    9   26 1
  18   10   11 ar
  19   10   18 1
  20   11   12 ar
  21   11   27 1
  22   13   14 1
  23   13   28 1
  24   13   29 1
  25   14   15 1
  26   14   16 2
  27   15   17 1
  28   17   30 1
  29   17   31 1
  30   17   32 1
  31   18   33 1
  32   18   34 1
  33   18   35 1
  34   19   20 ar
  35   19   36 1
  36   20   21 ar
  37   20   37 1
  38   21   22 ar
  39   21   38 1
  40   22   23 ar
  41   22   39 1
  42   23   40 1

#	End of record

