#	Name: ASD01880914
#	Creating user name:	WinNT
#	Creation time:	15. 06. 2019 19:41

#	Modifying user name:	WinNT
#	Modification time:	15. 06. 2019 19:41

#	Program:	/corina/corina34_cracker 3.40 0067  02.08.2006

@<TRIPOS>MOLECULE
ASD01880914
  35   37    0    0    0
SMALL
NO_CHARGES


@<TRIPOS>ATOM
   1 N1            -0.0158     1.3137     0.0093 N.ar    
   2 C2             0.0021    -0.0041     0.0020 C.ar    
   3 N3             1.1320    -0.6824    -0.0120 N.ar    
   4 C4             2.2982    -0.0569    -0.0197 C.ar    
   5 C5             2.3199     1.3289    -0.0130 C.ar    
   6 C6             1.1113     2.0071     0.0022 C.ar    
   7 C7             3.6263     2.0802    -0.0209 C.3     
   8 O8             4.0271     2.3244    -1.3706 O.3     
   9 C9             5.1918     2.9960    -1.5555 C.ar    
  10 C10            5.6406     3.2672    -2.8449 C.ar    
  11 C11            6.8182     3.9468    -3.0316 C.ar    
  12 C12            7.5733     4.3704    -1.9326 C.ar    
  13 C13            7.1183     4.0955    -0.6386 C.ar    
  14 C14            5.9316     3.4169    -0.4577 C.ar    
  15 C15            7.5698     4.3923    -4.2613 C.3     
  16 N16            8.7729     5.0801    -3.7790 N.am    
  17 C17            8.7705     5.0649    -2.4350 C.2     
  18 O18            9.6341     5.5554    -1.7336 O.2     
  19 Cl19           8.0426     4.6130     0.7367 Cl      
  20 C20            9.4462     7.1447    -4.9040 C.3     
  21 C21            9.8064     5.6844    -4.6234 C.3     
  22 H22           -0.9341    -0.5425     0.0081 H       
  23 H23            3.2205    -0.6187    -0.0309 H       
  24 H24            1.0897     3.0869     0.0079 H       
  25 H25            3.5023     3.0302     0.4989 H       
  26 H26            4.3895     1.4872     0.4831 H       
  27 H27            5.0627     2.9428    -3.6976 H       
  28 H28            5.5800     3.2049     0.5412 H       
  29 H29            7.8486     3.5277    -4.8638 H       
  30 H30            6.9568     5.0765    -4.8479 H       
  31 H31            8.4856     7.1898    -5.4170 H       
  32 H32            9.3813     7.6902    -3.9626 H       
  33 H33           10.2151     7.5943    -5.5322 H       
  34 H34           10.7670     5.6392    -4.1103 H       
  35 H35            9.8713     5.1388    -5.5648 H       
@<TRIPOS>BOND
   1    1    2 ar
   2    1    6 ar
   3    2    3 ar
   4    2   22 1
   5    3    4 ar
   6    4    5 ar
   7    4   23 1
   8    5    6 ar
   9    5    7 1
  10    6   24 1
  11    7    8 1
  12    7   25 1
  13    7   26 1
  14    8    9 1
  15    9   10 ar
  16    9   14 ar
  17   10   11 ar
  18   10   27 1
  19   11   12 ar
  20   11   15 1
  21   12   13 ar
  22   12   17 1
  23   13   14 ar
  24   13   19 1
  25   14   28 1
  26   15   16 1
  27   15   29 1
  28   15   30 1
  29   16   17 am
  30   16   21 1
  31   17   18 2
  32   20   21 1
  33   20   31 1
  34   20   32 1
  35   20   33 1
  36   21   34 1
  37   21   35 1

#	End of record

