#	Name: ASD01120242
#	Creating user name:	WinNT
#	Creation time:	15. 06. 2019 18:59

#	Modifying user name:	WinNT
#	Modification time:	15. 06. 2019 18:59

#	Program:	/corina/corina34_cracker 3.40 0067  02.08.2006

@<TRIPOS>MOLECULE
ASD01120242
  60   61    0    0    0
SMALL
NO_CHARGES


@<TRIPOS>ATOM
   1 C1            -0.0167     1.3779     0.0096 C.ar    
   2 C2             0.0021    -0.0041     0.0020 C.ar    
   3 C3            -1.1857    -0.7116     0.0095 C.ar    
   4 C4            -2.3919    -0.0369     0.0251 C.ar    
   5 C5            -2.4106     1.3455     0.0336 C.ar    
   6 C6            -1.2232     2.0528     0.0305 C.ar    
   7 S7            -3.9483     2.2057     0.0529 S.o2    
   8 N8            -4.3616     2.4354     1.6399 N.am    
   9 C9            -3.6009     3.2212     2.4274 C.2     
  10 N10           -3.9372     3.4082     3.7191 N.am    
  11 O11           -3.6934     3.4955    -0.4862 O.2     
  12 O12           -4.9136     1.3142    -0.4882 O.2     
  13 O13           -2.6111     3.7615     1.9726 O.2     
  14 C14           -1.9702     5.1693    15.8148 C.ar    
  15 C15           -0.7708     4.8000    16.3940 C.ar    
  16 C16            0.3150     5.6541    16.3397 C.ar    
  17 C17            0.2011     6.8772    15.7061 C.ar    
  18 C18           -0.9986     7.2466    15.1267 C.ar    
  19 C19           -2.0824     6.3903    15.1761 C.ar    
  20 S20           -1.1437     8.8058    14.3189 S.o2    
  21 N21           -0.7304     8.5760    12.7319 N.am    
  22 C22           -1.4912     7.7902    11.9444 C.2     
  23 N23           -1.1548     7.6032    10.6527 N.am    
  24 O24           -2.5257     9.1363    14.3299 O.2     
  25 O25           -0.1401     9.6422    14.8779 O.2     
  26 O26           -2.4809     7.2500    12.3992 O.2     
  27 C27           -3.7082     4.3052     5.9828 C.3     
  28 C28           -3.1538     4.2383    15.8741 C.3     
  29 C29            1.2780     2.1491     0.0014 C.3     
  30 C30           -3.1103     4.2624     4.5751 C.3     
  31 C31           -1.3838     6.7062     8.3890 C.3     
  32 C32           -2.2147     5.8480     7.5289 C.1     
  33 C33           -2.8773     5.1635     6.8429 C.1     
  34 C34           -1.9817     6.7491     9.7967 C.3     
  35 H35            0.9446    -0.5313    -0.0101 H       
  36 H36           -1.1711    -1.7915     0.0029 H       
  37 H37           -3.3198    -0.5895     0.0302 H       
  38 H38           -1.2378     3.1327     0.0372 H       
  39 H39           -5.1512     2.0044     2.0027 H       
  40 H40           -4.7269     2.9772     4.0819 H       
  41 H41           -0.6820     3.8445    16.8894 H       
  42 H42            1.2520     5.3659    16.7929 H       
  43 H43            1.0491     7.5447    15.6643 H       
  44 H44           -3.0196     6.6788    14.7234 H       
  45 H45            0.0592     9.0070    12.3691 H       
  46 H46           -0.3652     8.0342    10.2899 H       
  47 H47           -4.7198     4.7085     5.9357 H       
  48 H48           -3.7379     3.2969     6.3958 H       
  49 H49           -3.7339     4.4450    16.7735 H       
  50 H50           -3.7799     4.3903    14.9949 H       
  51 H51           -2.8036     3.2063    15.8967 H       
  52 H52            1.5804     2.3405    -1.0282 H       
  53 H53            1.1397     3.0969     0.5217 H       
  54 H54            2.0505     1.5677     0.5048 H       
  55 H55           -2.0987     3.8591     4.6222 H       
  56 H56           -3.0806     5.2707     4.1621 H       
  57 H57           -0.3722     6.3029     8.4361 H       
  58 H58           -1.3541     7.7145     7.9760 H       
  59 H59           -2.0114     5.7408    10.2097 H       
  60 H60           -2.9933     7.1524     9.7496 H       
@<TRIPOS>BOND
   1    1    2 ar
   2    1   29 1
   3    1    6 ar
   4    2    3 ar
   5    2   35 1
   6    3    4 ar
   7    3   36 1
   8    4    5 ar
   9    4   37 1
  10    5    6 ar
  11    5    7 1
  12    6   38 1
  13    7    8 am
  14    7   11 2
  15    7   12 2
  16    8    9 am
  17    8   39 1
  18    9   10 am
  19    9   13 2
  20   10   30 1
  21   10   40 1
  22   14   15 ar
  23   14   28 1
  24   14   19 ar
  25   15   16 ar
  26   15   41 1
  27   16   17 ar
  28   16   42 1
  29   17   18 ar
  30   17   43 1
  31   18   19 ar
  32   18   20 1
  33   19   44 1
  34   20   21 am
  35   20   24 2
  36   20   25 2
  37   21   22 am
  38   21   45 1
  39   22   23 am
  40   22   26 2
  41   23   34 1
  42   23   46 1
  43   27   30 1
  44   27   33 1
  45   27   47 1
  46   27   48 1
  47   28   49 1
  48   28   50 1
  49   28   51 1
  50   29   52 1
  51   29   53 1
  52   29   54 1
  53   30   55 1
  54   30   56 1
  55   31   32 1
  56   31   34 1
  57   31   57 1
  58   31   58 1
  59   32   33 3
  60   34   59 1
  61   34   60 1

#	End of record

