#	Name: ASD05130093
#	Creating user name:	WinNT
#	Creation time:	15. 06. 2019 20:56

#	Modifying user name:	WinNT
#	Modification time:	15. 06. 2019 20:56

#	Program:	/corina/corina34_cracker 3.40 0067  02.08.2006

@<TRIPOS>MOLECULE
ASD05130093
  57   60    0    0    0
SMALL
NO_CHARGES


@<TRIPOS>ATOM
   1 N1            -0.1438     1.4193    -0.4402 N.am    
   2 C2             0.0604     0.0936    -0.3090 C.2     
   3 O3             1.1123    -0.3982    -0.6698 O.2     
   4 N4            -0.9014    -0.6871     0.2220 N.am    
   5 C5            -0.7306    -2.0767     0.2661 C.ar    
   6 C6            -1.8396    -2.9163     0.2171 C.ar    
   7 C7            -1.6744    -4.2894     0.2604 C.ar    
   8 C8            -0.4088    -4.8336     0.3519 C.ar    
   9 C9             0.7075    -3.9994     0.4010 C.ar    
  10 C10            0.5424    -2.6159     0.3526 C.ar    
  11 C11           -0.2338    -6.3296     0.3993 C.3     
  12 F12           -3.0804    -2.3893     0.1276 F       
  13 N13            4.1830    -5.1300    -0.5815 N.am    
  14 C14            2.9471    -4.6007    -0.6704 C.2     
  15 C15            2.0663    -4.5821     0.4996 C.2     
  16 C16            2.5065    -5.1060     1.6845 C.2     
  17 C17            3.8084    -5.6561     1.7526 C.ar    
  18 C18            4.2996    -6.2033     2.9444 C.ar    
  19 N19            5.5119    -6.7110     2.9906 N.ar    
  20 C20            6.3129    -6.7291     1.9304 C.ar    
  21 C21            5.9058    -6.2075     0.7106 C.ar    
  22 C22            4.6331    -5.6587     0.6063 C.ar    
  23 O23            2.5608    -4.1357    -1.7280 O.2     
  24 N24            7.5810    -7.2796     2.0455 N.pl3   
  25 C25            8.4757    -7.3068     0.8858 C.3     
  26 C26            5.0525    -5.1476    -1.7604 C.3     
  27 C27            5.8816    -3.8625    -1.8019 C.3     
  28 C28            0.8872     2.2434    -0.9050 C.ar    
  29 C29            1.7627     1.7800    -1.8784 C.ar    
  30 C30            2.7801     2.5956    -2.3367 C.ar    
  31 C31            2.9277     3.8733    -1.8261 C.ar    
  32 C32            2.0565     4.3382    -0.8555 C.ar    
  33 C33            1.0330     3.5273    -0.3979 C.ar    
  34 F34            2.2028     5.5860    -0.3587 F       
  35 Cl35           3.8744     2.0163    -3.5535 Cl      
  36 H36           -1.0066     1.8016    -0.2161 H       
  37 H37           -1.7119    -0.2867     0.5737 H       
  38 H38           -2.5377    -4.9371     0.2229 H       
  39 H39            1.4045    -1.9662     0.3865 H       
  40 H40           -0.1283    -6.7154    -0.6147 H       
  41 H41            0.6589    -6.5730     0.9753 H       
  42 H42           -1.1056    -6.7827     0.8715 H       
  43 H43            1.8689    -5.0994     2.5562 H       
  44 H44            3.6805    -6.2080     3.8293 H       
  45 H45            6.5668    -6.2277    -0.1432 H       
  46 H46            7.8753    -7.6465     2.8938 H       
  47 H47            8.6608    -6.2879     0.5457 H       
  48 H48            9.4200    -7.7735     1.1663 H       
  49 H49            8.0120    -7.8794     0.0825 H       
  50 H50            5.7190    -6.0085    -1.7075 H       
  51 H51            4.4421    -5.2155    -2.6610 H       
  52 H52            5.2152    -3.0016    -1.8548 H       
  53 H53            6.4920    -3.7947    -0.9013 H       
  54 H54            6.5285    -3.8756    -2.6791 H       
  55 H55            1.6487     0.7827    -2.2770 H       
  56 H56            3.7239     4.5087    -2.1850 H       
  57 H57            0.3509     3.8914     0.3562 H       
@<TRIPOS>BOND
   1    1    2 am
   2    1   28 1
   3    1   36 1
   4    2    3 2
   5    2    4 am
   6    4    5 1
   7    4   37 1
   8    5    6 ar
   9    5   10 ar
  10    6    7 ar
  11    6   12 1
  12    7    8 ar
  13    7   38 1
  14    8    9 ar
  15    8   11 1
  16    9   10 ar
  17    9   15 1
  18   10   39 1
  19   11   40 1
  20   11   41 1
  21   11   42 1
  22   13   14 am
  23   13   22 1
  24   13   26 1
  25   14   15 1
  26   14   23 2
  27   15   16 2
  28   16   17 1
  29   16   43 1
  30   17   18 ar
  31   17   22 ar
  32   18   19 ar
  33   18   44 1
  34   19   20 ar
  35   20   21 ar
  36   20   24 1
  37   21   22 ar
  38   21   45 1
  39   24   25 1
  40   24   46 1
  41   25   47 1
  42   25   48 1
  43   25   49 1
  44   26   27 1
  45   26   50 1
  46   26   51 1
  47   27   52 1
  48   27   53 1
  49   27   54 1
  50   28   29 ar
  51   28   33 ar
  52   29   30 ar
  53   29   55 1
  54   30   31 ar
  55   30   35 1
  56   31   32 ar
  57   31   56 1
  58   32   33 ar
  59   32   34 1
  60   33   57 1

#	End of record

