#	Name: ASD00191059
#	Creating user name:	WinNT
#	Creation time:	15. 06. 2019 18:33

#	Modifying user name:	WinNT
#	Modification time:	15. 06. 2019 18:33

#	Program:	/corina/corina34_cracker 3.40 0067  02.08.2006

@<TRIPOS>MOLECULE
ASD00191059
  43   46    0    0    0
SMALL
NO_CHARGES


@<TRIPOS>ATOM
   1 C1            -0.0320     1.4019     0.4034 C.ar    
   2 C2            -0.0150    -0.0127     0.4166 C.ar    
   3 N3            -1.1508    -0.6964     0.2295 N.ar    
   4 C4            -2.2995    -0.0797     0.0308 C.ar    
   5 C5            -2.3885     1.3155     0.0056 C.ar    
   6 C6            -1.2605     2.0733     0.1853 C.ar    
   7 C7             1.1600     2.1119     0.5994 C.ar    
   8 C8             2.3243     1.4324     0.8008 C.ar    
   9 C9             2.3445     0.0403     0.8139 C.ar    
  10 C10            1.2037    -0.6795     0.6271 C.ar    
  11 C11           -3.3609    -2.2254    -0.2733 C.ar    
  12 C12           -4.3733    -3.0305     0.2325 C.ar    
  13 C13           -4.2871    -4.4040     0.1131 C.ar    
  14 C14           -3.1934    -4.9785    -0.5093 C.ar    
  15 C15           -2.1818    -4.1784    -1.0148 C.ar    
  16 C16           -2.2635    -2.8039    -0.8983 C.ar    
  17 N17           -1.3221     3.4634     0.1652 N.am    
  18 C18           -2.2430     4.0862    -0.5968 C.2     
  19 C19           -2.2368     5.5890    -0.7088 C.3     
  20 O20           -3.0766     3.4372    -1.1923 O.2     
  21 N21           -3.4489    -0.8347    -0.1586 N.pl3   
  22 C22           -3.3493     6.1439    -1.6139 C.3     
  23 C23           -3.5191     7.2707    -0.5814 C.3     
  24 C24           -2.9428     6.2967     0.4598 C.3     
  25 Cl25          -0.8108    -4.9029    -1.7952 Cl      
  26 Cl26          -3.0880    -6.7051    -0.6565 Cl      
  27 H27           -3.3423     1.7945    -0.1594 H       
  28 H28            1.1563     3.1918     0.5905 H       
  29 H29            3.2425     1.9806     0.9517 H       
  30 H30            3.2791    -0.4765     0.9751 H       
  31 H31            1.2358    -1.7590     0.6397 H       
  32 H32           -5.2272    -2.5830     0.7192 H       
  33 H33           -5.0744    -5.0301     0.5064 H       
  34 H34           -1.4749    -2.1801    -1.2924 H       
  35 H35           -0.7023     3.9841     0.6996 H       
  36 H36           -1.2494     5.9926    -0.9331 H       
  37 H37           -4.3131    -0.3974    -0.2114 H       
  38 H38           -2.9912     6.4903    -2.5834 H       
  39 H39           -4.2167     5.4884    -1.6915 H       
  40 H40           -2.8825     8.1352    -0.7699 H       
  41 H41           -4.5588     7.5415    -0.3976 H       
  42 H42           -3.6991     5.6830     0.9491 H       
  43 H43           -2.2566     6.7666     1.1644 H       
@<TRIPOS>BOND
   1    1    2 ar
   2    1    7 ar
   3    1    6 ar
   4    2    3 ar
   5    2   10 ar
   6    3    4 ar
   7    4    5 ar
   8    4   21 1
   9    5    6 ar
  10    5   27 1
  11    6   17 1
  12    7    8 ar
  13    7   28 1
  14    8    9 ar
  15    8   29 1
  16    9   10 ar
  17    9   30 1
  18   10   31 1
  19   11   12 ar
  20   11   16 ar
  21   11   21 1
  22   12   13 ar
  23   12   32 1
  24   13   14 ar
  25   13   33 1
  26   14   15 ar
  27   14   26 1
  28   15   16 ar
  29   15   25 1
  30   16   34 1
  31   17   18 am
  32   17   35 1
  33   18   19 1
  34   18   20 2
  35   19   22 1
  36   19   24 1
  37   19   36 1
  38   21   37 1
  39   22   23 1
  40   22   38 1
  41   22   39 1
  42   23   24 1
  43   23   40 1
  44   23   41 1
  45   24   42 1
  46   24   43 1

#	End of record

