#	Name: ASD00440001
#	Creating user name:	WinNT
#	Creation time:	15. 06. 2019 18:35

#	Modifying user name:	WinNT
#	Modification time:	15. 06. 2019 18:35

#	Program:	/corina/corina34_cracker 3.40 0067  02.08.2006

@<TRIPOS>MOLECULE
ASD00440001
  66   70    0    0    0
SMALL
NO_CHARGES


@<TRIPOS>ATOM
   1 P1            -0.0180     1.4758     0.0102 P.3     
   2 O2             0.0021    -0.0041     0.0020 O.2     
   3 O3             1.4924     2.0330    -0.0013 O.3     
   4 O4            -0.7967     2.0091    -1.2942 O.3     
   5 O5            -0.7716     1.9950     1.3348 O.3     
   6 C6            -0.4354     1.6326    -2.6245 C.3     
   7 O7            -1.1742     3.7449    -3.6030 O.3     
   8 C8            -1.3752     2.3148    -3.6206 C.3     
   9 C9            -1.0318     1.8857    -5.0644 C.3     
  10 C10           -1.2518     3.1671    -5.8992 C.3     
  11 C11           -1.7020     4.2188    -4.8611 C.3     
  12 O12           -2.2734     2.9589    -6.8764 O.3     
  13 O13           -1.9109     0.8470    -5.5005 O.3     
  14 N14            0.2293     7.2313    -5.2200 N.2     
  15 C15            0.0379     6.0417    -4.7282 C.2     
  16 N16           -1.1395     5.5314    -5.1881 N.pl3   
  17 C17           -1.7010     6.4724    -6.0137 C.ar    
  18 N18           -2.8161     6.5442    -6.7330 N.ar    
  19 C19           -3.0861     7.6168    -7.4470 C.ar    
  20 N20           -2.2800     8.6618    -7.4888 N.ar    
  21 C21           -1.1421     8.6813    -6.8023 C.ar    
  22 C22           -0.8102     7.5592    -6.0245 C.ar    
  23 N23           -0.3034     9.7810    -6.8528 N.pl3   
  24 C24           -0.3075     1.5511     2.5135 C.2     
  25 C25           -0.9625     1.9942     3.7963 C.3     
  26 C26           -0.2462     1.3485     4.9842 C.3     
  27 C27           -0.9112     1.7984     6.2866 C.3     
  28 C28           -0.1950     1.1527     7.4744 C.3     
  29 C29            2.0370     1.3958    10.5024 C.2     
  30 N30            1.3620     2.1198    11.4056 N.am    
  31 C31           -0.0812     1.9349    11.1875 C.3     
  32 C32           -0.1564     0.9732     9.9953 C.3     
  33 N33            1.2519     0.7113     9.6595 N.am    
  34 C34           -0.7272     3.3005    10.8818 C.3     
  35 C35           -0.8600     1.6025     8.7769 C.3     
  36 S36           -0.6076     3.4038     9.0495 S.3     
  37 O37            3.2514     1.3667    10.4493 O.2     
  38 H38           -0.6532     0.0479    10.2873 H       
  39 H39           -0.5410     1.4832    12.0665 H       
  40 O40            0.6355     0.7963     2.5459 O.2     
  41 H41            1.5557     2.9980     0.0033 H       
  42 H42            0.5909     1.9412    -2.8234 H       
  43 H43           -0.5166     0.5508    -2.7307 H       
  44 H44           -2.4131     2.0746    -3.3901 H       
  45 H45            0.0066     1.5610    -5.1296 H       
  46 H46           -0.3220     3.4759    -6.3772 H       
  47 H47           -2.7900     4.2706    -4.8208 H       
  48 H48           -2.0683     2.2653    -7.5183 H       
  49 H49           -1.7400     0.5393    -6.4012 H       
  50 H50            0.7126     5.5335    -4.0552 H       
  51 H51           -4.0010     7.6428    -8.0203 H       
  52 H52           -0.5435    10.5496    -7.3937 H       
  53 H53            0.5244     9.7832    -6.3472 H       
  54 H54           -0.8998     3.0792     3.8804 H       
  55 H55           -2.0091     1.6898     3.7939 H       
  56 H56           -0.3088     0.2636     4.9001 H       
  57 H57            0.8004     1.6530     4.9866 H       
  58 H58           -0.8486     2.8833     6.3706 H       
  59 H59           -1.9578     1.4939     6.2842 H       
  60 H60           -0.2576     0.0677     7.3904 H       
  61 H61            0.8516     1.4571     7.4768 H       
  62 H62            1.7608     2.6763    12.0928 H       
  63 H63            1.5621     0.1358     8.9429 H       
  64 H64           -1.7688     3.3157    11.2025 H       
  65 H65           -0.1653     4.1076    11.3518 H       
  66 H66           -1.9220     1.3572     8.7745 H       
@<TRIPOS>BOND
   1    1    2 2
   2    1    3 1
   3    1    4 1
   4    1    5 1
   5    3   41 1
   6    4    6 1
   7    5   24 1
   8    6    8 1
   9    6   42 1
  10    6   43 1
  11    7    8 1
  12    7   11 1
  13    8    9 1
  14    8   44 1
  15    9   10 1
  16    9   13 1
  17    9   45 1
  18   10   11 1
  19   10   12 1
  20   10   46 1
  21   11   16 1
  22   11   47 1
  23   12   48 1
  24   13   49 1
  25   14   15 2
  26   14   22 1
  27   15   16 1
  28   15   50 1
  29   16   17 1
  30   17   18 ar
  31   17   22 ar
  32   18   19 ar
  33   19   20 ar
  34   19   51 1
  35   20   21 ar
  36   21   22 ar
  37   21   23 1
  38   23   52 1
  39   23   53 1
  40   24   25 1
  41   24   40 2
  42   25   26 1
  43   25   54 1
  44   25   55 1
  45   26   27 1
  46   26   56 1
  47   26   57 1
  48   27   28 1
  49   27   58 1
  50   27   59 1
  51   28   35 1
  52   28   60 1
  53   28   61 1
  54   29   30 am
  55   29   33 am
  56   29   37 2
  57   30   31 1
  58   30   62 1
  59   31   32 1
  60   31   34 1
  61   31   39 1
  62   32   33 1
  63   32   38 1
  64   32   35 1
  65   33   63 1
  66   34   36 1
  67   34   64 1
  68   34   65 1
  69   35   36 1
  70   35   66 1

#	End of record

