#	Name: ASD01912372
#	Creating user name:	WinNT
#	Creation time:	15. 06. 2019 19:59

#	Modifying user name:	WinNT
#	Modification time:	15. 06. 2019 19:59

#	Program:	/corina/corina34_cracker 3.40 0067  02.08.2006

@<TRIPOS>MOLECULE
ASD01912372
  48   50    0    0    0
SMALL
NO_CHARGES


@<TRIPOS>ATOM
   1 C1            -1.2093     3.6956    -4.9159 C.ar    
   2 C2            -1.3051     2.5447    -5.7035 C.ar    
   3 C3            -0.2277     2.1768    -6.4882 C.ar    
   4 C4             0.9128     2.9688    -6.4629 C.ar    
   5 C5             0.9409     4.0949    -5.6607 C.ar    
   6 N6            -0.0977     4.4258    -4.9215 N.ar    
   7 C7             2.1776     4.9557    -5.6319 C.3     
   8 C8            -2.3179     4.0945    -4.1019 C.1     
   9 C9            -3.2267     4.4214    -3.4346 C.1     
  10 C10           -4.3353     4.8202    -2.6206 C.2     
  11 N11           -3.6876     7.3795     0.3936 N.am    
  12 C12           -4.8974     6.5479     0.4319 C.3     
  13 C13           -5.4090     6.3545    -1.0013 C.3     
  14 C14           -4.2490     5.9163    -1.8681 C.2     
  15 C15           -2.9887     6.7534    -1.8601 C.3     
  16 C16           -2.5378     6.9368    -0.4055 C.3     
  17 C17           -3.6352     8.5385     1.0796 C.2     
  18 O18           -4.6275     8.9534     1.6507 O.2     
  19 C19           -2.4253     9.2743     1.1364 C.2     
  20 C20           -2.3087    10.6306     0.9604 C.2     
  21 C21           -1.0083    11.0801     1.0696 C.2     
  22 C22           -0.1009    10.1328     1.3237 C.2     
  23 S23           -0.8333     8.5975     1.4510 S.3     
  24 O24           -3.3640    11.4461     0.7052 O.3     
  25 C25           -3.0843    12.8384     0.5458 C.3     
  26 C26           -4.3865    13.5914     0.2666 C.3     
  27 H27           -2.2075     1.9513    -5.6990 H       
  28 H28           -0.2719     1.2927    -7.1069 H       
  29 H29            1.7708     2.7072    -7.0645 H       
  30 H30            2.1028     5.7250    -6.4004 H       
  31 H31            2.2692     5.4273    -4.6534 H       
  32 H32            3.0551     4.3374    -5.8208 H       
  33 H33           -5.2414     4.2325    -2.6166 H       
  34 H34           -4.6604     5.5780     0.8692 H       
  35 H35           -5.6627     7.0433     1.0293 H       
  36 H36           -6.1857     5.5898    -1.0136 H       
  37 H37           -5.8131     7.2946    -1.3767 H       
  38 H38           -2.2073     6.2455    -2.4253 H       
  39 H39           -3.1918     7.7267    -2.3069 H       
  40 H40           -1.7496     7.6883    -0.3593 H       
  41 H41           -2.1653     5.9893    -0.0161 H       
  42 H42           -0.7435    12.1211     0.9574 H       
  43 H43            0.9573    10.3159     1.4380 H       
  44 H44           -2.6297    13.2244     1.4581 H       
  45 H45           -2.3978    12.9778    -0.2893 H       
  46 H46           -4.1732    14.6534     0.1450 H       
  47 H47           -4.8411    13.2054    -0.6458 H       
  48 H48           -5.0731    13.4520     1.1017 H       
@<TRIPOS>BOND
   1    1    2 ar
   2    1    6 ar
   3    1    8 1
   4    2    3 ar
   5    2   27 1
   6    3    4 ar
   7    3   28 1
   8    4    5 ar
   9    4   29 1
  10    5    6 ar
  11    5    7 1
  12    7   30 1
  13    7   31 1
  14    7   32 1
  15    8    9 3
  16    9   10 1
  17   10   14 2
  18   10   33 1
  19   11   12 1
  20   11   16 1
  21   11   17 am
  22   12   13 1
  23   12   34 1
  24   12   35 1
  25   13   14 1
  26   13   36 1
  27   13   37 1
  28   14   15 1
  29   15   16 1
  30   15   38 1
  31   15   39 1
  32   16   40 1
  33   16   41 1
  34   17   18 2
  35   17   19 1
  36   19   20 2
  37   19   23 1
  38   20   21 1
  39   20   24 1
  40   21   22 2
  41   21   42 1
  42   22   23 1
  43   22   43 1
  44   24   25 1
  45   25   26 1
  46   25   44 1
  47   25   45 1
  48   26   46 1
  49   26   47 1
  50   26   48 1

#	End of record

