#	Name: ASD01918108
#	Creating user name:	WinNT
#	Creation time:	15. 06. 2019 20:10

#	Modifying user name:	WinNT
#	Modification time:	15. 06. 2019 20:10

#	Program:	/corina/corina34_cracker 3.40 0067  02.08.2006

@<TRIPOS>MOLECULE
ASD01918108
  40   43    0    0    0
SMALL
NO_CHARGES


@<TRIPOS>ATOM
   1 N1            -0.0160     1.3970    -0.0284 N.am    
   2 C2             0.0072    -0.0009    -0.0192 C.2     
   3 C3             2.4100    -0.1063    -0.6852 C.3     
   4 C4             2.1612     1.3378    -1.1353 C.3     
   5 C5             1.2980     2.0665    -0.0994 C.3     
   6 C6            -0.9802    -0.8778     0.2635 C.2     
   7 C7            -0.4515    -2.1684     0.1349 C.2     
   8 N8             0.8090    -2.0692    -0.2134 N.2     
   9 N9             1.1291    -0.7167    -0.3203 N.pl3   
  10 C10           -1.2041    -3.4545     0.3596 C.3     
  11 O11           -2.5529    -3.1589     0.7277 O.3     
  12 C12           -1.1697     2.0921     0.0191 C.2     
  13 O13           -2.2348     1.5073    -0.0364 O.2     
  14 C14           -3.3726    -4.2160     0.9679 C.ar    
  15 C15           -4.6947    -4.0018     1.3297 C.ar    
  16 C16           -5.5259    -5.0780     1.5734 C.ar    
  17 C17           -5.0412    -6.3677     1.4569 C.ar    
  18 C18           -3.7239    -6.5837     1.0969 C.ar    
  19 C19           -2.8903    -5.5110     0.8461 C.ar    
  20 C20           -1.1407     3.5590     0.1380 C.2     
  21 N21           -0.0715     4.2843     0.3268 N.2     
  22 S22           -2.5415     4.6217     0.0412 S.3     
  23 C23           -1.5352     5.9848     0.2771 C.2     
  24 C24           -0.2633     5.5750     0.4042 C.2     
  25 H25            2.8642    -0.6696    -1.5004 H       
  26 H26            3.0749    -0.1101     0.1785 H       
  27 H27            3.1155     1.8540    -1.2393 H       
  28 H28            1.6466     1.3339    -2.0962 H       
  29 H29            1.1637     3.1054    -0.4006 H       
  30 H30            1.7832     2.0250     0.8758 H       
  31 H31           -1.9943    -0.6288     0.5391 H       
  32 H32           -1.1986    -4.0437    -0.5574 H       
  33 H33           -0.7253    -4.0209     1.1583 H       
  34 H34           -5.0737    -2.9946     1.4212 H       
  35 H35           -6.5551    -4.9118     1.8554 H       
  36 H36           -5.6926    -7.2077     1.6478 H       
  37 H37           -3.3475    -7.5920     1.0072 H       
  38 H38           -1.8614    -5.6803     0.5649 H       
  39 H39           -1.8692     7.0112     0.3145 H       
  40 H40            0.5504     6.2680     0.5590 H       
@<TRIPOS>BOND
   1    1    2 1
   2    1    5 1
   3    1   12 am
   4    2    6 2
   5    2    9 1
   6    3    4 1
   7    3    9 1
   8    3   25 1
   9    3   26 1
  10    4    5 1
  11    4   27 1
  12    4   28 1
  13    5   29 1
  14    5   30 1
  15    6    7 1
  16    6   31 1
  17    7    8 2
  18    7   10 1
  19    8    9 1
  20   10   11 1
  21   10   32 1
  22   10   33 1
  23   11   14 1
  24   12   13 2
  25   12   20 1
  26   14   15 ar
  27   14   19 ar
  28   15   16 ar
  29   15   34 1
  30   16   17 ar
  31   16   35 1
  32   17   18 ar
  33   17   36 1
  34   18   19 ar
  35   18   37 1
  36   19   38 1
  37   20   22 1
  38   20   21 2
  39   21   24 1
  40   22   23 1
  41   23   24 2
  42   23   39 1
  43   24   40 1

#	End of record

