#	Name: ASD03240949
#	Creating user name:	WinNT
#	Creation time:	15. 06. 2019 20:35

#	Modifying user name:	WinNT
#	Modification time:	15. 06. 2019 20:35

#	Program:	/corina/corina34_cracker 3.40 0067  02.08.2006

@<TRIPOS>MOLECULE
ASD03240949
  78   84    0    0    0
SMALL
NO_CHARGES


@<TRIPOS>ATOM
   1 N1            -0.0175     1.5274     0.0446 N.3     
   2 C2            -0.0168     0.0590     0.0313 C.3     
   3 C3             0.6872    -0.4634     1.2856 C.3     
   4 C4             2.1236     0.0660     1.3167 C.3     
   5 C5             2.0960     1.5965     1.2809 C.3     
   6 C6             1.3511     2.0593     0.0267 C.3     
   7 C7             2.8035    -0.3961     2.5797 C.2     
   8 O8             2.1996    -1.0816     3.3776 O.2     
   9 N9             4.0825    -0.0476     2.8228 N.am    
  10 C10            4.6772    -0.3757     4.0484 C.ar    
  11 C11            6.0342    -0.6869     4.1053 C.ar    
  12 C12            6.6167    -1.0105     5.3196 C.ar    
  13 C13            5.8519    -1.0246     6.4717 C.ar    
  14 C14            4.5056    -0.7163     6.4159 C.ar    
  15 C15            3.9181    -0.3859     5.2089 C.ar    
  16 O16            6.7846    -0.6735     2.9715 O.3     
  17 C17            8.1686    -1.0031     3.1056 C.3     
  18 C18           -0.8053     2.0636    -1.0734 C.3     
  19 C19           -0.9894     3.5483    -0.8917 C.ar    
  20 C20           -0.0634     4.4275    -1.4242 C.ar    
  21 C21           -0.2266     5.7879    -1.2616 C.ar    
  22 C22           -1.3281     6.2762    -0.5586 C.ar    
  23 C23           -2.2582     5.3846    -0.0241 C.ar    
  24 C24           -2.0867     4.0266    -0.1980 C.ar    
  25 N25            0.5583    10.6161     0.1034 N.pl3   
  26 C26            0.4131    11.9667     0.2707 C.2     
  27 N27           -0.7948    12.5577     0.2826 N.2     
  28 C28           -1.9018    11.8766     0.1350 C.2     
  29 C29           -1.8256    10.4288    -0.0485 C.ar    
  30 C30           -2.9740     9.6464    -0.2105 C.ar    
  31 C31           -2.8097     8.2756    -0.3796 C.ar    
  32 C32           -1.5090     7.7351    -0.3801 C.ar    
  33 N33           -0.4447     8.5078    -0.2233 N.ar    
  34 C34           -0.5552     9.8148    -0.0605 C.ar    
  35 C35            1.6907    12.4924     0.4077 C.2     
  36 C36            2.5928    11.4395     0.3198 C.2     
  37 N37            1.9268    10.3233     0.1449 N.2     
  38 C38           -3.9889     7.3943    -0.5555 C.ar    
  39 C39           -5.0613     7.4751     0.3314 C.ar    
  40 C40           -6.1565     6.6526     0.1624 C.ar    
  41 C41           -6.1914     5.7492    -0.8847 C.ar    
  42 C42           -5.1299     5.6643    -1.7676 C.ar    
  43 C43           -4.0320     6.4858    -1.6119 C.ar    
  44 C44            4.0919    11.5596     0.4158 C.3     
  45 H45           -1.0443    -0.3045     0.0134 H       
  46 H46            0.5093    -0.2959    -0.8550 H       
  47 H47            0.1537    -0.1203     2.1720 H       
  48 H48            0.7014    -1.5532     1.2677 H       
  49 H49            2.6688    -0.3088     0.4504 H       
  50 H50            1.5846     1.9720     2.1673 H       
  51 H51            3.1166     1.9785     1.2597 H       
  52 H52            1.8708     1.6950    -0.8595 H       
  53 H53            1.3172     3.1486     0.0056 H       
  54 H54            4.5914     0.4303     2.1493 H       
  55 H55            7.6682    -1.2522     5.3666 H       
  56 H56            6.3078    -1.2775     7.4176 H       
  57 H57            3.9122    -0.7290     7.3182 H       
  58 H58            2.8671    -0.1404     5.1691 H       
  59 H59            8.6470    -0.2946     3.7818 H       
  60 H60            8.2646    -2.0114     3.5084 H       
  61 H61            8.6499    -0.9548     2.1288 H       
  62 H62           -0.2817     1.8745    -2.0105 H       
  63 H63           -1.7803     1.5769    -1.0973 H       
  64 H64            0.7892     4.0483    -1.9680 H       
  65 H65            0.4971     6.4733    -1.6774 H       
  66 H66           -3.1128     5.7566     0.5215 H       
  67 H67           -2.8083     3.3354     0.2118 H       
  68 H68           -2.8587    12.3771     0.1490 H       
  69 H69           -3.9574    10.0929    -0.2049 H       
  70 H70            1.9388    13.5330     0.5557 H       
  71 H71           -5.0350     8.1798     1.1494 H       
  72 H72           -6.9878     6.7140     0.8491 H       
  73 H73           -7.0505     5.1075    -1.0131 H       
  74 H74           -5.1623     4.9567    -2.5829 H       
  75 H75           -3.2058     6.4218    -2.3045 H       
  76 H76            4.3988    11.4569     1.4566 H       
  77 H77            4.5581    10.7747    -0.1796 H       
  78 H78            4.4031    12.5342     0.0397 H       
@<TRIPOS>BOND
   1    1    2 1
   2    1    6 1
   3    1   18 1
   4    2    3 1
   5    2   45 1
   6    2   46 1
   7    3    4 1
   8    3   47 1
   9    3   48 1
  10    4    5 1
  11    4    7 1
  12    4   49 1
  13    5    6 1
  14    5   50 1
  15    5   51 1
  16    6   52 1
  17    6   53 1
  18    7    8 2
  19    7    9 am
  20    9   10 1
  21    9   54 1
  22   10   11 ar
  23   10   15 ar
  24   11   12 ar
  25   11   16 1
  26   12   13 ar
  27   12   55 1
  28   13   14 ar
  29   13   56 1
  30   14   15 ar
  31   14   57 1
  32   15   58 1
  33   16   17 1
  34   17   59 1
  35   17   60 1
  36   17   61 1
  37   18   19 1
  38   18   62 1
  39   18   63 1
  40   19   20 ar
  41   19   24 ar
  42   20   21 ar
  43   20   64 1
  44   21   22 ar
  45   21   65 1
  46   22   23 ar
  47   22   32 1
  48   23   24 ar
  49   23   66 1
  50   24   67 1
  51   25   26 1
  52   25   34 1
  53   25   37 1
  54   26   27 1
  55   26   35 2
  56   27   28 2
  57   28   29 1
  58   28   68 1
  59   29   30 ar
  60   29   34 ar
  61   30   31 ar
  62   30   69 1
  63   31   32 ar
  64   31   38 1
  65   32   33 ar
  66   33   34 ar
  67   35   36 1
  68   35   70 1
  69   36   37 2
  70   36   44 1
  71   38   39 ar
  72   38   43 ar
  73   39   40 ar
  74   39   71 1
  75   40   41 ar
  76   40   72 1
  77   41   42 ar
  78   41   73 1
  79   42   43 ar
  80   42   74 1
  81   43   75 1
  82   44   76 1
  83   44   77 1
  84   44   78 1

#	End of record

