#	Name: ASD03240230
#	Creating user name:	WinNT
#	Creation time:	15. 06. 2019 20:34

#	Modifying user name:	WinNT
#	Modification time:	15. 06. 2019 20:34

#	Program:	/corina/corina34_cracker 3.40 0067  02.08.2006

@<TRIPOS>MOLECULE
ASD03240230
  40   43    0    0    0
SMALL
NO_CHARGES


@<TRIPOS>ATOM
   1 C1            -0.5277     1.9394    -0.6202 C.ar    
   2 C2            -0.6922     0.5687    -0.5763 C.ar    
   3 C3             0.4230    -0.2519    -0.4834 C.ar    
   4 N4             1.6410     0.2497    -0.4359 N.ar    
   5 C5             1.8552     1.5552    -0.4746 C.ar    
   6 C6             0.7743     2.4511    -0.5685 C.ar    
   7 N7             2.9949     2.3344    -0.4414 N.pl3   
   8 C8             2.5949     3.6451    -0.5135 C.2     
   9 N9             1.2869     3.7049    -0.5883 N.2     
  10 C10            3.5000     4.8115    -0.5073 C.ar    
  11 C11            4.3143     1.8725    -0.3508 C.ar    
  12 C12            4.8724     1.1515    -1.3981 C.ar    
  13 C13            6.1735     0.6975    -1.3058 C.ar    
  14 C14            6.9201     0.9598    -0.1718 C.ar    
  15 C15            6.3672     1.6776     0.8728 C.ar    
  16 C16            5.0686     2.1396     0.7839 C.ar    
  17 N17            4.0675     6.9466     0.3429 N.ar    
  18 C18            3.2532     5.9033     0.3409 C.ar    
  19 C19            4.6215     4.8464    -1.3414 C.ar    
  20 C20            5.4394     5.9628    -1.2979 C.ar    
  21 C21            5.1281     7.0015    -0.4398 C.ar    
  22 C22            8.3392     0.4621    -0.0740 C.3     
  23 N23            2.1507     5.8883     1.1801 N.pl3   
  24 N24            9.2528     1.4784    -0.6128 N.3     
  25 Cl25           0.2096    -1.9739    -0.4281 Cl      
  26 H26           -1.3800     2.5982    -0.6968 H       
  27 H27           -1.6821     0.1385    -0.6137 H       
  28 H28            4.2895     0.9457    -2.2837 H       
  29 H29            6.6081     0.1366    -2.1200 H       
  30 H30            6.9528     1.8809     1.7571 H       
  31 H31            4.6387     2.7040     1.5982 H       
  32 H32            4.8446     4.0227    -2.0033 H       
  33 H33            6.3138     6.0217    -1.9289 H       
  34 H34            5.7668     7.8717    -0.4071 H       
  35 H35            8.5854     0.2691     0.9701 H       
  36 H36            8.4415    -0.4591    -0.6477 H       
  37 H37            1.9260     6.6759     1.6998 H       
  38 H38            1.6035     5.0902     1.2478 H       
  39 H39            9.1311     2.3613    -0.1397 H       
  40 H40           10.2114     1.1682    -0.5584 H       
@<TRIPOS>BOND
   1    1    2 ar
   2    1    6 ar
   3    1   26 1
   4    2    3 ar
   5    2   27 1
   6    3    4 ar
   7    3   25 1
   8    4    5 ar
   9    5    7 1
  10    5    6 ar
  11    6    9 1
  12    7    8 1
  13    7   11 1
  14    8    9 2
  15    8   10 1
  16   10   19 ar
  17   10   18 ar
  18   11   12 ar
  19   11   16 ar
  20   12   13 ar
  21   12   28 1
  22   13   14 ar
  23   13   29 1
  24   14   15 ar
  25   14   22 1
  26   15   16 ar
  27   15   30 1
  28   16   31 1
  29   17   18 ar
  30   17   21 ar
  31   18   23 1
  32   19   20 ar
  33   19   32 1
  34   20   21 ar
  35   20   33 1
  36   21   34 1
  37   22   24 1
  38   22   35 1
  39   22   36 1
  40   23   37 1
  41   23   38 1
  42   24   39 1
  43   24   40 1

#	End of record

