#	Name: ASD00960281
#	Creating user name:	WinNT
#	Creation time:	15. 06. 2019 18:53

#	Modifying user name:	WinNT
#	Modification time:	15. 06. 2019 18:53

#	Program:	/corina/corina34_cracker 3.40 0067  02.08.2006

@<TRIPOS>MOLECULE
ASD00960281
  34   36    0    0    0
SMALL
NO_CHARGES


@<TRIPOS>ATOM
   1 C1            -0.0167     1.3829     0.0096 C.2     
   2 C2             0.0021    -0.0041     0.0020 C.2     
   3 N3             1.2803     1.8107    -0.0004 N.pl3   
   4 C4             2.0977     0.7204     0.0003 C.2     
   5 C5             1.3466    -0.3960    -0.0055 C.2     
   6 N6             1.7987     3.1143     0.0034 N.2     
   7 C7             3.0662     3.2761    -0.2331 C.2     
   8 N8             3.8932     2.2133    -0.5248 N.pl3   
   9 C9             3.6021     0.8741     0.0184 C.3     
  10 N10            4.1029     0.7698     1.3955 N.3     
  11 Cl11           1.9377    -2.0282    -0.0201 Cl      
  12 C12           -1.2081     2.2322     0.0202 C.2     
  13 O13           -2.3149     1.7274     0.0233 O.2     
  14 O14           -1.0792     3.5751     0.0263 O.3     
  15 C15           -2.2846     4.3425     0.0365 C.3     
  16 C16           -1.9452     5.8108     0.0422 C.ar    
  17 C17           -1.7958     6.4903    -1.1523 C.ar    
  18 C18           -1.4845     7.8371    -1.1471 C.ar    
  19 C19           -1.3230     8.5046     0.0526 C.ar    
  20 C20           -1.4734     7.8253     1.2471 C.ar    
  21 C21           -1.7889     6.4794     1.2419 C.ar    
  22 H22           -0.8575    -0.6580     0.0022 H       
  23 H23            3.4832     4.2719    -0.2004 H       
  24 H24            4.6700     2.3468    -1.0901 H       
  25 H25            4.0628     0.1092    -0.6067 H       
  26 H26            5.1004     0.9175     1.4297 H       
  27 H27            3.6209     1.4133     2.0052 H       
  28 H28           -2.8717     4.1087    -0.8517 H       
  29 H29           -2.8624     4.0997     0.9283 H       
  30 H30           -1.9220     5.9689    -2.0897 H       
  31 H31           -1.3671     8.3678    -2.0803 H       
  32 H32           -1.0791     9.5566     0.0567 H       
  33 H33           -1.3469     8.3466     2.1845 H       
  34 H34           -1.9100     5.9495     2.1752 H       
@<TRIPOS>BOND
   1    1    2 2
   2    1    3 1
   3    1   12 1
   4    2    5 1
   5    2   22 1
   6    3    4 1
   7    3    6 1
   8    4    5 2
   9    4    9 1
  10    5   11 1
  11    6    7 2
  12    7    8 1
  13    7   23 1
  14    8    9 1
  15    8   24 1
  16    9   10 1
  17    9   25 1
  18   10   26 1
  19   10   27 1
  20   12   13 2
  21   12   14 1
  22   14   15 1
  23   15   16 1
  24   15   28 1
  25   15   29 1
  26   16   17 ar
  27   16   21 ar
  28   17   18 ar
  29   17   30 1
  30   18   19 ar
  31   18   31 1
  32   19   20 ar
  33   19   32 1
  34   20   21 ar
  35   20   33 1
  36   21   34 1

#	End of record

