#	Name: ASD00170394
#	Creating user name:	WinNT
#	Creation time:	15. 06. 2019 18:32

#	Modifying user name:	WinNT
#	Modification time:	15. 06. 2019 18:32

#	Program:	/corina/corina34_cracker 3.40 0067  02.08.2006

@<TRIPOS>MOLECULE
ASD00170394
  22   24    0    0    0
SMALL
NO_CHARGES


@<TRIPOS>ATOM
   1 C1            -0.0164     1.3601     0.0095 C.2     
   2 C2             0.0021    -0.0041     0.0020 C.2     
   3 S3            -1.6481    -0.5913    -0.0120 S.3     
   4 C4            -2.2418     1.0674     0.0081 C.2     
   5 N5            -1.2365     1.8876     0.0186 N.2     
   6 N6            -3.5766     1.4387     0.0122 N.pl3   
   7 C7             1.2965     2.0726     0.0008 C.ar    
   8 C8             2.4365     1.3046    -0.2712 C.ar    
   9 O9             2.3292    -0.0149    -0.5651 O.3     
  10 C10            1.2851    -0.7951     0.0212 C.3     
  11 C11            1.3944     3.4296     0.2531 C.ar    
  12 C12            2.6406     4.0311     0.2545 C.ar    
  13 C13            3.7732     3.2756     0.0075 C.ar    
  14 C14            3.6779     1.9215    -0.2537 C.ar    
  15 H15           -4.2690     0.7595     0.0039 H       
  16 H16           -3.8187     2.3780     0.0233 H       
  17 H17            1.5472    -1.0387     1.0508 H       
  18 H18            1.1541    -1.7149    -0.5489 H       
  19 H19            0.5068     4.0136     0.4466 H       
  20 H20            2.7292     5.0900     0.4480 H       
  21 H21            4.7435     3.7496     0.0188 H       
  22 H22            4.5706     1.3440    -0.4434 H       
@<TRIPOS>BOND
   1    1    2 2
   2    1    7 1
   3    1    5 1
   4    2    3 1
   5    2   10 1
   6    3    4 1
   7    4    5 2
   8    4    6 1
   9    6   15 1
  10    6   16 1
  11    7    8 ar
  12    7   11 ar
  13    8    9 1
  14    8   14 ar
  15    9   10 1
  16   10   17 1
  17   10   18 1
  18   11   12 ar
  19   11   19 1
  20   12   13 ar
  21   12   20 1
  22   13   14 ar
  23   13   21 1
  24   14   22 1

#	End of record

