#	Name: ASD01811851
#	Creating user name:	WinNT
#	Creation time:	15. 06. 2019 19:27

#	Modifying user name:	WinNT
#	Modification time:	15. 06. 2019 19:27

#	Program:	/corina/corina34_cracker 3.40 0067  02.08.2006

@<TRIPOS>MOLECULE
ASD01811851
  55   58    0    0    0
SMALL
NO_CHARGES


@<TRIPOS>ATOM
   1 N1            -0.0158     1.3107     0.0092 N.ar    
   2 C2             0.0021    -0.0041     0.0020 C.ar    
   3 C3             1.2008    -0.6996    -0.0132 C.ar    
   4 C4             2.3946     0.0043    -0.0208 C.ar    
   5 C5             2.3453     1.3897    -0.0129 C.ar    
   6 C6             1.1048     2.0225     0.0024 C.ar    
   7 C7             1.2061    -2.2066    -0.0208 C.3     
   8 C8             1.0350     3.5025     0.0105 C.2     
   9 N9            -0.1625     4.1206     0.0248 N.am    
  10 O10            2.0576     4.1589     0.0043 O.2     
  11 C11           -0.2315     5.5840     0.0328 C.3     
  12 C12            3.7161    -0.7198    -0.0368 C.3     
  13 C13            4.0839    -1.0626    -1.4575 C.ar    
  14 C14            3.6748    -2.2645    -2.0052 C.ar    
  15 C15            4.8249    -0.1721    -2.2124 C.ar    
  16 C16            5.1631    -0.4833    -3.5149 C.ar    
  17 C17            4.7583    -1.6916    -4.0660 C.ar    
  18 C18            4.0103    -2.5815    -3.3070 C.ar    
  19 C19           -1.6276     7.5570     0.6655 C.3     
  20 C20           -1.5556     6.0287     0.6571 C.3     
  21 C21           -0.1433     6.1066    -1.4024 C.3     
  22 C22           -0.2153     7.6349    -1.3941 C.3     
  23 C23           -1.5395     8.0796    -0.7698 C.3     
  24 O24           -1.6380     5.5406     1.9976 O.3     
  25 N25            5.1001    -2.0103    -5.3877 N.pl3   
  26 C26            4.7715    -3.1467    -6.0427 C.2     
  27 C27            5.2881    -3.0666    -7.2908 C.2     
  28 C28            5.9545    -1.8415    -7.4034 C.2     
  29 N29            5.8373    -1.2053    -6.2656 N.2     
  30 H30           -0.9301    -0.5494     0.0084 H       
  31 H31            3.2561     1.9701    -0.0181 H       
  32 H32            1.1974    -2.5647    -1.0503 H       
  33 H33            2.1023    -2.5693     0.4825 H       
  34 H34            0.3225    -2.5757     0.4998 H       
  35 H35           -0.9788     3.5966     0.0298 H       
  36 H36            0.5978     5.9836     0.6166 H       
  37 H37            4.4863    -0.0797     0.3936 H       
  38 H38            3.6358    -1.6356     0.5488 H       
  39 H39            3.0926    -2.9562    -1.4145 H       
  40 H40            5.1392     0.7678    -1.7833 H       
  41 H41            5.7416     0.2128    -4.1042 H       
  42 H42            3.6911    -3.5208    -3.7341 H       
  43 H43           -2.5710     7.8739     1.1102 H       
  44 H44           -0.7984     7.9566     1.2492 H       
  45 H45           -2.3849     5.6291     0.0734 H       
  46 H46            0.8000     5.7897    -1.8472 H       
  47 H47           -0.9726     5.7070    -1.9862 H       
  48 H48            0.6139     8.0345    -0.8103 H       
  49 H49           -0.1525     8.0072    -2.4166 H       
  50 H50           -2.3687     7.6800    -1.3535 H       
  51 H51           -1.5908     9.1684    -0.7638 H       
  52 H52           -2.4536     5.7853     2.4559 H       
  53 H53            4.1994    -3.9704    -5.6418 H       
  54 H54            5.2019    -3.8162    -8.0635 H       
  55 H55            6.4726    -1.4809    -8.2797 H       
@<TRIPOS>BOND
   1    1    2 ar
   2    1    6 ar
   3    2    3 ar
   4    2   30 1
   5    3    4 ar
   6    3    7 1
   7    4    5 ar
   8    4   12 1
   9    5    6 ar
  10    5   31 1
  11    6    8 1
  12    7   32 1
  13    7   33 1
  14    7   34 1
  15    8    9 am
  16    8   10 2
  17    9   11 1
  18    9   35 1
  19   11   21 1
  20   11   20 1
  21   11   36 1
  22   12   13 1
  23   12   37 1
  24   12   38 1
  25   13   15 ar
  26   13   14 ar
  27   14   18 ar
  28   14   39 1
  29   15   16 ar
  30   15   40 1
  31   16   17 ar
  32   16   41 1
  33   17   18 ar
  34   17   25 1
  35   18   42 1
  36   19   20 1
  37   19   23 1
  38   19   43 1
  39   19   44 1
  40   20   24 1
  41   20   45 1
  42   21   22 1
  43   21   46 1
  44   21   47 1
  45   22   23 1
  46   22   48 1
  47   22   49 1
  48   23   50 1
  49   23   51 1
  50   24   52 1
  51   25   26 1
  52   25   29 1
  53   26   27 2
  54   26   53 1
  55   27   28 1
  56   27   54 1
  57   28   29 2
  58   28   55 1

#	End of record

