#	Name: ASD01202017
#	Creating user name:	WinNT
#	Creation time:	15. 06. 2019 19:09

#	Modifying user name:	WinNT
#	Modification time:	15. 06. 2019 19:09

#	Program:	/corina/corina34_cracker 3.40 0067  02.08.2006

@<TRIPOS>MOLECULE
ASD01202017
  39   41    0    0    0
SMALL
NO_CHARGES


@<TRIPOS>ATOM
   1 C1            -0.0179     1.4661     0.0101 C.2     
   2 C2             0.0021    -0.0041     0.0020 C.2     
   3 C3             1.2670     1.8524    -0.0001 C.2     
   4 C4             1.3210    -0.3533    -0.0125 C.2     
   5 C5            -1.1594    -0.9106     0.0090 C.2     
   6 O6             2.0533     0.7648    -0.0134 O.3     
   7 C7             1.8602    -1.7605    -0.0256 C.3     
   8 O8            -0.9907    -2.1151     0.0012 O.2     
   9 N9            -2.4087    -0.4052     0.0239 N.am    
  10 C10           -3.5037    -1.2599     0.0304 C.2     
  11 N11           -4.7361    -0.8809     0.0445 N.2     
  12 S12           -3.4132    -2.9648     0.0136 S.3     
  13 C13           -5.6770    -1.8310     0.0434 C.2     
  14 C14           -5.1759    -3.0701     0.0280 C.2     
  15 H15           -2.5432     0.5554     0.0300 H       
  16 C16           -7.2021    -1.8928     0.0540 C.3     
  17 C17           -7.5421    -3.3326     0.4890 C.3     
  18 C18           -6.2870    -4.1036     0.0293 C.3     
  19 C19            1.7502     3.2798     0.0030 C.3     
  20 N20            1.9200     3.7350     1.3851 N.am    
  21 C21            2.3472     4.9888     1.6340 C.2     
  22 C22            2.5218     5.4570     3.0558 C.3     
  23 O23            2.5911     5.7402     0.7138 O.2     
  24 H24           -0.8889     2.1046     0.0179 H       
  25 H25            1.9805    -2.0938    -1.0564 H       
  26 H26            2.8261    -1.7841     0.4790 H       
  27 H27            1.1641    -2.4212     0.4911 H       
  28 H28           -7.6051    -1.1761     0.7696 H       
  29 H29           -7.5959    -1.6957    -0.9431 H       
  30 H30           -7.6641    -3.3950     1.5704 H       
  31 H31           -8.4326    -3.6953    -0.0242 H       
  32 H32           -6.4340    -4.5041    -0.9738 H       
  33 H33           -6.0574    -4.9068     0.7295 H       
  34 H34            2.7047     3.3414    -0.5197 H       
  35 H35            1.0188     3.9121    -0.5005 H       
  36 H36            1.7249     3.1340     2.1210 H       
  37 H37            2.2565     4.6503     3.7391 H       
  38 H38            3.5605     5.7443     3.2187 H       
  39 H39            1.8746     6.3149     3.2378 H       
@<TRIPOS>BOND
   1    1    2 1
   2    1    3 2
   3    1   24 1
   4    2    4 2
   5    2    5 1
   6    3    6 1
   7    3   19 1
   8    4    7 1
   9    4    6 1
  10    5    8 2
  11    5    9 am
  12    7   25 1
  13    7   26 1
  14    7   27 1
  15    9   15 1
  16    9   10 1
  17   10   11 2
  18   10   12 1
  19   11   13 1
  20   12   14 1
  21   13   16 1
  22   13   14 2
  23   14   18 1
  24   16   17 1
  25   16   28 1
  26   16   29 1
  27   17   18 1
  28   17   30 1
  29   17   31 1
  30   18   32 1
  31   18   33 1
  32   19   20 1
  33   19   34 1
  34   19   35 1
  35   20   21 am
  36   20   36 1
  37   21   22 1
  38   21   23 2
  39   22   37 1
  40   22   38 1
  41   22   39 1

#	End of record

