#	Name: ASD01916411
#	Creating user name:	WinNT
#	Creation time:	15. 06. 2019 20:07

#	Modifying user name:	WinNT
#	Modification time:	15. 06. 2019 20:07

#	Program:	/corina/corina34_cracker 3.40 0067  02.08.2006

@<TRIPOS>MOLECULE
ASD01916411
  35   37    0    0    0
SMALL
NO_CHARGES


@<TRIPOS>ATOM
   1 N1            -0.0169     1.3954     0.0097 N.2     
   2 N2             0.0021    -0.0041     0.0020 N.pl3   
   3 C3             1.2674    -0.4440    -0.0124 C.2     
   4 C4             2.1007     0.6585    -0.0145 C.ar    
   5 C5             3.5008     0.8487    -0.0268 C.ar    
   6 C6             4.0047     2.1110    -0.0248 C.ar    
   7 C7             3.1733     3.2327    -0.0104 C.ar    
   8 C8             1.8214     3.1214     0.0024 C.ar    
   9 C9             1.2261     1.8412     0.0002 C.ar    
  10 C10           -1.1861    -0.8611     0.0092 C.3     
  11 C11           -2.0722    -0.4944     1.2013 C.3     
  12 C12           -3.2660    -1.3555     1.2085 C.1     
  13 C13           -4.2182    -2.0423     1.2143 C.1     
  14 C14           -5.3795    -2.8801     1.2213 C.ar    
  15 C15           -6.3379    -2.7265     2.2238 C.ar    
  16 C16           -7.4544    -3.5436     2.2167 C.ar    
  17 C17           -7.5779    -4.4887     1.2076 C.ar    
  18 C18           -6.5901    -4.5871     0.2450 C.ar    
  19 N19           -5.5388    -3.7935     0.2705 N.ar    
  20 C20           -6.7207    -5.6124    -0.8517 C.3     
  21 F21           -7.4007    -5.0499    -1.9372 F       
  22 F22            4.3323    -0.2161    -0.0400 F       
  23 H23            1.5808    -1.4775    -0.0206 H       
  24 H24            5.0756     2.2501    -0.0343 H       
  25 H25            3.6190     4.2164    -0.0090 H       
  26 H26            1.2038     4.0073     0.0134 H       
  27 H27           -1.7438    -0.7168    -0.9161 H       
  28 H28           -0.8810    -1.9044     0.0906 H       
  29 H29           -1.5145    -0.6387     2.1266 H       
  30 H30           -2.3773     0.5489     1.1199 H       
  31 H31           -6.2098    -1.9808     2.9944 H       
  32 H32           -8.2128    -3.4484     2.9797 H       
  33 H33           -8.4375    -5.1416     1.1747 H       
  34 H34           -5.7286    -5.9318    -1.1704 H       
  35 H35           -7.2776    -6.4726    -0.4803 H       
@<TRIPOS>BOND
   1    1    2 1
   2    1    9 2
   3    2    3 1
   4    2   10 1
   5    3    4 2
   6    3   23 1
   7    4    5 ar
   8    4    9 ar
   9    5    6 ar
  10    5   22 1
  11    6    7 ar
  12    6   24 1
  13    7    8 ar
  14    7   25 1
  15    8    9 ar
  16    8   26 1
  17   10   11 1
  18   10   27 1
  19   10   28 1
  20   11   12 1
  21   11   29 1
  22   11   30 1
  23   12   13 3
  24   13   14 1
  25   14   15 ar
  26   14   19 ar
  27   15   16 ar
  28   15   31 1
  29   16   17 ar
  30   16   32 1
  31   17   18 ar
  32   17   33 1
  33   18   19 ar
  34   18   20 1
  35   20   21 1
  36   20   34 1
  37   20   35 1

#	End of record

