#	Name: ASD03091735
#	Creating user name:	WinNT
#	Creation time:	15. 06. 2019 20:31

#	Modifying user name:	WinNT
#	Modification time:	15. 06. 2019 20:31

#	Program:	/corina/corina34_cracker 3.40 0067  02.08.2006

@<TRIPOS>MOLECULE
ASD03091735
  32   34    0    0    0
SMALL
NO_CHARGES


@<TRIPOS>ATOM
   1 C1            -0.0188     1.5354     0.0105 C.3     
   2 C2             0.0021    -0.0041     0.0020 C.3     
   3 N3             0.0279    -0.4602     1.4021 N.3     
   4 C4             0.0781     0.7235     2.2834 C.3     
   5 C5            -0.5170     1.8802     1.4507 C.3     
   6 C6             0.2659     3.1734     1.7649 C.3     
   7 N7             1.5706     3.0168     1.1019 N.am    
   8 C8             1.4290     2.0576    -0.0005 C.3     
   9 C9             2.7084     3.6502     1.4495 C.2     
  10 O10            2.7100     4.4287     2.3848 O.2     
  11 C11            3.9444     3.4012     0.7005 C.2     
  12 O12            4.0796     2.5676    -0.3517 O.3     
  13 C13            5.1588     3.9769     0.9421 C.2     
  14 C14            6.0496     3.4537    -0.0081 C.2     
  15 C15            5.3481     2.5951    -0.7805 C.2     
  16 C16            7.5125     3.7894    -0.1438 C.3     
  17 F17            8.2674     2.9096     0.6392 F       
  18 F18            7.8964     3.6680    -1.4836 F       
  19 F19            7.7316     5.1023     0.2869 F       
  20 H20           -0.6324     1.9593    -0.7844 H       
  21 H21           -0.8919    -0.3828    -0.4934 H       
  22 H22            0.8918    -0.3585    -0.5184 H       
  23 H23           -0.7764    -1.0325     1.6108 H       
  24 H24           -0.5221     0.5543     3.1774 H       
  25 H25            1.1093     0.9470     2.5570 H       
  26 H26           -1.5995     1.9734     1.5378 H       
  27 H27           -0.2598     4.0393     1.3624 H       
  28 H28            0.4006     3.2803     2.8412 H       
  29 H29            2.1216     1.2279     0.1411 H       
  30 H30            1.6353     2.5530    -0.9493 H       
  31 H31            5.3891     4.6959     1.7144 H       
  32 H32            5.7450     2.0247    -1.6073 H       
@<TRIPOS>BOND
   1    1    2 1
   2    1    8 1
   3    1    5 1
   4    1   20 1
   5    2    3 1
   6    2   21 1
   7    2   22 1
   8    3    4 1
   9    3   23 1
  10    4    5 1
  11    4   24 1
  12    4   25 1
  13    5    6 1
  14    5   26 1
  15    6    7 1
  16    6   27 1
  17    6   28 1
  18    7    8 1
  19    7    9 am
  20    8   29 1
  21    8   30 1
  22    9   10 2
  23    9   11 1
  24   11   12 1
  25   11   13 2
  26   12   15 1
  27   13   14 1
  28   13   31 1
  29   14   15 2
  30   14   16 1
  31   15   32 1
  32   16   17 1
  33   16   18 1
  34   16   19 1

#	End of record

