#	Name: ASD01001026
#	Creating user name:	WinNT
#	Creation time:	15. 06. 2019 18:54

#	Modifying user name:	WinNT
#	Modification time:	15. 06. 2019 18:54

#	Program:	/corina/corina34_cracker 3.40 0067  02.08.2006

@<TRIPOS>MOLECULE
ASD01001026
  47   49    0    0    0
SMALL
NO_CHARGES


@<TRIPOS>ATOM
   1 C1             0.2161     2.4886     0.4927 C.ar    
   2 C2            -0.1687     1.2440     0.9550 C.ar    
   3 C3             1.5393     2.7281     0.1722 C.ar    
   4 C4             0.7696     0.2388     1.0967 C.ar    
   5 C5             2.4776     1.7230     0.3138 C.ar    
   6 C6             2.0927     0.4782     0.7756 C.ar    
   7 C7             3.9199     1.9838    -0.0366 C.3     
   8 C8             4.7086     0.7068     0.0991 C.ar    
   9 C9             4.0099     2.4814    -1.4562 C.ar    
  10 S10            4.5983     3.2358     1.0872 S.3     
  11 C11            5.7457     0.6285     1.0098 C.ar    
  12 C12            4.3915    -0.3879    -0.6831 C.ar    
  13 C13            3.0499     2.1127    -2.3800 C.ar    
  14 C14            5.0493     3.3110    -1.8332 C.ar    
  15 C15            4.2141     2.5630     2.7274 C.3     
  16 C16            6.4655    -0.5447     1.1382 C.ar    
  17 C17            5.1150    -1.5592    -0.5587 C.ar    
  18 C18            3.1294     2.5737    -3.6808 C.ar    
  19 C19            5.1319     3.7674    -3.1354 C.ar    
  20 C20            4.8449     3.4498     3.8029 C.3     
  21 C21            6.1480    -1.6395     0.3564 C.ar    
  22 C22            4.1685     3.4037    -4.0577 C.ar    
  23 N23            6.3017     3.4842     3.6167 N.3     
  24 C24            4.5258     2.8909     5.1655 C.2     
  25 O25            5.3486     2.2322     5.7562 O.2     
  26 O26            3.3273     3.1248     5.7230 O.3     
  27 H27           -0.5178     3.2726     0.3778 H       
  28 H28           -1.2024     1.0570     1.2058 H       
  29 H29            1.8399     3.7004    -0.1893 H       
  30 H30            0.4691    -0.7333     1.4585 H       
  31 H31            2.8260    -0.3069     0.8870 H       
  32 H32            5.9937     1.4839     1.6206 H       
  33 H33            3.5781    -0.3282    -1.3911 H       
  34 H34            2.2381     1.4642    -2.0855 H       
  35 H35            5.7967     3.6030    -1.1103 H       
  36 H36            3.1332     2.5375     2.8656 H       
  37 H37            4.6148     1.5526     2.8086 H       
  38 H38            7.2762    -0.6057     1.8492 H       
  39 H39            4.8669    -2.4146    -1.1695 H       
  40 H40            2.3797     2.2851    -4.4027 H       
  41 H41            5.9438     4.4159    -3.4299 H       
  42 H42            4.4443     4.4602     3.7217 H       
  43 H43            6.7107    -2.5560     0.4565 H       
  44 H44            4.2330     3.7603    -5.0751 H       
  45 H45            6.6972     2.5587     3.6875 H       
  46 H46            6.5436     3.9145     2.7367 H       
  47 H47            3.1688     2.7457     6.5984 H       
@<TRIPOS>BOND
   1    1    2 ar
   2    1    3 ar
   3    1   27 1
   4    2    4 ar
   5    2   28 1
   6    3    5 ar
   7    3   29 1
   8    4    6 ar
   9    4   30 1
  10    5    6 ar
  11    5    7 1
  12    6   31 1
  13    7   10 1
  14    7    8 1
  15    7    9 1
  16    8   12 ar
  17    8   11 ar
  18    9   14 ar
  19    9   13 ar
  20   10   15 1
  21   11   16 ar
  22   11   32 1
  23   12   17 ar
  24   12   33 1
  25   13   18 ar
  26   13   34 1
  27   14   19 ar
  28   14   35 1
  29   15   20 1
  30   15   36 1
  31   15   37 1
  32   16   21 ar
  33   16   38 1
  34   17   21 ar
  35   17   39 1
  36   18   22 ar
  37   18   40 1
  38   19   22 ar
  39   19   41 1
  40   20   23 1
  41   20   24 1
  42   20   42 1
  43   21   43 1
  44   22   44 1
  45   23   45 1
  46   23   46 1
  47   24   25 2
  48   24   26 1
  49   26   47 1

#	End of record

