#	Name: ASD00122065
#	Creating user name:	WinNT
#	Creation time:	15. 06. 2019 18:31

#	Modifying user name:	WinNT
#	Modification time:	15. 06. 2019 18:31

#	Program:	/corina/corina34_cracker 3.40 0067  02.08.2006

@<TRIPOS>MOLECULE
ASD00122065
  27   27    0    0    0
SMALL
NO_CHARGES


@<TRIPOS>ATOM
   1 C1            -0.0167     1.3772     0.0096 C.ar    
   2 C2             0.0021    -0.0041     0.0020 C.ar    
   3 C3             1.2080    -0.6802    -0.0131 C.ar    
   4 C4             2.3980     0.0239    -0.0207 C.ar    
   5 C5             2.3846     1.4052    -0.0127 C.ar    
   6 C6             1.1759     2.0860     0.0020 C.ar    
   7 O7             1.1601     3.4449     0.0095 O.3     
   8 C8            -0.1205     4.0787     0.0246 C.3     
   9 C9             0.0623     5.5978     0.0311 C.3     
  10 C10            1.2344    -4.1379    -1.4551 C.3     
  11 C11            1.2256    -2.1871    -0.0209 C.3     
  12 N12            1.2178    -2.6697    -1.4083 N.3     
  13 H13           -0.9589     1.9049     0.0169 H       
  14 H14           -0.9260    -0.5563     0.0083 H       
  15 H15            3.3387    -0.5065    -0.0325 H       
  16 H16            3.3144     1.9547    -0.0179 H       
  17 H17           -0.6822     3.7842    -0.8618 H       
  18 H18           -0.6659     3.7746     0.9180 H       
  19 H19            0.6240     5.8923     0.9176 H       
  20 H20            0.6077     5.9019    -0.8623 H       
  21 H21           -0.9145     6.0812     0.0427 H       
  22 H22            1.2282    -4.4684    -2.4937 H       
  23 H23            2.1336    -4.5069    -0.9617 H       
  24 H24            0.3538    -4.5277    -0.9445 H       
  25 H25            2.1247    -2.5426     0.4824 H       
  26 H26            0.3449    -2.5634     0.4997 H       
  27 H27            1.9896    -2.2825    -1.9302 H       
@<TRIPOS>BOND
   1    1    2 ar
   2    1    6 ar
   3    1   13 1
   4    2    3 ar
   5    2   14 1
   6    3    4 ar
   7    3   11 1
   8    4    5 ar
   9    4   15 1
  10    5    6 ar
  11    5   16 1
  12    6    7 1
  13    7    8 1
  14    8    9 1
  15    8   17 1
  16    8   18 1
  17    9   19 1
  18    9   20 1
  19    9   21 1
  20   10   12 1
  21   10   22 1
  22   10   23 1
  23   10   24 1
  24   11   12 1
  25   11   25 1
  26   11   26 1
  27   12   27 1

#	End of record

