#	Name: ASD03320038
#	Creating user name:	WinNT
#	Creation time:	15. 06. 2019 20:36

#	Modifying user name:	WinNT
#	Modification time:	15. 06. 2019 20:36

#	Program:	/corina/corina34_cracker 3.40 0067  02.08.2006

@<TRIPOS>MOLECULE
ASD03320038
  60   64    0    0    0
SMALL
NO_CHARGES


@<TRIPOS>ATOM
   1 C1            -0.0858     0.3411     0.8187 C.ar    
   2 C2            -0.0284    -1.0405     0.6375 C.ar    
   3 C3             1.0713     1.0878     0.7965 C.ar    
   4 C4             2.3024     0.4609     0.5925 C.ar    
   5 C5             2.3589    -0.9226     0.4111 C.ar    
   6 C6             1.2007    -1.6675     0.4336 C.ar    
   7 C7             3.5449     1.2615     0.5680 C.2     
   8 N8             3.5738     2.4412    -0.0831 N.am    
   9 O9             4.5406     0.8558     1.1351 O.2     
  10 C10           -1.2750    -1.8437     0.6621 C.ar    
  11 C11           -1.2305    -3.2238     0.4824 C.ar    
  12 C12           -2.4318    -3.9322     0.5150 C.ar    
  13 N13           -3.5670    -3.2684     0.7149 N.ar    
  14 C14           -3.5669    -1.9608     0.8809 C.ar    
  15 N15           -2.4556    -1.2559     0.8623 N.ar    
  16 N16           -2.4424    -5.3079     0.3410 N.pl3   
  17 C17           -3.6346    -6.0222     0.4910 C.ar    
  18 C18           -3.8515    -7.1777    -0.2488 C.ar    
  19 C19           -5.0303    -7.8813    -0.0978 C.ar    
  20 C20           -5.9942    -7.4364     0.7884 C.ar    
  21 C21           -5.7816    -6.2862     1.5261 C.ar    
  22 C22           -4.6025    -5.5813     1.3845 C.ar    
  23 C23            4.7643     3.3008    -0.0212 C.3     
  24 C24            5.2283     3.5991    -1.4522 C.3     
  25 N25            4.0701     4.0487    -2.2373 N.am    
  26 C26            2.8797     3.1891    -2.2993 C.3     
  27 C27            2.4178     2.8881    -0.8728 C.3     
  28 C28            4.0990     5.2284    -2.8885 C.2     
  29 C29            5.3419     6.0257    -2.9174 C.ar    
  30 O30            3.1020     5.6362    -3.4520 O.2     
  31 C31            5.3173     7.3783    -2.5643 C.ar    
  32 C32            6.4862     8.1174    -2.5938 C.ar    
  33 C33            7.6745     7.5209    -2.9710 C.ar    
  34 C34            7.7044     6.1818    -3.3216 C.ar    
  35 C35            6.5487     5.4308    -3.2921 C.ar    
  36 F36            4.1558     7.9616    -2.1959 F       
  37 H37           -1.0385     0.8263     0.9721 H       
  38 H38            1.0266     2.1577     0.9366 H       
  39 H39            3.3105    -1.4082     0.2528 H       
  40 H40            1.2442    -2.7375     0.2934 H       
  41 H41           -0.2912    -3.7321     0.3218 H       
  42 H42           -4.5065    -1.4531     1.0411 H       
  43 H43           -1.6226    -5.7746     0.1152 H       
  44 H44           -3.0994    -7.5253    -0.9416 H       
  45 H45           -5.1996    -8.7797    -0.6727 H       
  46 H46           -6.9153    -7.9883     0.9043 H       
  47 H47           -6.5367    -5.9411     2.2168 H       
  48 H48           -4.4370    -4.6831     1.9610 H       
  49 H49            4.5159     4.2337     0.4849 H       
  50 H50            5.5582     2.7875     0.5213 H       
  51 H51            5.9853     4.3832    -1.4353 H       
  52 H52            5.6439     2.6954    -1.8980 H       
  53 H53            2.0857     3.7023    -2.8418 H       
  54 H54            3.1280     2.2562    -2.8054 H       
  55 H55            1.6608     2.1041    -0.8912 H       
  56 H56            2.0023     3.7907    -0.4247 H       
  57 H57            6.4702     9.1625    -2.3218 H       
  58 H58            8.5843     8.1024    -2.9927 H       
  59 H59            8.6370     5.7230    -3.6153 H       
  60 H60            6.5749     4.3865    -3.5661 H       
@<TRIPOS>BOND
   1    1    2 ar
   2    1    3 ar
   3    1   37 1
   4    2   10 1
   5    2    6 ar
   6    3    4 ar
   7    3   38 1
   8    4    5 ar
   9    4    7 1
  10    5    6 ar
  11    5   39 1
  12    6   40 1
  13    7    8 am
  14    7    9 2
  15    8   23 1
  16    8   27 1
  17   10   11 ar
  18   10   15 ar
  19   11   12 ar
  20   11   41 1
  21   12   13 ar
  22   12   16 1
  23   13   14 ar
  24   14   15 ar
  25   14   42 1
  26   16   17 1
  27   16   43 1
  28   17   18 ar
  29   17   22 ar
  30   18   19 ar
  31   18   44 1
  32   19   20 ar
  33   19   45 1
  34   20   21 ar
  35   20   46 1
  36   21   22 ar
  37   21   47 1
  38   22   48 1
  39   23   24 1
  40   23   49 1
  41   23   50 1
  42   24   25 1
  43   24   51 1
  44   24   52 1
  45   25   26 1
  46   25   28 am
  47   26   27 1
  48   26   53 1
  49   26   54 1
  50   27   55 1
  51   27   56 1
  52   28   29 1
  53   28   30 2
  54   29   31 ar
  55   29   35 ar
  56   31   32 ar
  57   31   36 1
  58   32   33 ar
  59   32   57 1
  60   33   34 ar
  61   33   58 1
  62   34   35 ar
  63   34   59 1
  64   35   60 1

#	End of record

