#	Name: ASD00841923
#	Creating user name:	WinNT
#	Creation time:	15. 06. 2019 18:43

#	Modifying user name:	WinNT
#	Modification time:	15. 06. 2019 18:43

#	Program:	/corina/corina34_cracker 3.40 0067  02.08.2006

@<TRIPOS>MOLECULE
ASD00841923
  97  102    0    0    0
SMALL
NO_CHARGES


@<TRIPOS>ATOM
   1 C1             0.8984     1.5126    -0.6763 C.ar    
   2 C2             1.2270     0.1734    -0.8266 C.ar    
   3 C3             1.2024    -0.6723     0.2731 C.ar    
   4 C4             0.8510    -0.1789     1.5145 C.ar    
   5 C5             0.5234     1.1565     1.6617 C.ar    
   6 C6             0.5476     2.0012     0.5676 C.ar    
   7 C7             1.5584    -2.1279     0.1133 C.3     
   8 C8             1.3378    -2.8736     1.4122 C.2     
   9 C9             0.7370    -2.7586    -1.0130 C.3     
  10 C10           -0.7295    -2.5247    -0.7569 C.2     
  11 N11           -1.6512    -3.0553    -1.5848 N.am    
  12 O12           -1.0804    -1.8589     0.1942 O.2     
  13 C13           -3.0767    -2.7407    -1.4181 C.3     
  14 C14           -3.8626    -4.0518    -1.3179 C.3     
  15 C15           -3.5496    -4.9239    -2.5359 C.3     
  16 C16           -2.0559    -5.2565    -2.5570 C.3     
  17 C17           -1.2490    -3.9546    -2.6748 C.3     
  18 N18           -4.3270    -6.1680    -2.4597 N.3     
  19 C19           -4.1429    -6.9790    -3.6714 C.3     
  20 C20           -4.9033    -8.2985    -3.5192 C.3     
  21 N21           -6.3271    -8.0166    -3.2889 N.3     
  22 C22           -6.5112    -7.2056    -2.0773 C.3     
  23 C23           -5.7507    -5.8861    -2.2294 C.3     
  24 C24           -7.1045    -9.2608    -3.2127 C.3     
  25 O25            0.2840    -3.0030     1.9985 O.2     
  26 N26            2.5289    -3.3647     1.7937 N.am    
  27 C27            3.0377    -2.2850    -0.1543 C.ar    
  28 C28            3.5472    -3.0375     0.8968 C.ar    
  29 C29            3.8570    -1.8433    -1.1686 C.ar    
  30 C30            5.2076    -2.1487    -1.1486 C.ar    
  31 C31            5.7283    -2.8985    -0.1059 C.ar    
  32 C32            4.9063    -3.3420     0.9124 C.ar    
  33 Cl33           6.2448    -1.5946    -2.4257 Cl      
  34 F34            7.0457    -3.1973    -0.0850 F       
  35 C35            2.5301    -5.9489     2.7404 C.ar    
  36 C36            1.2839    -6.3956     2.3261 C.ar    
  37 C37            3.5907    -6.8316     2.8105 C.ar    
  38 C38            3.4109    -8.1587     2.4677 C.ar    
  39 C39            2.1695    -8.6065     2.0544 C.ar    
  40 C40            1.1059    -7.7282     1.9831 C.ar    
  41 H41            2.0315    -9.6438     1.7872 H       
  42 O42            0.2389    -5.5294     2.2568 O.3     
  43 C43           -1.0150    -6.0592     1.8219 C.3     
  44 C44           -2.0624    -4.9440     1.8077 C.3     
  45 C45           -8.5545    -8.9347    -2.8495 C.3     
  46 C46           -7.0654    -9.9703    -4.5677 C.3     
  47 O47            1.5720    -0.3097    -2.0491 O.3     
  48 C48            1.9922    -0.0943    -4.4193 C.3     
  49 C49            1.4671     0.5891    -3.1551 C.3     
  50 S50            2.7620    -4.2559     3.1699 S.o2    
  51 O51            4.1336    -4.1132     3.5128 O.2     
  52 O52            1.7009    -3.9167     4.0521 O.2     
  53 H53            0.9211     2.1738    -1.5299 H       
  54 H54            0.8318    -0.8368     2.3708 H       
  55 H55            0.2482     1.5402     2.6330 H       
  56 H56            0.2913     3.0437     0.6851 H       
  57 H57            1.0166    -2.3055    -1.9641 H       
  58 H58            0.9331    -3.8302    -1.0495 H       
  59 H59           -3.2184    -2.1591    -0.5072 H       
  60 H60           -3.4275    -2.1691    -2.2774 H       
  61 H61           -3.5748    -4.5798    -0.4088 H       
  62 H62           -4.9304    -3.8347    -1.2906 H       
  63 H63           -3.8146    -4.3855    -3.4458 H       
  64 H64           -1.7852    -5.7732    -1.6363 H       
  65 H65           -1.8379    -5.8969    -3.4117 H       
  66 H66           -1.4520    -3.4846    -3.6371 H       
  67 H67           -0.1849    -4.1754    -2.5909 H       
  68 H68           -4.5269    -6.4355    -4.5346 H       
  69 H69           -3.0820    -7.1850    -3.8134 H       
  70 H70           -4.7921    -8.8893    -4.4284 H       
  71 H71           -4.5011    -8.8545    -2.6723 H       
  72 H72           -7.5721    -6.9996    -1.9352 H       
  73 H73           -6.1272    -7.7492    -1.2140 H       
  74 H74           -5.8620    -5.2953    -1.3202 H       
  75 H75           -6.1530    -5.3302    -3.0763 H       
  76 H76           -6.6762    -9.9107    -2.4497 H       
  77 H77            3.4468    -1.2596    -1.9794 H       
  78 H78            5.3185    -3.9257     1.7223 H       
  79 H79            4.5612    -6.4844     3.1330 H       
  80 H80            4.2414    -8.8470     2.5225 H       
  81 H81            0.1364    -8.0785     1.6609 H       
  82 H82           -0.9076    -6.4695     0.8178 H       
  83 H83           -1.3328    -6.8474     2.5044 H       
  84 H84           -2.1699    -4.5337     2.8118 H       
  85 H85           -1.7447    -4.1557     1.1252 H       
  86 H86           -3.0189    -5.3480     1.4761 H       
  87 H87           -8.9829    -8.2847    -3.6125 H       
  88 H88           -9.1314    -9.8578    -2.7930 H       
  89 H89           -8.5824    -8.4292    -1.8842 H       
  90 H90           -6.0323   -10.2026    -4.8265 H       
  91 H91           -7.6422   -10.8935    -4.5112 H       
  92 H92           -7.4937    -9.3204    -5.3307 H       
  93 H93            1.9940     0.6187    -5.2437 H       
  94 H94            3.0075    -0.4505    -4.2447 H       
  95 H95            1.3492    -0.9380    -4.6699 H       
  96 H96            0.4232     0.8674    -3.2994 H       
  97 H97            2.0570     1.4833    -2.9538 H       
@<TRIPOS>BOND
   1    1    2 ar
   2    1    6 ar
   3    1   53 1
   4    2    3 ar
   5    2   47 1
   6    3    4 ar
   7    3    7 1
   8    4    5 ar
   9    4   54 1
  10    5    6 ar
  11    5   55 1
  12    6   56 1
  13    7    8 1
  14    7    9 1
  15    7   27 1
  16    8   25 2
  17    8   26 am
  18    9   10 1
  19    9   57 1
  20    9   58 1
  21   10   11 am
  22   10   12 2
  23   11   13 1
  24   11   17 1
  25   13   14 1
  26   13   59 1
  27   13   60 1
  28   14   15 1
  29   14   61 1
  30   14   62 1
  31   15   16 1
  32   15   18 1
  33   15   63 1
  34   16   17 1
  35   16   64 1
  36   16   65 1
  37   17   66 1
  38   17   67 1
  39   18   19 1
  40   18   23 1
  41   19   20 1
  42   19   68 1
  43   19   69 1
  44   20   21 1
  45   20   70 1
  46   20   71 1
  47   21   22 1
  48   21   24 1
  49   22   23 1
  50   22   72 1
  51   22   73 1
  52   23   74 1
  53   23   75 1
  54   24   45 1
  55   24   46 1
  56   24   76 1
  57   26   50 am
  58   26   28 1
  59   27   28 ar
  60   27   29 ar
  61   28   32 ar
  62   29   30 ar
  63   29   77 1
  64   30   31 ar
  65   30   33 1
  66   31   32 ar
  67   31   34 1
  68   32   78 1
  69   35   36 ar
  70   35   37 ar
  71   35   50 1
  72   36   42 1
  73   36   40 ar
  74   37   38 ar
  75   37   79 1
  76   38   39 ar
  77   38   80 1
  78   39   40 ar
  79   39   41 1
  80   40   81 1
  81   42   43 1
  82   43   44 1
  83   43   82 1
  84   43   83 1
  85   44   84 1
  86   44   85 1
  87   44   86 1
  88   45   87 1
  89   45   88 1
  90   45   89 1
  91   46   90 1
  92   46   91 1
  93   46   92 1
  94   47   49 1
  95   48   49 1
  96   48   93 1
  97   48   94 1
  98   48   95 1
  99   49   96 1
 100   49   97 1
 101   50   51 2
 102   50   52 2

#	End of record

