#	Name: ASD03731741
#	Creating user name:	WinNT
#	Creation time:	15. 06. 2019 20:46

#	Modifying user name:	WinNT
#	Modification time:	15. 06. 2019 20:46

#	Program:	/corina/corina34_cracker 3.40 0067  02.08.2006

@<TRIPOS>MOLECULE
ASD03731741
  36   37    0    0    0
SMALL
NO_CHARGES


@<TRIPOS>ATOM
   1 C1             0.7610     1.4148    -0.4032 C.2     
   2 C2             0.5757    -0.0460    -0.3024 C.ar    
   3 C3             1.5342    -0.9122    -0.8351 C.ar    
   4 C4             1.3580    -2.2743    -0.7386 C.ar    
   5 C5             0.2282    -2.7883    -0.1123 C.ar    
   6 C6            -0.7279    -1.9299     0.4184 C.ar    
   7 C7            -0.5560    -0.5665     0.3310 C.ar    
   8 O8             1.7487     1.8660    -0.9503 O.2     
   9 N9            -0.1673     2.2486     0.1062 N.am    
  10 S10            0.0406     3.8876    -0.0069 S.o2    
  11 O11           -1.0979     4.4312     0.6470 O.2     
  12 O12            1.3506     4.1102     0.4967 O.2     
  13 C13           -0.0237     4.2302    -1.7871 C.3     
  14 O14            0.0581    -4.1313    -0.0192 O.3     
  15 C15            0.5845    -4.7679     1.0602 C.ar    
  16 C16            0.5360    -6.1522     1.1419 C.ar    
  17 C17            1.0718    -6.7977     2.2391 C.ar    
  18 C18            1.6566    -6.0641     3.2577 C.ar    
  19 C19            1.7057    -4.6828     3.1776 C.ar    
  20 C20            1.1757    -4.0347     2.0785 C.ar    
  21 C21           -0.1012    -6.9509     0.0342 C.3     
  22 F22            2.1794    -6.6968     4.3308 F       
  23 H23            2.4120    -0.5137    -1.3221 H       
  24 H24            2.0982    -2.9444    -1.1504 H       
  25 H25           -1.6046    -2.3329     0.9036 H       
  26 H26           -1.2970     0.0997     0.7475 H       
  27 H27           -0.9572     1.8887     0.5391 H       
  28 H28           -0.9887     3.9142    -2.1833 H       
  29 H29            0.1061     5.2992    -1.9563 H       
  30 H30            0.7729     3.6832    -2.2914 H       
  31 H31            1.0342    -7.8752     2.3030 H       
  32 H32            2.1621    -4.1120     3.9727 H       
  33 H33            1.2178    -2.9574     2.0144 H       
  34 H34            0.6525    -7.2035    -0.7116 H       
  35 H35           -0.5269    -7.8664     0.4449 H       
  36 H36           -0.8901    -6.3606    -0.4320 H       
@<TRIPOS>BOND
   1    1    2 1
   2    1    8 2
   3    1    9 am
   4    2    3 ar
   5    2    7 ar
   6    3    4 ar
   7    3   23 1
   8    4    5 ar
   9    4   24 1
  10    5    6 ar
  11    5   14 1
  12    6    7 ar
  13    6   25 1
  14    7   26 1
  15    9   10 am
  16    9   27 1
  17   10   11 2
  18   10   12 2
  19   10   13 1
  20   13   28 1
  21   13   29 1
  22   13   30 1
  23   14   15 1
  24   15   16 ar
  25   15   20 ar
  26   16   17 ar
  27   16   21 1
  28   17   18 ar
  29   17   31 1
  30   18   19 ar
  31   18   22 1
  32   19   20 ar
  33   19   32 1
  34   20   33 1
  35   21   34 1
  36   21   35 1
  37   21   36 1

#	End of record

