#	Name: ASD01202020
#	Creating user name:	WinNT
#	Creation time:	15. 06. 2019 19:09

#	Modifying user name:	WinNT
#	Modification time:	15. 06. 2019 19:09

#	Program:	/corina/corina34_cracker 3.40 0067  02.08.2006

@<TRIPOS>MOLECULE
ASD01202020
  44   47    0    0    0
SMALL
NO_CHARGES


@<TRIPOS>ATOM
   1 C1            -0.0178     1.4628     0.0101 C.2     
   2 C2             0.0021    -0.0041     0.0020 C.2     
   3 C3             1.2814     1.8510    -0.0002 C.2     
   4 C4             1.3215    -0.3575    -0.0125 C.2     
   5 C5            -1.1611    -0.9093     0.0083 C.2     
   6 O6             2.0622     0.7550    -0.0136 O.3     
   7 C7             1.8534    -1.7674    -0.0256 C.3     
   8 O8            -0.9941    -2.1139     0.0007 O.2     
   9 N9            -2.4097    -0.4020     0.0224 N.am    
  10 C10           -3.5059    -1.2552     0.0283 C.2     
  11 N11           -4.7377    -0.8744     0.0416 N.2     
  12 S12           -3.4179    -2.9602     0.0116 S.3     
  13 C13           -5.6801    -1.8231     0.0400 C.2     
  14 C14           -5.1807    -3.0630     0.0250 C.2     
  15 H15           -2.5428     0.5588     0.0285 H       
  16 C16           -7.2052    -1.8828     0.0495 C.3     
  17 C17           -7.5476    -3.3221     0.4843 C.3     
  18 C18           -6.2933    -4.0949     0.0258 C.3     
  19 C19            1.7616     3.2495     0.0022 C.ar    
  20 C20            0.8455     4.3037     0.0162 C.ar    
  21 C21            3.1283     3.5178    -0.0035 C.ar    
  22 C22            3.5727     4.8412    -0.0006 C.ar    
  23 C23            2.6429     5.8870     0.0080 C.ar    
  24 C24            1.2909     5.6114     0.0186 C.ar    
  25 C25            5.0149     5.1356    -0.0061 C.2     
  26 C26            5.4922     6.5650    -0.0030 C.3     
  27 O27            5.8189     4.2280    -0.0132 O.2     
  28 H28           -0.8883     2.1021     0.0179 H       
  29 H29            1.9720    -2.1015    -1.0563 H       
  30 H30            2.8192    -1.7961     0.4790 H       
  31 H31            1.1539    -2.4245     0.4911 H       
  32 H32           -7.6077    -1.1655     0.7648 H       
  33 H33           -7.5980    -1.6851    -0.9478 H       
  34 H34           -7.6704    -3.3843     1.5656 H       
  35 H35           -8.4383    -3.6835    -0.0296 H       
  36 H36           -6.4400    -4.4953    -0.9774 H       
  37 H37           -6.0655    -4.8983     0.7263 H       
  38 H38           -0.2143     4.0959     0.0248 H       
  39 H39            3.8406     2.7061    -0.0098 H       
  40 H40            2.9841     6.9117     0.0106 H       
  41 H41            0.5773     6.4220     0.0248 H       
  42 H42            5.6120     6.9058     1.0254 H       
  43 H43            6.4490     6.6297    -0.5210 H       
  44 H44            4.7607     7.1934    -0.5111 H       
@<TRIPOS>BOND
   1    1    2 1
   2    1    3 2
   3    1   28 1
   4    2    4 2
   5    2    5 1
   6    3    6 1
   7    3   19 1
   8    4    7 1
   9    4    6 1
  10    5    8 2
  11    5    9 am
  12    7   29 1
  13    7   30 1
  14    7   31 1
  15    9   15 1
  16    9   10 1
  17   10   11 2
  18   10   12 1
  19   11   13 1
  20   12   14 1
  21   13   16 1
  22   13   14 2
  23   14   18 1
  24   16   17 1
  25   16   32 1
  26   16   33 1
  27   17   18 1
  28   17   34 1
  29   17   35 1
  30   18   36 1
  31   18   37 1
  32   19   20 ar
  33   19   21 ar
  34   20   24 ar
  35   20   38 1
  36   21   22 ar
  37   21   39 1
  38   22   23 ar
  39   22   25 1
  40   23   24 ar
  41   23   40 1
  42   24   41 1
  43   25   26 1
  44   25   27 2
  45   26   42 1
  46   26   43 1
  47   26   44 1

#	End of record

