#	Name: ASD01209227
#	Creating user name:	WinNT
#	Creation time:	15. 06. 2019 19:11

#	Modifying user name:	WinNT
#	Modification time:	15. 06. 2019 19:11

#	Program:	/corina/corina34_cracker 3.40 0067  02.08.2006

@<TRIPOS>MOLECULE
ASD01209227
  48   50    0    0    0
SMALL
NO_CHARGES


@<TRIPOS>ATOM
   1 O1            -0.0173     1.4248     0.0099 O.3     
   2 O2             2.1367     2.0777     1.3686 O.3     
   3 C3             8.5136     9.3213     2.7578 C.ar    
   4 C4             8.1864     9.1857     4.1051 C.ar    
   5 C5             7.0611     8.4607     4.4784 C.ar    
   6 C6             6.2632     7.8748     3.5204 C.ar    
   7 C7             6.5844     8.0089     2.1676 C.ar    
   8 C8             7.7182     8.7340     1.7916 C.ar    
   9 C9             5.7314     7.3833     1.1388 C.2     
  10 N10            4.6404     6.6812     1.5039 N.am    
  11 O11            6.0127     7.5011    -0.0382 O.2     
  12 C12            3.8374     6.0923     0.5355 C.2     
  13 P13            1.3209     2.3199     0.0019 P.3     
  14 O14            2.1650     1.9351    -1.1513 O.2     
  15 C15            0.8726     4.0817    -0.1342 C.3     
  16 N16            2.7695     5.3983     0.7779 N.2     
  17 S17            4.1094     6.1831    -1.1499 S.3     
  18 C18            2.6728     5.2070    -1.4451 C.2     
  19 C19            2.1248     4.9100    -0.2652 C.2     
  20 C20            0.0021    -0.0041     0.0020 C.3     
  21 C21           -1.4333    -0.5336     0.0129 C.3     
  22 C22            2.7182     0.8193     1.7153 C.3     
  23 C23            3.4161     0.9364     3.0718 C.3     
  24 O24            9.6158    10.0237     2.3764 O.3     
  25 C25           10.1831    10.9085     3.3485 C.3     
  26 C26           10.2761    10.1587     4.6842 C.3     
  27 O27            8.9557     9.7603     5.0677 O.3     
  28 H28            6.8113     8.3558     5.5239 H       
  29 H29            5.3899     7.3118     3.8151 H       
  30 H30            7.9697     8.8404     0.7467 H       
  31 H31            4.4159     6.5871     2.4429 H       
  32 H32            0.2452     4.2302    -1.0130 H       
  33 H33            0.3264     4.3876     0.7581 H       
  34 H34            2.2989     4.9049    -2.4122 H       
  35 H35            0.5123    -0.3556    -0.8948 H       
  36 H36            0.5293    -0.3651     0.8851 H       
  37 H37           -1.4185    -1.6235     0.0069 H       
  38 H38           -1.9435    -0.1821     0.9097 H       
  39 H39           -1.9605    -0.1726    -0.8702 H       
  40 H40            1.9368     0.0615     1.7729 H       
  41 H41            3.4459     0.5337     0.9558 H       
  42 H42            2.6884     1.2219     3.8314 H       
  43 H43            3.8596    -0.0235     3.3363 H       
  44 H44            4.1975     1.6941     3.0142 H       
  45 H45           11.1791    11.2155     3.0292 H       
  46 H46            9.5465    11.7858     3.4629 H       
  47 H47           10.9066     9.2772     4.5678 H       
  48 H48           10.6977    10.8150     5.4456 H       
@<TRIPOS>BOND
   1    1   20 1
   2    1   13 1
   3    2   22 1
   4    2   13 1
   5    3    4 ar
   6    3   24 1
   7    3    8 ar
   8    4    5 ar
   9    4   27 1
  10    5    6 ar
  11    5   28 1
  12    6    7 ar
  13    6   29 1
  14    7    8 ar
  15    7    9 1
  16    8   30 1
  17    9   10 am
  18    9   11 2
  19   10   12 1
  20   10   31 1
  21   12   16 2
  22   12   17 1
  23   13   14 2
  24   13   15 1
  25   15   19 1
  26   15   32 1
  27   15   33 1
  28   16   19 1
  29   17   18 1
  30   18   19 2
  31   18   34 1
  32   20   21 1
  33   20   35 1
  34   20   36 1
  35   21   37 1
  36   21   38 1
  37   21   39 1
  38   22   23 1
  39   22   40 1
  40   22   41 1
  41   23   42 1
  42   23   43 1
  43   23   44 1
  44   24   25 1
  45   25   26 1
  46   25   45 1
  47   25   46 1
  48   26   27 1
  49   26   47 1
  50   26   48 1

#	End of record

