#	Name: ASD02500175
#	Creating user name:	WinNT
#	Creation time:	15. 06. 2019 20:22

#	Modifying user name:	WinNT
#	Modification time:	15. 06. 2019 20:22

#	Program:	/corina/corina34_cracker 3.40 0067  02.08.2006

@<TRIPOS>MOLECULE
ASD02500175
  61   65    0    0    0
SMALL
NO_CHARGES


@<TRIPOS>ATOM
   1 N1             1.2978     2.2613     3.0751 N.am    
   2 C2             0.7597     1.0925     2.3649 C.3     
   3 C3             0.9704     1.2942     0.8592 C.3     
   4 N4             2.3692     1.6811     0.6284 N.am    
   5 C5             2.9072     2.8499     1.3386 C.3     
   6 C6             2.6966     2.6482     2.8443 C.3     
   7 C7             0.5206     2.9689     3.9187 C.2     
   8 O8            -0.6361     2.6424     4.0977 O.2     
   9 O9             1.0260     4.0380     4.5633 O.3     
  10 C10            3.1450     0.9765    -0.2191 C.2     
  11 C11            4.5064     1.4471    -0.5374 C.ar    
  12 C12            5.5272     0.5240    -0.7821 C.ar    
  13 C13            6.7962     0.9662    -1.0787 C.ar    
  14 C14            7.0637     2.3313    -1.1351 C.ar    
  15 C15            6.0493     3.2531    -0.8914 C.ar    
  16 C16            4.7769     2.8172    -0.6004 C.ar    
  17 O17            2.7227    -0.0472    -0.7213 O.2     
  18 S18            8.5650     4.0024    -2.5251 S.o2    
  19 O19            7.7061     5.0584    -2.1173 O.2     
  20 O20            9.9691     4.1579    -2.6787 O.2     
  21 N21            8.3470     2.7749    -1.4351 N.am    
  22 N22            9.6631     1.7730    -4.2127 N.ar    
  23 C23           10.2604     0.7807    -4.8265 C.ar    
  24 C24            9.8112     0.3021    -6.0556 C.ar    
  25 C25            8.7209     0.8696    -6.6510 C.ar    
  26 C26            8.0817     1.9348    -5.9886 C.ar    
  27 C27            6.9562     2.5680    -6.5390 C.ar    
  28 C28            6.3663     3.5953    -5.8674 C.ar    
  29 C29            6.8646     4.0263    -4.6399 C.ar    
  30 C30            7.9544     3.4358    -4.0777 C.ar    
  31 C31            8.5912     2.3725    -4.7407 C.ar    
  32 C32            0.1640     4.7653     5.3223 C.ar    
  33 C33           -0.3744     4.2191     6.4782 C.ar    
  34 C34           -1.2507     4.9608     7.2483 C.ar    
  35 C35           -1.5908     6.2468     6.8660 C.ar    
  36 C36           -1.0550     6.7922     5.7144 C.ar    
  37 C37           -0.1739     6.0566     4.9451 C.ar    
  38 Cl38          -1.9254     4.2787     8.6951 Cl      
  39 H39            1.2835     0.1936     2.6904 H       
  40 H40           -0.3052     0.9948     2.5755 H       
  41 H41            0.7562     0.3645     0.3321 H       
  42 H42            0.3087     2.0823     0.4996 H       
  43 H43            3.9722     2.9476     1.1280 H       
  44 H44            2.3835     3.7487     1.0131 H       
  45 H45            2.9108     3.5779     3.3714 H       
  46 H46            3.3583     1.8601     3.2039 H       
  47 H47            5.3204    -0.5350    -0.7382 H       
  48 H48            7.5854     0.2536    -1.2676 H       
  49 H49            6.2602     4.3114    -0.9352 H       
  50 H50            3.9892     3.5328    -0.4165 H       
  51 H51            9.1144     2.3654    -1.0058 H       
  52 H52           11.1238     0.3221    -4.3676 H       
  53 H53           10.3250    -0.5168    -6.5372 H       
  54 H54            8.3594     0.5115    -7.6036 H       
  55 H55            6.5606     2.2425    -7.4898 H       
  56 H56            5.5004     4.0818    -6.2916 H       
  57 H57            6.3794     4.8437    -4.1270 H       
  58 H58           -0.1095     3.2154     6.7761 H       
  59 H59           -2.2761     6.8249     7.4681 H       
  60 H60           -1.3218     7.7959     5.4181 H       
  61 H61            0.2480     6.4853     4.0481 H       
@<TRIPOS>BOND
   1    1    2 1
   2    1    6 1
   3    1    7 am
   4    2    3 1
   5    2   39 1
   6    2   40 1
   7    3    4 1
   8    3   41 1
   9    3   42 1
  10    4    5 1
  11    4   10 am
  12    5    6 1
  13    5   43 1
  14    5   44 1
  15    6   45 1
  16    6   46 1
  17    7    8 2
  18    7    9 1
  19    9   32 1
  20   10   11 1
  21   10   17 2
  22   11   12 ar
  23   11   16 ar
  24   12   13 ar
  25   12   47 1
  26   13   14 ar
  27   13   48 1
  28   14   15 ar
  29   14   21 1
  30   15   16 ar
  31   15   49 1
  32   16   50 1
  33   18   19 2
  34   18   20 2
  35   18   21 am
  36   18   30 1
  37   21   51 1
  38   22   23 ar
  39   22   31 ar
  40   23   24 ar
  41   23   52 1
  42   24   25 ar
  43   24   53 1
  44   25   26 ar
  45   25   54 1
  46   26   27 ar
  47   26   31 ar
  48   27   28 ar
  49   27   55 1
  50   28   29 ar
  51   28   56 1
  52   29   30 ar
  53   29   57 1
  54   30   31 ar
  55   32   33 ar
  56   32   37 ar
  57   33   34 ar
  58   33   58 1
  59   34   35 ar
  60   34   38 1
  61   35   36 ar
  62   35   59 1
  63   36   37 ar
  64   36   60 1
  65   37   61 1

#	End of record

