#	Name: ASD04750006
#	Creating user name:	WinNT
#	Creation time:	15. 06. 2019 20:52

#	Modifying user name:	WinNT
#	Modification time:	15. 06. 2019 20:52

#	Program:	/corina/corina34_cracker 3.40 0067  02.08.2006

@<TRIPOS>MOLECULE
ASD04750006
  42   45    0    0    0
SMALL
NO_CHARGES


@<TRIPOS>ATOM
   1 C1             0.7101     0.6261    -1.8824 C.ar    
   2 C2             0.8012    -0.6928    -1.4744 C.ar    
   3 C3             1.9311    -1.1406    -0.8240 C.ar    
   4 C4             2.9901    -0.2605    -0.5747 C.ar    
   5 C5             2.8894     1.0666    -0.9894 C.ar    
   6 C6             1.7527     1.5027    -1.6397 C.ar    
   7 C7             4.2917    -0.4805     0.0917 C.2     
   8 C8             5.0361     0.7778     0.0891 C.2     
   9 C9             4.1549     1.7917    -0.6018 C.3     
  10 C10            6.2680     0.9914     0.6028 C.2     
  11 C11            6.8078     2.3568     0.6744 C.ar    
  12 C12            5.9513     3.4404     0.9009 C.ar    
  13 C13            8.1814     2.5785     0.5220 C.ar    
  14 C14            8.6807     3.8606     0.5906 C.ar    
  15 C15            7.8256     4.9304     0.8106 C.ar    
  16 C16            6.4640     4.7173     0.9673 C.ar    
  17 O17            4.6788    -1.5338     0.5637 O.2     
  18 N18            4.8268     2.3085    -1.8016 N.3     
  19 C19            4.0969     3.4553    -2.3615 C.3     
  20 F20            8.3219     6.1852     0.8777 F       
  21 C21            4.9897     1.2517    -2.8106 C.3     
  22 C22            5.7452     1.8169    -4.0163 C.3     
  23 O23            5.0375     2.9495    -4.5279 O.3     
  24 C24            4.8614     3.9983    -3.5717 C.3     
  25 H25           -0.1753     0.9712    -2.3956 H       
  26 H26           -0.0153    -1.3732    -1.6658 H       
  27 H27            1.9988    -2.1706    -0.5066 H       
  28 H28            1.6771     2.5312    -1.9605 H       
  29 H29            3.9227     2.6107     0.0790 H       
  30 H30            6.8556     0.1590     0.9607 H       
  31 H31            4.8909     3.2758     1.0231 H       
  32 H32            8.8483     1.7464     0.3513 H       
  33 H33            9.7403     4.0332     0.4732 H       
  34 H34            5.8037     5.5548     1.1380 H       
  35 H35            3.1019     3.1368    -2.6725 H       
  36 H36            4.0102     4.2357    -1.6056 H       
  37 H37            5.5547     0.4237    -2.3825 H       
  38 H38            4.0090     0.8980    -3.1288 H       
  39 H39            6.7457     2.1213    -3.7088 H       
  40 H40            5.8183     1.0532    -4.7906 H       
  41 H41            4.2953     4.8123    -4.0245 H       
  42 H42            5.8362     4.3662    -3.2513 H       
@<TRIPOS>BOND
   1    1    2 ar
   2    1    6 ar
   3    1   25 1
   4    2    3 ar
   5    2   26 1
   6    3    4 ar
   7    3   27 1
   8    4    5 ar
   9    4    7 1
  10    5    6 ar
  11    5    9 1
  12    6   28 1
  13    7    8 1
  14    7   17 2
  15    8    9 1
  16    8   10 2
  17    9   18 1
  18    9   29 1
  19   10   11 1
  20   10   30 1
  21   11   12 ar
  22   11   13 ar
  23   12   16 ar
  24   12   31 1
  25   13   14 ar
  26   13   32 1
  27   14   15 ar
  28   14   33 1
  29   15   16 ar
  30   15   20 1
  31   16   34 1
  32   18   19 1
  33   18   21 1
  34   19   24 1
  35   19   35 1
  36   19   36 1
  37   21   22 1
  38   21   37 1
  39   21   38 1
  40   22   23 1
  41   22   39 1
  42   22   40 1
  43   23   24 1
  44   24   41 1
  45   24   42 1

#	End of record

