#	Name: ASD01200400
#	Creating user name:	WinNT
#	Creation time:	15. 06. 2019 19:09

#	Modifying user name:	WinNT
#	Modification time:	15. 06. 2019 19:09

#	Program:	/corina/corina34_cracker 3.40 0067  02.08.2006

@<TRIPOS>MOLECULE
ASD01200400
  51   51    0    0    0
SMALL
NO_CHARGES


@<TRIPOS>ATOM
   1 N1            -0.0178     1.4608     0.0101 N.pl3   
   2 C2             0.0225     0.0208     0.2769 C.3     
   3 C3            -0.9996    -0.3256     1.3615 C.3     
   4 P4            -0.3785    -0.8915    -1.2496 P.3     
   5 C5             1.1731     2.1753    -0.1520 C.ar    
   6 O6            -0.2066    -2.4713    -0.9914 O.3     
   7 O7            -1.7762    -0.6051    -1.6428 O.2     
   8 O8             0.6161    -0.4289    -2.4282 O.3     
   9 C9             0.4904    -0.8852    -3.7765 C.3     
  10 C10            1.5904    -0.2548    -4.6329 C.3     
  11 C11           -0.5470    -3.4606    -1.9649 C.3     
  12 C12           -0.2617    -4.8529    -1.3984 C.3     
  13 C13            1.1453     3.5604    -0.2493 C.ar    
  14 C14            2.3229     4.2642    -0.4089 C.ar    
  15 C15            3.5306     3.5899    -0.4718 C.ar    
  16 C16            3.5607     2.2090    -0.3750 C.ar    
  17 C17            2.3860     1.5014    -0.2101 C.ar    
  18 N18           -2.3443     0.0504     0.9052 N.3     
  19 F19            4.6813     4.2803    -0.6284 F       
  20 C20           -3.3541    -0.2684     1.9234 C.3     
  21 C21           -4.7384     0.1367     1.4131 C.3     
  22 C22           -5.1045    -0.7185     0.1984 C.3     
  23 C23           -5.7730    -0.0794     2.5194 C.3     
  24 H24           -0.8707     1.9177    -0.0581 H       
  25 H25            1.0203    -0.2582     0.6155 H       
  26 H26           -0.9696    -1.3970     1.5600 H       
  27 H27           -0.7598     0.2199     2.2742 H       
  28 H28            0.5863    -1.9707    -3.8032 H       
  29 H29           -0.4851    -0.5969    -4.1682 H       
  30 H30            2.5659    -0.5431    -4.2412 H       
  31 H31            1.4945    -0.6028    -5.6614 H       
  32 H32            1.4945     0.8306    -4.6062 H       
  33 H33           -1.6055    -3.3786    -2.2114 H       
  34 H34            0.0487    -3.3053    -2.8644 H       
  35 H35            0.7969    -4.9349    -1.1518 H       
  36 H36           -0.8573    -5.0082    -0.4988 H       
  37 H37           -0.5213    -5.6075    -2.1409 H       
  38 H38            0.2035     4.0867    -0.2006 H       
  39 H39            2.3017     5.3413    -0.4850 H       
  40 H40            4.5038     1.6850    -0.4248 H       
  41 H41            2.4099     0.4243    -0.1346 H       
  42 H42           -2.3807     1.0267     0.6530 H       
  43 H43           -3.3404    -1.3393     2.1258 H       
  44 H44           -3.1307     0.2775     2.8400 H       
  45 H45           -4.7268     1.1883     1.1269 H       
  46 H46           -6.0908    -0.4300    -0.1651 H       
  47 H47           -4.3675    -0.5646    -0.5897 H       
  48 H48           -5.1162    -1.7702     0.4847 H       
  49 H49           -5.5122     0.5299     3.3848 H       
  50 H50           -6.7593     0.2092     2.1559 H       
  51 H51           -5.7847    -1.1310     2.8056 H       
@<TRIPOS>BOND
   1    1    2 1
   2    1    5 1
   3    1   24 1
   4    2    3 1
   5    2    4 1
   6    2   25 1
   7    3   18 1
   8    3   26 1
   9    3   27 1
  10    4    6 1
  11    4    7 2
  12    4    8 1
  13    5   13 ar
  14    5   17 ar
  15    6   11 1
  16    8    9 1
  17    9   10 1
  18    9   28 1
  19    9   29 1
  20   10   30 1
  21   10   31 1
  22   10   32 1
  23   11   12 1
  24   11   33 1
  25   11   34 1
  26   12   35 1
  27   12   36 1
  28   12   37 1
  29   13   14 ar
  30   13   38 1
  31   14   15 ar
  32   14   39 1
  33   15   16 ar
  34   15   19 1
  35   16   17 ar
  36   16   40 1
  37   17   41 1
  38   18   20 1
  39   18   42 1
  40   20   21 1
  41   20   43 1
  42   20   44 1
  43   21   22 1
  44   21   23 1
  45   21   45 1
  46   22   46 1
  47   22   47 1
  48   22   48 1
  49   23   49 1
  50   23   50 1
  51   23   51 1

#	End of record

