#	Name: ASD01410971
#	Creating user name:	WinNT
#	Creation time:	15. 06. 2019 19:19

#	Modifying user name:	WinNT
#	Modification time:	15. 06. 2019 19:19

#	Program:	/corina/corina34_cracker 3.40 0067  02.08.2006

@<TRIPOS>MOLECULE
ASD01410971
  86   90    0    0    0
SMALL
NO_CHARGES


@<TRIPOS>ATOM
   1 C1             0.1646     1.3228     0.1118 C.ar    
   2 C2            -1.0499     1.9580    -0.1349 C.ar    
   3 C3            -2.2250     1.2300    -0.1640 C.ar    
   4 C4            -2.2007    -0.1398     0.0524 C.ar    
   5 C5            -0.9791    -0.7851     0.3011 C.ar    
   6 C6             0.2047    -0.0415     0.3238 C.ar    
   7 O7             1.3154     2.0472     0.1385 O.3     
   8 C8             1.6143     2.7264     1.2742 C.ar    
   9 N9            -3.3857    -0.8734     0.0235 N.am    
  10 C10           -4.0177    -1.1784     1.1741 C.2     
  11 C11           -5.2348    -2.0668     1.1527 C.3     
  12 O12           -3.6070    -0.7378     2.2268 O.2     
  13 C13           -5.6344    -2.4190     2.5870 C.3     
  14 C14           -7.6251    -2.2356     0.4453 C.3     
  15 C15           -8.0247    -2.5879     1.8796 C.3     
  16 C16           -6.8700    -3.3210     2.5652 C.3     
  17 C17           -9.2603    -3.4899     1.8578 C.3     
  18 N18            0.8500     2.5819     2.3444 N.ar    
  19 C19           -3.9441    -1.3128    -1.2577 C.3     
  20 C20           -4.3140    -0.0897    -2.0992 C.3     
  21 C21            2.7229     3.5627     1.3040 C.ar    
  22 C22            3.0168     4.2500     2.4690 C.ar    
  23 C23            2.1871     4.0754     3.5678 C.ar    
  24 C24            1.1048     3.2235     3.4686 C.ar    
  25 F25           -1.0801     3.2920    -0.3464 F       
  26 C26           -6.3894    -1.3336     0.4670 C.3     
  27 C27            2.4679     4.8031     4.8573 C.3     
  28 C28           -2.9058    -2.1514    -2.0057 C.3     
  29 C29            1.7439     6.1510     4.8503 C.3     
  30 C30            2.0247     6.8787     6.1398 C.ar    
  31 N31            1.7664     6.2887     7.2907 N.ar    
  32 C32           -4.8971    -0.5487    -3.4372 C.3     
  33 C33           -3.8588    -1.3873    -4.1852 C.3     
  34 C34           -3.4889    -2.6104    -3.3437 C.3     
  35 O35           -4.4035    -1.8159    -5.4349 O.3     
  36 C36           -3.4286    -1.9878    -6.4655 C.3     
  37 C37            2.5550     8.1541     6.1026 C.ar    
  38 C38            2.8097     8.8150     7.2948 C.ar    
  39 C39            2.5199     8.1650     8.4845 C.ar    
  40 C40            1.9958     6.8867     8.4432 C.ar    
  41 C41           -0.9440    -2.2391     0.5318 C.2     
  42 O42           -1.9815    -2.8669     0.6112 O.2     
  43 O43            0.2387    -2.8735     0.6550 O.3     
  44 C44            3.5944     3.7191     0.0846 C.3     
  45 F45            4.6370     4.6081     0.3674 F       
  46 F46            4.1261     2.4750    -0.2713 F       
  47 F47            2.8293     4.2195    -0.9744 F       
  48 H48           -3.1636     1.7290    -0.3551 H       
  49 H49            1.1480    -0.5319     0.5142 H       
  50 H50           -5.0078    -2.9808     0.6039 H       
  51 H51           -4.8118    -2.9414     3.0755 H       
  52 H52           -5.8614    -1.5050     3.1358 H       
  53 H53           -7.3981    -3.1496    -0.1035 H       
  54 H54           -8.4477    -1.7133    -0.0432 H       
  55 H55           -8.2517    -1.6739     2.4284 H       
  56 H56           -6.6430    -4.2350     2.0164 H       
  57 H57           -7.1547    -3.5720     3.5871 H       
  58 H58           -9.0333    -4.4039     1.3090 H       
  59 H59           -9.5450    -3.7408     2.8796 H       
  60 H60          -10.0829    -2.9676     1.3693 H       
  61 H61           -4.8357    -1.9137    -1.0785 H       
  62 H62           -5.0537     0.5077    -1.5663 H       
  63 H63           -3.4224     0.5111    -2.2784 H       
  64 H64            3.8724     4.9069     2.5218 H       
  65 H65            0.4559     3.0844     4.3207 H       
  66 H66           -6.6164    -0.4196     1.0158 H       
  67 H67           -6.1048    -1.0827    -0.5548 H       
  68 H68            2.1136     4.2048     5.6967 H       
  69 H69            3.5409     4.9675     4.9555 H       
  70 H70           -2.0142    -1.5506    -2.1850 H       
  71 H71           -2.6423    -3.0228    -1.4063 H       
  72 H72            2.0982     6.7493     4.0109 H       
  73 H73            0.6709     5.9866     4.7521 H       
  74 H74           -5.7887    -1.1495    -3.2580 H       
  75 H75           -5.1606     0.3227    -4.0367 H       
  76 H76           -2.9672    -0.7864    -4.3644 H       
  77 H77           -2.7492    -3.2078    -3.8767 H       
  78 H78           -4.3805    -3.2112    -3.1645 H       
  79 H79           -2.9186    -1.0413    -6.6446 H       
  80 H80           -2.7020    -2.7393    -6.1566 H       
  81 H81           -3.9216    -2.3139    -7.3813 H       
  82 H82            2.7688     8.6301     5.1571 H       
  83 H83            3.2242     9.8123     7.2965 H       
  84 H84            2.7058     8.6495     9.4317 H       
  85 H85            1.7670     6.3736     9.3656 H       
  86 H86            0.2111    -3.8283     0.8056 H       
@<TRIPOS>BOND
   1    1    2 ar
   2    1    7 1
   3    1    6 ar
   4    2    3 ar
   5    2   25 1
   6    3    4 ar
   7    3   48 1
   8    4    5 ar
   9    4    9 1
  10    5    6 ar
  11    5   41 1
  12    6   49 1
  13    7    8 1
  14    8   21 ar
  15    8   18 ar
  16    9   10 am
  17    9   19 1
  18   10   12 2
  19   10   11 1
  20   11   13 1
  21   11   26 1
  22   11   50 1
  23   13   16 1
  24   13   51 1
  25   13   52 1
  26   14   15 1
  27   14   26 1
  28   14   53 1
  29   14   54 1
  30   15   16 1
  31   15   17 1
  32   15   55 1
  33   16   56 1
  34   16   57 1
  35   17   58 1
  36   17   59 1
  37   17   60 1
  38   18   24 ar
  39   19   20 1
  40   19   28 1
  41   19   61 1
  42   20   32 1
  43   20   62 1
  44   20   63 1
  45   21   22 ar
  46   21   44 1
  47   22   23 ar
  48   22   64 1
  49   23   24 ar
  50   23   27 1
  51   24   65 1
  52   26   66 1
  53   26   67 1
  54   27   29 1
  55   27   68 1
  56   27   69 1
  57   28   34 1
  58   28   70 1
  59   28   71 1
  60   29   30 1
  61   29   72 1
  62   29   73 1
  63   30   31 ar
  64   30   37 ar
  65   31   40 ar
  66   32   33 1
  67   32   74 1
  68   32   75 1
  69   33   34 1
  70   33   35 1
  71   33   76 1
  72   34   77 1
  73   34   78 1
  74   35   36 1
  75   36   79 1
  76   36   80 1
  77   36   81 1
  78   37   38 ar
  79   37   82 1
  80   38   39 ar
  81   38   83 1
  82   39   40 ar
  83   39   84 1
  84   40   85 1
  85   41   42 2
  86   41   43 1
  87   43   86 1
  88   44   45 1
  89   44   46 1
  90   44   47 1

#	End of record

