#	Name: ASD03330733
#	Creating user name:	WinNT
#	Creation time:	15. 06. 2019 20:37

#	Modifying user name:	WinNT
#	Modification time:	15. 06. 2019 20:37

#	Program:	/corina/corina34_cracker 3.40 0067  02.08.2006

@<TRIPOS>MOLECULE
ASD03330733
  64   67    0    0    0
SMALL
NO_CHARGES


@<TRIPOS>ATOM
   1 C1            -0.0159     1.3547     0.0391 C.2     
   2 N2             0.0042    -0.0047     0.0499 N.pl3   
   3 C3             1.2781     1.7736    -0.0300 C.2     
   4 N4             2.0647     0.6761    -0.0776 N.2     
   5 C5             1.3083    -0.3957    -0.0360 C.2     
   6 C6             1.7895    -1.7937    -0.0751 C.ar    
   7 C7             1.7380     3.1734    -0.0501 C.2     
   8 O8             0.9288     4.0801    -0.0027 O.2     
   9 C9             3.5126     4.8406    -0.1409 C.3     
  10 N10            3.0554     3.4490    -0.1209 N.am    
  11 C11            3.6308     5.3592     1.2937 C.3     
  12 C12            4.6374     4.5027     2.0644 C.3     
  13 C13            4.1083     6.8127     1.2729 C.3     
  14 C14            4.8580     4.9177    -0.8153 C.2     
  15 N15            5.2314     5.7955    -1.7151 N.2     
  16 C16           -1.1734    -0.8711     0.1512 C.3     
  17 C17           -2.2418    -0.3837    -0.8325 C.3     
  18 C18           -3.1085     0.6805    -0.1670 C.3     
  19 N19           -2.3247     1.4886     0.7693 N.3     
  20 C20           -1.2509     2.2169     0.0774 C.3     
  21 C21            2.2648     5.2810     1.9784 C.3     
  22 C22            1.3010    -2.7288     0.8380 C.ar    
  23 C23            2.7310    -2.1854    -1.0302 C.ar    
  24 C24            3.1754    -3.4943    -1.0605 C.ar    
  25 C25            2.6898    -4.4130    -0.1485 C.ar    
  26 C26            1.7533    -4.0313     0.7962 C.ar    
  27 C27            6.5006     5.4775    -2.0262 C.2     
  28 N28            6.8284     4.4419    -1.3130 N.2     
  29 O29            5.9006     4.1082    -0.6064 O.3     
  30 C30            7.3809     6.1909    -3.0199 C.3     
  31 F31            3.2053    -1.2880    -1.9218 F       
  32 C32            3.1781    -5.8382    -0.1874 C.3     
  33 C33           -3.1879     2.4108     1.5192 C.3     
  34 H34            2.7955     5.4509    -0.6899 H       
  35 H35            3.7008     2.7258    -0.1587 H       
  36 H36            5.6105     4.5585     1.5766 H       
  37 H37            4.7216     4.8722     3.0864 H       
  38 H38            4.2972     3.4673     2.0792 H       
  39 H39            3.3911     7.4229     0.7238 H       
  40 H40            4.1924     7.1821     2.2949 H       
  41 H41            5.0814     6.8684     0.7851 H       
  42 H42           -0.8937    -1.8959    -0.0930 H       
  43 H43           -1.5681    -0.8322     1.1665 H       
  44 H44           -1.7579     0.0409    -1.7121 H       
  45 H45           -2.8672    -1.2240    -1.1341 H       
  46 H46           -3.5297     1.3299    -0.9343 H       
  47 H47           -3.9204     0.1938     0.3735 H       
  48 H48           -1.0337     3.1411     0.6129 H       
  49 H49           -1.5650     2.4492    -0.9402 H       
  50 H50            1.9246     4.2455     1.9933 H       
  51 H51            2.3490     5.6504     3.0005 H       
  52 H52            1.5476     5.8912     1.4294 H       
  53 H53            0.5704    -2.4333     1.5764 H       
  54 H54            3.9029    -3.7996    -1.7981 H       
  55 H55            1.3784    -4.7544     1.5055 H       
  56 H56            7.9315     6.9839    -2.5138 H       
  57 H57            8.0842     5.4820    -3.4568 H       
  58 H58            6.7637     6.6228    -3.8077 H       
  59 H59            4.0552    -5.9393     0.4519 H       
  60 H60            2.3903    -6.5019     0.1690 H       
  61 H61            3.4419    -6.1041    -1.2110 H       
  62 H62           -3.9260     1.8402     2.0830 H       
  63 H63           -2.5804     2.9988     2.2071 H       
  64 H64           -3.6979     3.0776     0.8239 H       
@<TRIPOS>BOND
   1    1    2 1
   2    1    3 2
   3    1   20 1
   4    2   16 1
   5    2    5 1
   6    3    4 1
   7    3    7 1
   8    4    5 2
   9    5    6 1
  10    6   23 ar
  11    6   22 ar
  12    7    8 2
  13    7   10 am
  14    9   10 1
  15    9   11 1
  16    9   14 1
  17    9   34 1
  18   10   35 1
  19   11   12 1
  20   11   13 1
  21   11   21 1
  22   12   36 1
  23   12   37 1
  24   12   38 1
  25   13   39 1
  26   13   40 1
  27   13   41 1
  28   14   15 2
  29   14   29 1
  30   15   27 1
  31   16   17 1
  32   16   42 1
  33   16   43 1
  34   17   18 1
  35   17   44 1
  36   17   45 1
  37   18   19 1
  38   18   46 1
  39   18   47 1
  40   19   20 1
  41   19   33 1
  42   20   48 1
  43   20   49 1
  44   21   50 1
  45   21   51 1
  46   21   52 1
  47   22   26 ar
  48   22   53 1
  49   23   24 ar
  50   23   31 1
  51   24   25 ar
  52   24   54 1
  53   25   26 ar
  54   25   32 1
  55   26   55 1
  56   27   28 2
  57   27   30 1
  58   28   29 1
  59   30   56 1
  60   30   57 1
  61   30   58 1
  62   32   59 1
  63   32   60 1
  64   32   61 1
  65   33   62 1
  66   33   63 1
  67   33   64 1

#	End of record

