#	Name: ASD04881253
#	Creating user name:	WinNT
#	Creation time:	15. 06. 2019 20:53

#	Modifying user name:	WinNT
#	Modification time:	15. 06. 2019 20:53

#	Program:	/corina/corina34_cracker 3.40 0067  02.08.2006

@<TRIPOS>MOLECULE
ASD04881253
  81   84    0    0    0
SMALL
NO_CHARGES


@<TRIPOS>ATOM
   1 N1             1.6876     0.3344     1.6086 N.3     
   2 C2             2.2127     1.4205     0.7693 C.3     
   3 C3             3.0417     0.8250    -0.3711 C.3     
   4 N4             2.2014    -0.0869    -1.1597 N.3     
   5 C5             1.6764    -1.1730    -0.3205 C.3     
   6 C6             0.8473    -0.5775     0.8200 C.3     
   7 C7             2.9028    -0.5939    -2.2507 C.ar    
   8 C8             3.2098    -1.9484    -2.3100 C.ar    
   9 C9             3.9032    -2.4540    -3.3871 C.ar    
  10 C10            4.3010    -1.6058    -4.4243 C.ar    
  11 C11            3.9936    -0.2435    -4.3672 C.ar    
  12 C12            3.2921     0.2589    -3.2874 C.ar    
  13 N13            2.9767     1.6226    -3.2293 N.am    
  14 C14            3.8308     2.5340    -3.7356 C.2     
  15 C15            3.5506     3.9652    -3.5836 C.2     
  16 O16            4.8348     2.1690    -4.3190 O.2     
  17 O17            2.4801     4.5018    -2.9622 O.3     
  18 C18            2.5574     5.8378    -3.0175 C.2     
  19 C19            3.6847     6.1811    -3.6788 C.2     
  20 C20            4.3305     4.9886    -4.0411 C.2     
  21 C21            5.0447    -2.1475    -5.5775 C.2     
  22 O22            5.3903    -1.4088    -6.4794 O.2     
  23 N23            5.3410    -3.4612    -5.6314 N.am    
  24 C24            0.9841     0.8429     2.7029 C.ar    
  25 C25           -0.3882     0.6489     2.7995 C.ar    
  26 C26           -1.0805     1.1524     3.8829 C.ar    
  27 C27           -0.4094     1.8497     4.8710 C.ar    
  28 C28            0.9562     2.0446     4.7780 C.ar    
  29 C29            1.6558     1.5386     3.6998 C.ar    
  30 C30            3.1453     1.7462     3.6024 C.3     
  31 C31            6.0795    -3.9991    -6.7766 C.3     
  32 C32            6.2829    -5.5041    -6.5909 C.3     
  33 C33            7.0542    -6.0659    -7.7869 C.3     
  34 N34            7.2490    -7.5070    -7.6091 N.am    
  35 C35            7.9078    -8.2185    -8.5451 C.2     
  36 O36            8.3404    -7.6644    -9.5371 O.2     
  37 N37            8.0870    -9.5442    -8.3815 N.am    
  38 C38            8.8031   -10.3177    -9.3989 C.3     
  39 C39            9.4102   -11.5666    -8.7566 C.3     
  40 C40            7.8287   -10.7341   -10.5025 C.3     
  41 C41           10.4755   -11.1508    -7.7401 C.3     
  42 H42            1.3831     1.9935     0.3551 H       
  43 H43            2.8416     2.0749     1.3729 H       
  44 H44            3.4082     1.6272    -1.0116 H       
  45 H45            3.8868     0.2747     0.0425 H       
  46 H46            1.0474    -1.8274    -0.9240 H       
  47 H47            2.5059    -1.7460     0.0937 H       
  48 H48            0.4808    -1.3798     1.4605 H       
  49 H49            0.0023    -0.0272     0.4063 H       
  50 H50            2.9041    -2.6057    -1.5094 H       
  51 H51            4.1402    -3.5068    -3.4302 H       
  52 H52            4.2996     0.4144    -5.1672 H       
  53 H53            2.1436     1.9109    -2.8248 H       
  54 H54            1.8371     6.5272    -2.6025 H       
  55 H55            4.0265     7.1844    -3.8864 H       
  56 H56            5.2624     4.8980    -4.5793 H       
  57 H57            5.0652    -4.0505    -4.9120 H       
  58 H58           -0.9130     0.1051     2.0279 H       
  59 H59           -2.1473     1.0020     3.9586 H       
  60 H60           -0.9534     2.2432     5.7170 H       
  61 H61            1.4772     2.5896     5.5513 H       
  62 H62            3.3480     2.7166     3.1493 H       
  63 H63            3.5828     1.7125     4.6001 H       
  64 H64            3.5823     0.9595     2.9872 H       
  65 H65            5.5138    -3.8190    -7.6908 H       
  66 H66            7.0496    -3.5073    -6.8468 H       
  67 H67            6.8486    -5.6842    -5.6767 H       
  68 H68            5.3127    -5.9960    -6.5207 H       
  69 H69            6.4885    -5.8858    -8.7011 H       
  70 H70            8.0244    -5.5741    -7.8571 H       
  71 H71            6.9038    -7.9490    -6.8176 H       
  72 H72            7.7418    -9.9863    -7.5901 H       
  73 H73            9.5976    -9.7067    -9.8273 H       
  74 H74            8.6274   -12.1325    -8.2516 H       
  75 H75            9.8666   -12.1867    -9.5282 H       
  76 H76            8.3615   -11.3096   -11.2595 H       
  77 H77            7.0341   -11.3451   -10.0741 H       
  78 H78            7.3962    -9.8444   -10.9601 H       
  79 H79           11.2583   -10.5849    -8.2452 H       
  80 H80           10.0190   -10.5307    -6.9686 H       
  81 H81           10.9080   -12.0405    -7.2825 H       
@<TRIPOS>BOND
   1    1    2 1
   2    1    6 1
   3    1   24 1
   4    2    3 1
   5    2   42 1
   6    2   43 1
   7    3    4 1
   8    3   44 1
   9    3   45 1
  10    4    5 1
  11    4    7 1
  12    5    6 1
  13    5   46 1
  14    5   47 1
  15    6   48 1
  16    6   49 1
  17    7    8 ar
  18    7   12 ar
  19    8    9 ar
  20    8   50 1
  21    9   10 ar
  22    9   51 1
  23   10   11 ar
  24   10   21 1
  25   11   12 ar
  26   11   52 1
  27   12   13 1
  28   13   14 am
  29   13   53 1
  30   14   15 1
  31   14   16 2
  32   15   17 1
  33   15   20 2
  34   17   18 1
  35   18   19 2
  36   18   54 1
  37   19   20 1
  38   19   55 1
  39   20   56 1
  40   21   22 2
  41   21   23 am
  42   23   31 1
  43   23   57 1
  44   24   25 ar
  45   24   29 ar
  46   25   26 ar
  47   25   58 1
  48   26   27 ar
  49   26   59 1
  50   27   28 ar
  51   27   60 1
  52   28   29 ar
  53   28   61 1
  54   29   30 1
  55   30   62 1
  56   30   63 1
  57   30   64 1
  58   31   32 1
  59   31   65 1
  60   31   66 1
  61   32   33 1
  62   32   67 1
  63   32   68 1
  64   33   34 1
  65   33   69 1
  66   33   70 1
  67   34   35 am
  68   34   71 1
  69   35   36 2
  70   35   37 am
  71   37   38 1
  72   37   72 1
  73   38   39 1
  74   38   40 1
  75   38   73 1
  76   39   41 1
  77   39   74 1
  78   39   75 1
  79   40   76 1
  80   40   77 1
  81   40   78 1
  82   41   79 1
  83   41   80 1
  84   41   81 1

#	End of record

