#	Name: ASD08070352
#	Creating user name:	WinNT
#	Creation time:	15. 06. 2019 21:14

#	Modifying user name:	WinNT
#	Modification time:	15. 06. 2019 21:14

#	Program:	/corina/corina34_cracker 3.40 0067  02.08.2006

@<TRIPOS>MOLECULE
ASD08070352
  35   37    0    0    0
SMALL
NO_CHARGES


@<TRIPOS>ATOM
   1 C1            -0.0117     1.4599     0.0720 C.3     
   2 N2             0.0057    -0.0060     0.0394 N.am    
   3 C3             1.4139    -0.4146     0.0193 C.3     
   4 C4             2.2547     0.8368     0.0403 C.ar    
   5 C5             3.6279     1.0131     0.0330 C.ar    
   6 C6             4.1630     2.2865     0.0570 C.ar    
   7 C7             3.3263     3.3867     0.0878 C.ar    
   8 C8             1.9561     3.2114     0.0947 C.ar    
   9 C9             1.4191     1.9355     0.0712 C.ar    
  10 C10           -1.0672    -0.8216     0.0303 C.2     
  11 O11           -2.1883    -0.3516     0.0499 O.2     
  12 N12           -0.8972    -2.1583    -0.0006 N.am    
  13 C13           -2.0046    -3.0075     0.1115 C.ar    
  14 C14           -2.0238    -4.2188    -0.5675 C.ar    
  15 C15           -3.1171    -5.0548    -0.4549 C.ar    
  16 C16           -4.1933    -4.6862     0.3334 C.ar    
  17 C17           -4.1767    -3.4800     1.0109 C.ar    
  18 C18           -3.0830    -2.6427     0.9062 C.ar    
  19 C19           -0.8528    -4.6203    -1.4269 C.3     
  20 Cl20          -5.5667    -5.7390     0.4720 Cl      
  21 H21           -0.5287     1.8429    -0.8079 H       
  22 H22           -0.5147     1.8035     0.9759 H       
  23 H23            1.6346    -1.0228     0.8965 H       
  24 H24            1.6206    -0.9834    -0.8872 H       
  25 H25            4.2817     0.1538     0.0089 H       
  26 H26            5.2344     2.4224     0.0519 H       
  27 H27            3.7438     4.3826     0.1069 H       
  28 H28            1.3027     4.0710     0.1192 H       
  29 H29           -0.0077    -2.5319    -0.1005 H       
  30 H30           -3.1326    -5.9969    -0.9827 H       
  31 H31           -5.0179    -3.1945     1.6252 H       
  32 H32           -3.0685    -1.7032     1.4388 H       
  33 H33           -0.1347    -5.1774    -0.8252 H       
  34 H34           -1.2023    -5.2465    -2.2477 H       
  35 H35           -0.3744    -3.7274    -1.8293 H       
@<TRIPOS>BOND
   1    1    2 1
   2    1    9 1
   3    1   21 1
   4    1   22 1
   5    2    3 1
   6    2   10 am
   7    3    4 1
   8    3   23 1
   9    3   24 1
  10    4    5 ar
  11    4    9 ar
  12    5    6 ar
  13    5   25 1
  14    6    7 ar
  15    6   26 1
  16    7    8 ar
  17    7   27 1
  18    8    9 ar
  19    8   28 1
  20   10   11 2
  21   10   12 am
  22   12   13 1
  23   12   29 1
  24   13   14 ar
  25   13   18 ar
  26   14   15 ar
  27   14   19 1
  28   15   16 ar
  29   15   30 1
  30   16   17 ar
  31   16   20 1
  32   17   18 ar
  33   17   31 1
  34   18   32 1
  35   19   33 1
  36   19   34 1
  37   19   35 1

#	End of record

