#	Name: ASD02038622
#	Creating user name:	WinNT
#	Creation time:	15. 06. 2019 20:17

#	Modifying user name:	WinNT
#	Modification time:	15. 06. 2019 20:17

#	Program:	/corina/corina34_cracker 3.40 0067  02.08.2006

@<TRIPOS>MOLECULE
ASD02038622
  60   61    0    0    0
SMALL
NO_CHARGES


@<TRIPOS>ATOM
   1 C1             0.6997     0.3508    -0.7971 C.ar    
   2 C2             0.5752    -1.0269    -0.7337 C.ar    
   3 C3            -0.6768    -1.6048    -0.6358 C.ar    
   4 C4            -1.8094    -0.8021    -0.6010 C.ar    
   5 C5            -1.6809     0.5797    -0.6647 C.ar    
   6 C6            -0.4276     1.1522    -0.7572 C.ar    
   7 N7            -3.0764    -1.3834    -0.5025 N.pl3   
   8 C8            -4.2705    -0.5355    -0.4658 C.3     
   9 C9            -5.5175    -1.4151    -0.3565 C.3     
  10 N10           -5.3920    -2.2979     0.8060 N.am    
  11 C11           -6.0647    -3.4652     0.8414 C.2     
  12 C12           -5.9356    -4.3732     2.0372 C.3     
  13 C13           -6.7945    -5.6214     1.8248 C.3     
  14 C14           -6.6654    -6.5295     3.0206 C.ar    
  15 C15           -7.5355    -6.3940     4.0868 C.ar    
  16 C16           -5.6807    -7.5000     3.0467 C.ar    
  17 C17           -5.5596    -8.3338     4.1410 C.ar    
  18 C18           -6.4284    -8.1967     5.2162 C.ar    
  19 C19           -7.4200    -7.2244     5.1842 C.ar    
  20 N20           -6.3088    -9.0383     6.3245 N.am    
  21 S21           -5.0801    -8.8076     7.4105 S.o2    
  22 O22           -5.2849    -9.8159     8.3906 O.2     
  23 O23           -3.9050    -8.7902     6.6117 O.2     
  24 C24           -5.3978    -7.1649     8.1112 C.3     
  25 O25           -6.7738    -3.7850    -0.0890 O.2     
  26 Cl26           2.2731     1.0739    -0.9195 Cl      
  27 Cl27           1.9920    -2.0290    -0.7779 Cl      
  28 C28           -6.7540    -0.5290    -0.1928 C.3     
  29 C29           -8.0116    -1.4003    -0.2086 C.3     
  30 C30           -9.2480    -0.5142    -0.0450 C.3     
  31 C31          -10.5056    -1.3855    -0.0607 C.3     
  32 H32           -0.7740    -2.6793    -0.5867 H       
  33 H33           -2.5604     1.2059    -0.6382 H       
  34 H34           -0.3277     2.2265    -0.8064 H       
  35 H35           -3.1652    -2.3483    -0.4583 H       
  36 H36           -4.2179     0.1291     0.3965 H       
  37 H37           -4.3231     0.0576    -1.3789 H       
  38 H38           -5.6184    -2.0164    -1.2600 H       
  39 H39           -4.8248    -2.0421     1.5501 H       
  40 H40           -4.8929    -4.6663     2.1600 H       
  41 H41           -6.2729    -3.8477     2.9306 H       
  42 H42           -7.8372    -5.3284     1.7020 H       
  43 H43           -6.4572    -6.1470     0.9315 H       
  44 H44           -8.3060    -5.6376     4.0615 H       
  45 H45           -5.0058    -7.6063     2.2103 H       
  46 H46           -4.7906    -9.0918     4.1606 H       
  47 H47           -8.0969    -7.1149     6.0187 H       
  48 H48           -6.9454    -9.7579     6.4580 H       
  49 H49           -6.4095    -7.1318     8.5157 H       
  50 H50           -4.6813    -6.9649     8.9079 H       
  51 H51           -5.2936    -6.4107     7.3311 H       
  52 H52           -6.6946     0.0062     0.7549 H       
  53 H53           -6.7983     0.1878    -1.0128 H       
  54 H54           -8.0709    -1.9355    -1.1563 H       
  55 H55           -7.9672    -2.1172     0.6113 H       
  56 H56           -9.1887     0.0210     0.9028 H       
  57 H57           -9.2924     0.2027    -0.8649 H       
  58 H58          -11.3865    -0.7542     0.0559 H       
  59 H59          -10.5650    -1.9206    -1.0084 H       
  60 H60          -10.4613    -2.1023     0.7592 H       
@<TRIPOS>BOND
   1    1    2 ar
   2    1   26 1
   3    1    6 ar
   4    2    3 ar
   5    2   27 1
   6    3    4 ar
   7    3   32 1
   8    4    5 ar
   9    4    7 1
  10    5    6 ar
  11    5   33 1
  12    6   34 1
  13    7    8 1
  14    7   35 1
  15    8    9 1
  16    8   36 1
  17    8   37 1
  18    9   10 1
  19    9   28 1
  20    9   38 1
  21   10   11 am
  22   10   39 1
  23   11   12 1
  24   11   25 2
  25   12   13 1
  26   12   40 1
  27   12   41 1
  28   13   14 1
  29   13   42 1
  30   13   43 1
  31   14   15 ar
  32   14   16 ar
  33   15   19 ar
  34   15   44 1
  35   16   17 ar
  36   16   45 1
  37   17   18 ar
  38   17   46 1
  39   18   19 ar
  40   18   20 1
  41   19   47 1
  42   20   21 am
  43   20   48 1
  44   21   22 2
  45   21   23 2
  46   21   24 1
  47   24   49 1
  48   24   50 1
  49   24   51 1
  50   28   29 1
  51   28   52 1
  52   28   53 1
  53   29   30 1
  54   29   54 1
  55   29   55 1
  56   30   31 1
  57   30   56 1
  58   30   57 1
  59   31   58 1
  60   31   59 1
  61   31   60 1

#	End of record

