#	Name: ASD02500438
#	Creating user name:	WinNT
#	Creation time:	15. 06. 2019 20:22

#	Modifying user name:	WinNT
#	Modification time:	15. 06. 2019 20:22

#	Program:	/corina/corina34_cracker 3.40 0067  02.08.2006

@<TRIPOS>MOLECULE
ASD02500438
  68   72    0    0    0
SMALL
NO_CHARGES


@<TRIPOS>ATOM
   1 C1             0.3729     0.2967    -0.9908 C.2     
   2 C2             0.7634    -1.1570    -0.9169 C.3     
   3 O3            -0.5009     0.6519    -1.7533 O.2     
   4 N4             0.9908     1.2012    -0.2056 N.am    
   5 C5             0.6896     2.5616    -0.3348 C.ar    
   6 C6            -0.6007     2.9610    -0.6575 C.ar    
   7 C7            -0.8947     4.3045    -0.7844 C.ar    
   8 C8             0.0942     5.2515    -0.5905 C.ar    
   9 C9             1.3801     4.8570    -0.2695 C.ar    
  10 C10            1.6791     3.5153    -0.1351 C.ar    
  11 C11           -0.2302     6.7166    -0.7297 C.3     
  12 N12           -0.6545     7.2500     0.5716 N.3     
  13 C13           -0.7509     8.7153     0.5338 C.3     
  14 C14           -1.3665     9.2174     1.8442 C.3     
  15 N15           -0.5852     8.6742     2.9657 N.am    
  16 C16           -0.3291     7.2263     2.9987 C.3     
  17 C17            0.2457     6.8026     1.6428 C.3     
  18 C18           -0.1167     9.4819     3.9377 C.2     
  19 C19            0.5625     8.9044     5.1130 C.ar    
  20 C20            1.6091     9.5977     5.7280 C.ar    
  21 C21            2.2407     9.0563     6.8242 C.ar    
  22 C22            1.8384     7.8195     7.3208 C.ar    
  23 C23            0.7968     7.1264     6.7103 C.ar    
  24 C24            0.1571     7.6653     5.6176 C.ar    
  25 O25           -0.2538    10.6866     3.8458 O.2     
  26 S26            1.5885     6.5950     9.6481 S.o2    
  27 O27            0.6894     5.6851     9.0293 O.2     
  28 O28            2.5149     6.2092    10.6541 O.2     
  29 N29            2.4787     7.2751     8.4286 N.am    
  30 N30            2.5372     9.0386    11.1154 N.ar    
  31 C31            3.1097    10.0458    11.7285 C.ar    
  32 C32            2.3651    11.0778    12.2961 C.ar    
  33 C33            1.0016    11.0559    12.2207 C.ar    
  34 C34            0.3902     9.9728    11.5611 C.ar    
  35 C35           -1.0058     9.8816    11.4443 C.ar    
  36 C36           -1.5590     8.8177    10.7990 C.ar    
  37 C37           -0.7577     7.8180    10.2518 C.ar    
  38 C38            0.5988     7.8742    10.3474 C.ar    
  39 C39            1.2073     8.9564    11.0064 C.ar    
  40 H40            1.5601    -1.3560    -1.6336 H       
  41 H41            1.1135    -1.3884     0.0891 H       
  42 H42           -0.1009    -1.7778    -1.1526 H       
  43 H43            1.6443     0.9092     0.4491 H       
  44 H44           -1.3733     2.2219    -0.8094 H       
  45 H45           -1.8979     4.6158    -1.0356 H       
  46 H46            2.1502     5.5990    -0.1191 H       
  47 H47            2.6825     3.2080     0.1203 H       
  48 H48            0.6546     7.2537    -1.0715 H       
  49 H49           -1.0346     6.8434    -1.4541 H       
  50 H50            0.2446     9.1423     0.4126 H       
  51 H51           -1.3809     9.0169    -0.3030 H       
  52 H52           -1.3353    10.3066     1.8698 H       
  53 H53           -2.3991     8.8760     1.9181 H       
  54 H54            0.3881     6.9992     3.7875 H       
  55 H55           -1.2619     6.6936     3.1835 H       
  56 H56            0.3385     5.7171     1.6103 H       
  57 H57            1.2273     7.2563     1.5061 H       
  58 H58            1.9219    10.5570     5.3430 H       
  59 H59            3.0496     9.5913     7.2995 H       
  60 H60            0.4875     6.1668     7.0974 H       
  61 H61           -0.6543     7.1295     5.1475 H       
  62 H62            3.4467     7.2938     8.4870 H       
  63 H63            4.1871    10.0765    11.7959 H       
  64 H64            2.8657    11.8941    12.7955 H       
  65 H65            0.4089    11.8472    12.6553 H       
  66 H66           -1.6373    10.6505    11.8642 H       
  67 H67           -2.6330     8.7483    10.7097 H       
  68 H68           -1.2205     6.9839     9.7454 H       
@<TRIPOS>BOND
   1    1    2 1
   2    1    3 2
   3    1    4 am
   4    2   40 1
   5    2   41 1
   6    2   42 1
   7    4    5 1
   8    4   43 1
   9    5    6 ar
  10    5   10 ar
  11    6    7 ar
  12    6   44 1
  13    7    8 ar
  14    7   45 1
  15    8    9 ar
  16    8   11 1
  17    9   10 ar
  18    9   46 1
  19   10   47 1
  20   11   12 1
  21   11   48 1
  22   11   49 1
  23   12   13 1
  24   12   17 1
  25   13   14 1
  26   13   50 1
  27   13   51 1
  28   14   15 1
  29   14   52 1
  30   14   53 1
  31   15   16 1
  32   15   18 am
  33   16   17 1
  34   16   54 1
  35   16   55 1
  36   17   56 1
  37   17   57 1
  38   18   19 1
  39   18   25 2
  40   19   20 ar
  41   19   24 ar
  42   20   21 ar
  43   20   58 1
  44   21   22 ar
  45   21   59 1
  46   22   23 ar
  47   22   29 1
  48   23   24 ar
  49   23   60 1
  50   24   61 1
  51   26   27 2
  52   26   28 2
  53   26   29 am
  54   26   38 1
  55   29   62 1
  56   30   31 ar
  57   30   39 ar
  58   31   32 ar
  59   31   63 1
  60   32   33 ar
  61   32   64 1
  62   33   34 ar
  63   33   65 1
  64   34   35 ar
  65   34   39 ar
  66   35   36 ar
  67   35   66 1
  68   36   37 ar
  69   36   67 1
  70   37   38 ar
  71   37   68 1
  72   38   39 ar

#	End of record

