#	Name: ASD01810489
#	Creating user name:	WinNT
#	Creation time:	15. 06. 2019 19:24

#	Modifying user name:	WinNT
#	Modification time:	15. 06. 2019 19:24

#	Program:	/corina/corina34_cracker 3.40 0067  02.08.2006

@<TRIPOS>MOLECULE
ASD01810489
  47   50    0    0    0
SMALL
NO_CHARGES


@<TRIPOS>ATOM
   1 C1            -0.0167     1.3786     0.0096 C.ar    
   2 C2             0.0021    -0.0041     0.0020 C.ar    
   3 C3            -1.1837    -0.7122     0.0091 C.ar    
   4 C4            -2.3953    -0.0345     0.0243 C.ar    
   5 C5            -2.4109     1.3538     0.0324 C.ar    
   6 C6            -1.2218     2.0564     0.0305 C.ar    
   7 C7             1.2789     2.1483     0.0014 C.3     
   8 N8             1.6856     2.4051    -1.3824 N.pl3   
   9 N9            -3.6005    -0.7504     0.0310 N.pl3   
  10 C10            1.2507     3.5612    -1.9942 C.ar    
  11 C11            2.4684     1.5091    -1.9974 C.2     
  12 C12            2.8957     1.6766    -3.2989 C.2     
  13 C13            2.4763     2.8801    -4.0359 C.2     
  14 C14            1.6198     3.8428    -3.3210 C.ar    
  15 C15            1.1737     5.0125    -3.9411 C.ar    
  16 C16            0.3722     5.8916    -3.2398 C.ar    
  17 C17            0.0130     5.6160    -1.9296 C.ar    
  18 C18            0.4429     4.4631    -1.3080 C.ar    
  19 F19            1.5243     5.2820    -5.2176 F       
  20 O20            2.8269     3.0745    -5.1866 O.2     
  21 C21            3.7553     0.6706    -3.9384 C.2     
  22 O22            4.0959    -0.3193    -3.3203 O.2     
  23 O23            4.1661     0.8455    -5.2103 O.3     
  24 C24           -4.8430    -0.2170     0.0456 C.2     
  25 C25           -5.7299    -1.2391     0.0476 C.2     
  26 C26           -5.0068    -2.4369     0.0338 C.2     
  27 N27           -3.7311    -2.1451     0.0177 N.2     
  28 C28           -7.2313    -1.1100     0.0622 C.3     
  29 C29           -7.7526    -1.0577    -1.3753 C.3     
  30 H30            0.9449    -0.5307    -0.0098 H       
  31 H31           -1.1685    -1.7921     0.0024 H       
  32 H32           -3.3519     1.8837     0.0438 H       
  33 H33           -1.2333     3.1363     0.0368 H       
  34 H34            1.1417     3.0962     0.5216 H       
  35 H35            2.0507     1.5659     0.5047 H       
  36 H36            2.7760     0.6263    -1.4565 H       
  37 H37            0.0243     6.7975    -3.7138 H       
  38 H38           -0.6137     6.3111    -1.3906 H       
  39 H39            0.1549     4.2610    -0.2869 H       
  40 H40            4.7302     0.1569    -5.5881 H       
  41 H41           -5.0843     0.8357     0.0547 H       
  42 H42           -5.4288    -3.4310     0.0320 H       
  43 H43           -7.6648    -1.9687     0.5748 H       
  44 H44           -7.5123    -0.1953     0.5841 H       
  45 H45           -7.4716    -1.9724    -1.8973 H       
  46 H46           -8.8386    -0.9643    -1.3648 H       
  47 H47           -7.3191    -0.1990    -1.8880 H       
@<TRIPOS>BOND
   1    1    2 ar
   2    1    7 1
   3    1    6 ar
   4    2    3 ar
   5    2   30 1
   6    3    4 ar
   7    3   31 1
   8    4    5 ar
   9    4    9 1
  10    5    6 ar
  11    5   32 1
  12    6   33 1
  13    7    8 1
  14    7   34 1
  15    7   35 1
  16    8   10 1
  17    8   11 1
  18    9   24 1
  19    9   27 1
  20   10   14 ar
  21   10   18 ar
  22   11   12 2
  23   11   36 1
  24   12   13 1
  25   12   21 1
  26   13   14 1
  27   13   20 2
  28   14   15 ar
  29   15   16 ar
  30   15   19 1
  31   16   17 ar
  32   16   37 1
  33   17   18 ar
  34   17   38 1
  35   18   39 1
  36   21   22 2
  37   21   23 1
  38   23   40 1
  39   24   25 2
  40   24   41 1
  41   25   26 1
  42   25   28 1
  43   26   27 2
  44   26   42 1
  45   28   29 1
  46   28   43 1
  47   28   44 1
  48   29   45 1
  49   29   46 1
  50   29   47 1

#	End of record

