#	Name: ASD08150627
#	Creating user name:	WinNT
#	Creation time:	15. 06. 2019 21:16

#	Modifying user name:	WinNT
#	Modification time:	15. 06. 2019 21:16

#	Program:	/corina/corina34_cracker 3.40 0067  02.08.2006

@<TRIPOS>MOLECULE
ASD08150627
  69   74    0    0    0
SMALL
NO_CHARGES


@<TRIPOS>ATOM
   1 N1             1.4887     3.8476     0.9100 N.am    
   2 C2             2.0595     3.4027     2.0463 C.2     
   3 C3             3.2673     2.6766     2.0132 C.2     
   4 C4             3.8746     2.4147     0.8277 C.2     
   5 C5             3.2767     2.8808    -0.3696 C.ar    
   6 C6             3.8648     2.6362    -1.6254 C.ar    
   7 N7             3.3109     3.0674    -2.7283 N.ar    
   8 C8             2.1620     3.7606    -2.7310 C.ar    
   9 C9             1.5001     4.0525    -1.5131 C.ar    
  10 C10            2.0739     3.6008    -0.3015 C.ar    
  11 C11            0.3037     4.7765    -1.5268 C.ar    
  12 C12           -0.2224     5.2015    -2.7353 C.ar    
  13 C13            0.4379     4.9090    -3.9362 C.ar    
  14 C14            1.6020     4.2054    -3.9396 C.ar    
  15 O15            1.5245     3.6314     3.1178 O.2     
  16 C16           -1.4922     5.9701    -2.7587 C.2     
  17 C17            0.2851     4.5624     0.9692 C.ar    
  18 C18            0.2975     5.9499     0.9025 C.ar    
  19 C19           -0.8879     6.6541     0.9607 C.ar    
  20 C20           -2.0938     5.9753     1.0856 C.ar    
  21 C21           -2.1060     4.5880     1.1518 C.ar    
  22 C22           -0.9204     3.8836     1.0886 C.ar    
  23 N23           -3.2946     6.6886     1.1450 N.3     
  24 C24           -3.9384     6.7466    -0.1741 C.3     
  25 C25           -5.3292     7.3743    -0.0330 C.3     
  26 N26           -5.1899     8.6702     0.6485 N.am    
  27 C27           -4.4364     8.7152     1.9109 C.3     
  28 C28           -3.0808     8.0347     1.6932 C.3     
  29 C29           -5.7384     9.7869     0.1302 C.2     
  30 C30           -5.5834    11.1044     0.8451 C.3     
  31 O31           -6.3568     9.7314    -0.9117 O.2     
  32 C32           -6.2945    12.2021     0.0514 C.3     
  33 C33           -1.6966     7.1711    -3.3732 C.2     
  34 N34           -2.9797     7.5259    -3.1586 N.pl3   
  35 N35           -3.5887     6.5239    -2.3935 N.2     
  36 C36           -2.7070     5.5893    -2.1557 C.2     
  37 C37           -3.4137     3.8515     1.2878 C.3     
  38 F38           -3.1638     2.4877     1.4736 F       
  39 F39           -4.1178     4.3509     2.3887 F       
  40 F40           -4.1737     4.0324     0.1272 F       
  41 O41           -6.1475    13.4515     0.7293 O.3     
  42 C42           -6.7788    14.5496     0.0677 C.3     
  43 H43            3.7110     2.3278     2.9340 H       
  44 H44            4.8004     1.8594     0.7975 H       
  45 H45            4.7905     2.0825    -1.6784 H       
  46 H46           -0.2063     5.0022    -0.6020 H       
  47 H47            0.0164     5.2461    -4.8717 H       
  48 H48            2.0977     3.9892    -4.8744 H       
  49 H49            1.2348     6.4775     0.8054 H       
  50 H50           -0.8782     7.7329     0.9096 H       
  51 H51           -0.9302     2.8047     1.1363 H       
  52 H52           -3.3327     7.3522    -0.8482 H       
  53 H53           -4.0337     5.7382    -0.5769 H       
  54 H54           -5.7649     7.5250    -1.0207 H       
  55 H55           -5.9692     6.7176     0.5564 H       
  56 H56           -4.2819     9.7524     2.2083 H       
  57 H57           -4.9906     8.1874     2.6870 H       
  58 H58           -2.5541     7.9605     2.6446 H       
  59 H59           -2.4870     8.6224     0.9931 H       
  60 H60           -6.0235    11.0320     1.8397 H       
  61 H61           -4.5245    11.3476     0.9331 H       
  62 H62           -5.8545    12.2745    -0.9432 H       
  63 H63           -7.3534    11.9589    -0.0367 H       
  64 H64           -0.9634     7.7356    -3.9300 H       
  65 H65           -3.4070     8.3357    -3.4789 H       
  66 H66           -2.8780     4.6854    -1.5900 H       
  67 H67           -6.3488    14.6706    -0.9265 H       
  68 H68           -7.8477    14.3551    -0.0200 H       
  69 H69           -6.6215    15.4607     0.6450 H       
@<TRIPOS>BOND
   1    1    2 am
   2    1   10 1
   3    1   17 1
   4    2    3 1
   5    2   15 2
   6    3    4 2
   7    3   43 1
   8    4    5 1
   9    4   44 1
  10    5    6 ar
  11    5   10 ar
  12    6    7 ar
  13    6   45 1
  14    7    8 ar
  15    8    9 ar
  16    8   14 ar
  17    9   10 ar
  18    9   11 ar
  19   11   12 ar
  20   11   46 1
  21   12   13 ar
  22   12   16 1
  23   13   14 ar
  24   13   47 1
  25   14   48 1
  26   16   33 2
  27   16   36 1
  28   17   18 ar
  29   17   22 ar
  30   18   19 ar
  31   18   49 1
  32   19   20 ar
  33   19   50 1
  34   20   21 ar
  35   20   23 1
  36   21   22 ar
  37   21   37 1
  38   22   51 1
  39   23   24 1
  40   23   28 1
  41   24   25 1
  42   24   52 1
  43   24   53 1
  44   25   26 1
  45   25   54 1
  46   25   55 1
  47   26   27 1
  48   26   29 am
  49   27   28 1
  50   27   56 1
  51   27   57 1
  52   28   58 1
  53   28   59 1
  54   29   30 1
  55   29   31 2
  56   30   32 1
  57   30   60 1
  58   30   61 1
  59   32   41 1
  60   32   62 1
  61   32   63 1
  62   33   34 1
  63   33   64 1
  64   34   35 1
  65   34   65 1
  66   35   36 2
  67   36   66 1
  68   37   38 1
  69   37   39 1
  70   37   40 1
  71   41   42 1
  72   42   67 1
  73   42   68 1
  74   42   69 1

#	End of record

