#	Name: ASD06620045
#	Creating user name:	WinNT
#	Creation time:	15. 06. 2019 21:07

#	Modifying user name:	WinNT
#	Modification time:	15. 06. 2019 21:07

#	Program:	/corina/corina34_cracker 3.40 0067  02.08.2006

@<TRIPOS>MOLECULE
ASD06620045
  52   56    0    0    0
SMALL
NO_CHARGES


@<TRIPOS>ATOM
   1 C1            -0.0257     1.3496    -0.0280 C.ar    
   2 C2            -0.0177    -0.0341    -0.0489 C.ar    
   3 C3             1.2098    -0.7066    -0.0791 C.ar    
   4 C4             2.3782     0.0448    -0.0870 C.ar    
   5 C5             2.2837     1.4219    -0.0648 C.ar    
   6 N6             1.1089     2.0241    -0.0365 N.ar    
   7 C7            -0.4115    -2.2187    -0.0752 C.2     
   8 N8            -1.0084    -1.0112    -0.0473 N.am    
   9 N9             0.9265    -2.0631    -0.0948 N.am    
  10 O10           -0.9927    -3.2876    -0.0810 O.2     
  11 C11           -2.4529    -0.7686    -0.0195 C.3     
  12 C12           -3.7969    -1.2139    -3.3641 C.2     
  13 C13           -4.3313    -1.8690    -4.4876 C.2     
  14 C14           -4.6302    -1.1464    -5.6042 C.2     
  15 C15           -4.4012     0.2365    -5.6168 C.2     
  16 C16           -3.8864     0.8494    -4.5264 C.2     
  17 N17           -3.5853     0.1361    -3.4080 N.pl3   
  18 N18           -3.4172    -1.6661    -2.1698 N.2     
  19 C19           -2.9719    -0.6637    -1.4304 C.2     
  20 C20           -3.0610     0.5018    -2.1814 C.2     
  21 C21           -2.6883     1.7996    -1.7749 C.2     
  22 C22            1.9145    -3.1444    -0.1280 C.3     
  23 C23            1.9099    -4.1413     1.0327 C.3     
  24 C24            1.3968    -4.5678    -0.3442 C.3     
  25 C25           -1.8835     2.5566    -2.5691 C.2     
  26 C26           -1.5107     3.8548    -2.1624 C.2     
  27 N27           -0.6297     4.5637    -2.8956 N.am    
  28 O28           -1.9852     4.3352    -1.1481 O.2     
  29 C29           -0.3339     5.9543    -2.5421 C.3     
  30 C30            0.0322     3.9437    -4.0461 C.3     
  31 H31           -0.9658     1.8808    -0.0092 H       
  32 H32            3.3432    -0.4397    -0.1098 H       
  33 H33            3.1854     2.0164    -0.0704 H       
  34 H34           -2.9502    -1.5938     0.4902 H       
  35 H35           -2.6549     0.1613     0.5120 H       
  36 H36           -4.5030    -2.9351    -4.4662 H       
  37 H37           -5.0409    -1.6368    -6.4745 H       
  38 H38           -4.6359     0.8136    -6.4990 H       
  39 H39           -3.7126     1.9152    -4.5440 H       
  40 H40           -3.0417     2.1928    -0.8331 H       
  41 H41            2.8786    -2.8870    -0.5666 H       
  42 H42            2.8710    -4.5401     1.3574 H       
  43 H43            1.1719    -3.9926     1.8209 H       
  44 H44            0.3213    -4.6998    -0.4617 H       
  45 H45            2.0204    -5.2472    -0.9253 H       
  46 H46           -1.5301     2.1634    -3.5108 H       
  47 H47            0.5028     5.9817    -1.8442 H       
  48 H48           -0.0743     6.5108    -3.4427 H       
  49 H49           -1.2104     6.4051    -2.0765 H       
  50 H50           -0.2384     2.8890    -4.0962 H       
  51 H51           -0.2851     4.4441    -4.9610 H       
  52 H52            1.1128     4.0367    -3.9372 H       
@<TRIPOS>BOND
   1    1    2 ar
   2    1    6 ar
   3    1   31 1
   4    2    3 ar
   5    2    8 1
   6    3    4 ar
   7    3    9 1
   8    4    5 ar
   9    4   32 1
  10    5    6 ar
  11    5   33 1
  12    7    8 am
  13    7    9 am
  14    7   10 2
  15    8   11 1
  16    9   22 1
  17   11   19 1
  18   11   34 1
  19   11   35 1
  20   12   13 1
  21   12   17 1
  22   12   18 2
  23   13   14 2
  24   13   36 1
  25   14   15 1
  26   14   37 1
  27   15   16 2
  28   15   38 1
  29   16   17 1
  30   16   39 1
  31   17   20 1
  32   18   19 1
  33   19   20 2
  34   20   21 1
  35   21   25 2
  36   21   40 1
  37   22   23 1
  38   22   24 1
  39   22   41 1
  40   23   24 1
  41   23   42 1
  42   23   43 1
  43   24   44 1
  44   24   45 1
  45   25   26 1
  46   25   46 1
  47   26   27 am
  48   26   28 2
  49   27   29 1
  50   27   30 1
  51   29   47 1
  52   29   48 1
  53   29   49 1
  54   30   50 1
  55   30   51 1
  56   30   52 1

#	End of record

