#	Name: ASD01917899
#	Creating user name:	WinNT
#	Creation time:	15. 06. 2019 20:10

#	Modifying user name:	WinNT
#	Modification time:	15. 06. 2019 20:10

#	Program:	/corina/corina34_cracker 3.40 0067  02.08.2006

@<TRIPOS>MOLECULE
ASD01917899
  41   44    0    0    0
SMALL
NO_CHARGES


@<TRIPOS>ATOM
   1 C1            -0.0138     1.3190    -0.0041 C.2     
   2 C2            -0.0103    -0.0278     0.0051 C.2     
   3 C3            -1.2498    -0.8859     0.0244 C.3     
   4 C4            -2.4380    -0.0295     0.4798 C.3     
   5 N5            -2.4045     1.2579    -0.2303 N.am    
   6 C6            -1.2654     2.1614     0.0139 C.3     
   7 C7            -3.3897     1.6029    -1.0828 C.2     
   8 O8            -4.2642     0.8040    -1.3564 O.2     
   9 O9             1.2628     1.7242    -0.0254 O.3     
  10 C10            2.0354     0.6264    -0.0256 C.2     
  11 N11            1.2680    -0.4289    -0.0068 N.2     
  12 C12            3.5423     0.6146    -0.0450 C.3     
  13 O13            4.0012     0.5995    -1.3982 O.3     
  14 C14            5.3438     0.5875    -1.5932 C.ar    
  15 N15            6.1658     0.5900    -0.5539 N.ar    
  16 C16            7.4739     0.5783    -0.7471 C.ar    
  17 C17            7.9843     0.5635    -2.0312 C.ar    
  18 N18            7.1671     0.5609    -3.0708 N.ar    
  19 C19            5.8605     0.5667    -2.8846 C.ar    
  20 C20           -3.4069     2.9519    -1.6847 C.ar    
  21 C21           -3.8642     3.1300    -2.9922 C.ar    
  22 C22           -3.8780     4.3908    -3.5490 C.ar    
  23 C23           -3.4390     5.4811    -2.8134 C.ar    
  24 C24           -2.9836     5.3098    -1.5150 C.ar    
  25 C25           -2.9713     4.0543    -0.9464 C.ar    
  26 F26           -3.4547     6.7147    -3.3639 F       
  27 H27           -1.4412    -1.2736    -0.9761 H       
  28 H28           -1.1096    -1.7145     0.7186 H       
  29 H29           -3.3693    -0.5476     0.2511 H       
  30 H30           -2.3711     0.1448     1.5536 H       
  31 H31           -1.3748     2.6418     0.9862 H       
  32 H32           -1.2160     2.9165    -0.7706 H       
  33 H33            3.9191     1.5060     0.4566 H       
  34 H34            3.9053    -0.2738     0.4717 H       
  35 H35            8.1442     0.5807     0.0997 H       
  36 H36            9.0531     0.5543    -2.1861 H       
  37 H37            5.1934     0.5643    -3.7339 H       
  38 H38           -4.2060     2.2814    -3.5661 H       
  39 H39           -4.2311     4.5296    -4.5601 H       
  40 H40           -2.6424     6.1624    -0.9466 H       
  41 H41           -2.6167     3.9220     0.0651 H       
@<TRIPOS>BOND
   1    1    2 2
   2    1    9 1
   3    1    6 1
   4    2    3 1
   5    2   11 1
   6    3    4 1
   7    3   27 1
   8    3   28 1
   9    4    5 1
  10    4   29 1
  11    4   30 1
  12    5    6 1
  13    5    7 am
  14    6   31 1
  15    6   32 1
  16    7    8 2
  17    7   20 1
  18    9   10 1
  19   10   11 2
  20   10   12 1
  21   12   13 1
  22   12   33 1
  23   12   34 1
  24   13   14 1
  25   14   15 ar
  26   14   19 ar
  27   15   16 ar
  28   16   17 ar
  29   16   35 1
  30   17   18 ar
  31   17   36 1
  32   18   19 ar
  33   19   37 1
  34   20   21 ar
  35   20   25 ar
  36   21   22 ar
  37   21   38 1
  38   22   23 ar
  39   22   39 1
  40   23   24 ar
  41   23   26 1
  42   24   25 ar
  43   24   40 1
  44   25   41 1

#	End of record

