#	Name: ASD01812551
#	Creating user name:	WinNT
#	Creation time:	15. 06. 2019 19:28

#	Modifying user name:	WinNT
#	Modification time:	15. 06. 2019 19:28

#	Program:	/corina/corina34_cracker 3.40 0067  02.08.2006

@<TRIPOS>MOLECULE
ASD01812551
  61   64    0    0    0
SMALL
NO_CHARGES


@<TRIPOS>ATOM
   1 C1            -0.9126     3.7010    -4.5346 C.3     
   2 C2            -2.1204     2.9887    -5.0867 C.2     
   3 O3            -3.1971     3.5466    -5.1063 O.2     
   4 N4            -2.0040     1.7317    -5.5588 N.am    
   5 C5            -0.6938     1.0634    -5.6465 C.3     
   6 C6            -0.7351    -0.1725    -4.7438 C.3     
   7 C7            -2.0110    -0.9318    -4.9548 C.2     
   8 C8            -2.0529    -2.3697    -4.5055 C.3     
   9 C9            -1.4969    -3.2522    -5.5932 C.ar    
  10 C10           -1.1579    -2.7205    -6.8248 C.ar    
  11 C11           -0.6465    -3.5701    -7.8034 C.ar    
  12 N12           -0.4930    -4.8613    -7.5556 N.ar    
  13 C13           -0.8111    -5.4012    -6.3899 C.ar    
  14 C14           -0.6076    -6.8865    -6.2322 C.3     
  15 C15           -0.5918    -7.2722    -4.7547 C.3     
  16 C16           -1.8388    -6.6830    -4.0853 C.3     
  17 C17           -1.6798    -5.1650    -4.0216 C.3     
  18 C18           -1.3110    -4.6135    -5.3727 C.ar    
  19 C19           -0.2726    -3.0252    -9.1296 C.2     
  20 O20           -0.4124    -1.8405    -9.3610 O.2     
  21 N21            0.2225    -3.8435   -10.0791 N.am    
  22 C22            0.5921    -3.3047   -11.3904 C.3     
  23 H23           -0.0963    -2.5048   -11.6631 H       
  24 C24            2.0205    -2.7546   -11.3342 C.3     
  25 C25            2.4260    -2.2659   -12.7272 C.3     
  26 O26            2.3134    -3.3428   -13.6598 O.3     
  27 C27            0.9900    -3.8663   -13.7895 C.3     
  28 C28            0.5247    -4.4187   -12.4396 C.3     
  29 H29            1.1747    -5.2409   -12.1402 H       
  30 O30           -0.8203    -4.8883   -12.5518 O.3     
  31 C31           -3.0791    -0.4390    -5.4953 C.2     
  32 C32           -3.1799     0.9685    -6.0017 C.3     
  33 H33           -0.7755     3.4265    -3.4887 H       
  34 H34           -0.0291     3.4134    -5.1045 H       
  35 H35           -1.0596     4.7783    -4.6112 H       
  36 H36           -0.5018     0.7618    -6.6762 H       
  37 H37            0.0895     1.7415    -5.3079 H       
  38 H38            0.1115    -0.8181    -4.9775 H       
  39 H39           -0.6696     0.1399    -3.7016 H       
  40 H40           -1.4542    -2.4856    -3.6021 H       
  41 H41           -3.0840    -2.6554    -4.2974 H       
  42 H42           -1.2876    -1.6669    -7.0238 H       
  43 H43           -1.4183    -7.4156    -6.7331 H       
  44 H44            0.3413    -7.1697    -6.6878 H       
  45 H45           -0.6034    -8.3580    -4.6594 H       
  46 H46            0.3033    -6.8695    -4.2805 H       
  47 H47           -2.7233    -6.9351    -4.6703 H       
  48 H48           -1.9385    -7.0843    -3.0768 H       
  49 H49           -2.6180    -4.7187    -3.6919 H       
  50 H50           -0.8936    -4.9155    -3.3090 H       
  51 H51            0.3341    -4.7892    -9.8944 H       
  52 H52            2.0634    -1.9237   -10.6299 H       
  53 H53            2.7017    -3.5421   -11.0118 H       
  54 H54            1.7695    -1.4510   -13.0319 H       
  55 H55            3.4569    -1.9126   -12.7027 H       
  56 H56            0.3147    -3.0723   -14.1082 H       
  57 H57            0.9864    -4.6659   -14.5303 H       
  58 H58           -0.9369    -5.5963   -13.2001 H       
  59 H59           -3.9466    -1.0763    -5.5834 H       
  60 H60           -4.0844     1.4325    -5.6085 H       
  61 H61           -3.2184     0.9585    -7.0910 H       
@<TRIPOS>BOND
   1    1    2 1
   2    1   33 1
   3    1   34 1
   4    1   35 1
   5    2    3 2
   6    2    4 am
   7    4   32 1
   8    4    5 1
   9    5    6 1
  10    5   36 1
  11    5   37 1
  12    6    7 1
  13    6   38 1
  14    6   39 1
  15    7    8 1
  16    7   31 2
  17    8    9 1
  18    8   40 1
  19    8   41 1
  20    9   18 ar
  21    9   10 ar
  22   10   11 ar
  23   10   42 1
  24   11   12 ar
  25   11   19 1
  26   12   13 ar
  27   13   18 ar
  28   13   14 1
  29   14   15 1
  30   14   43 1
  31   14   44 1
  32   15   16 1
  33   15   45 1
  34   15   46 1
  35   16   17 1
  36   16   47 1
  37   16   48 1
  38   17   18 1
  39   17   49 1
  40   17   50 1
  41   19   20 2
  42   19   21 am
  43   21   22 1
  44   21   51 1
  45   22   23 1
  46   22   28 1
  47   22   24 1
  48   24   25 1
  49   24   52 1
  50   24   53 1
  51   25   26 1
  52   25   54 1
  53   25   55 1
  54   26   27 1
  55   27   28 1
  56   27   56 1
  57   27   57 1
  58   28   29 1
  59   28   30 1
  60   30   58 1
  61   31   32 1
  62   31   59 1
  63   32   60 1
  64   32   61 1

#	End of record

