#	Name: ASD08150562
#	Creating user name:	WinNT
#	Creation time:	15. 06. 2019 21:16

#	Modifying user name:	WinNT
#	Modification time:	15. 06. 2019 21:16

#	Program:	/corina/corina34_cracker 3.40 0067  02.08.2006

@<TRIPOS>MOLECULE
ASD08150562
  71   77    0    0    0
SMALL
NO_CHARGES


@<TRIPOS>ATOM
   1 N1             0.0809     1.3854     2.2259 N.am    
   2 C2             0.2617     0.2636     2.9496 C.2     
   3 C3             1.4829    -0.4391     2.9025 C.2     
   4 C4             2.4989     0.0085     2.1217 C.2     
   5 C5             2.3121     1.1882     1.3585 C.ar    
   6 C6             3.3332     1.6950     0.5322 C.ar    
   7 N7             3.1583     2.7835    -0.1708 N.ar    
   8 C8             2.0090     3.4752    -0.1483 C.ar    
   9 C9             0.9268     3.0382     0.6549 C.ar    
  10 C10            1.0842     1.8642     1.4283 C.ar    
  11 C11           -0.3774     4.9124    -0.0996 C.ar    
  12 C12            0.6975     5.3380    -0.8927 C.ar    
  13 C13            1.8645     4.6402    -0.9195 C.ar    
  14 O14           -0.6429    -0.1492     3.6551 O.2     
  15 C15           -1.1430     2.0621     2.2857 C.ar    
  16 C16           -2.2352     1.5892     1.5705 C.ar    
  17 C17           -3.4415     2.2593     1.6316 C.ar    
  18 C18           -3.5620     3.4000     2.4037 C.ar    
  19 C19           -2.4759     3.8738     3.1169 C.ar    
  20 C20           -1.2690     3.2048     3.0653 C.ar    
  21 C21           -0.2664     3.7669     0.6720 C.ar    
  22 C22           -1.6394     5.6912    -0.0874 C.ar    
  23 C23           -2.8699     5.0409     0.0983 C.ar    
  24 C24           -4.8795     4.1288     2.4677 C.3     
  25 N25           -3.9990     5.7026     0.1134 N.ar    
  26 C26           -4.0375     7.0297    -0.0470 C.ar    
  27 C27           -2.8367     7.7584    -0.2397 C.ar    
  28 C28           -1.6124     7.0683    -0.2537 C.ar    
  29 N29           -5.8148     3.3761     3.3142 N.3     
  30 C30           -7.0229     4.1646     3.5943 C.3     
  31 C31           -8.0034     3.3184     4.4098 C.3     
  32 N32           -7.3564     2.8902     5.6579 N.3     
  33 C33           -6.1483     2.1017     5.3778 C.3     
  34 C34           -5.1678     2.9479     4.5623 C.3     
  35 C35           -8.2917     2.1375     6.5044 C.3     
  36 C36           -5.2603     7.7230    -0.0282 C.ar    
  37 C37           -5.2746     9.0737    -0.1940 C.ar    
  38 C38           -4.0932     9.7880    -0.3837 C.ar    
  39 C39           -2.8896     9.1525    -0.4080 C.ar    
  40 C40           -4.6274     1.7468     0.8557 C.3     
  41 F41           -4.2632     0.5910     0.1567 F       
  42 F42           -5.6695     1.4479     1.7401 F       
  43 F43           -5.0505     2.7256    -0.0498 F       
  44 H44            1.6106    -1.3363     3.4900 H       
  45 H45            3.4364    -0.5263     2.0827 H       
  46 H46            4.2784     1.1754     0.4783 H       
  47 H47            0.5975     6.2320    -1.4904 H       
  48 H48            2.6828     4.9832    -1.5353 H       
  49 H49           -2.1415     0.6986     0.9667 H       
  50 H50           -2.5732     4.7653     3.7187 H       
  51 H51           -0.4213     3.5753     3.6225 H       
  52 H52           -1.0954     3.4391     1.2817 H       
  53 H53           -2.8850     3.9693     0.2314 H       
  54 H54           -4.7253     5.1216     2.8903 H       
  55 H55           -5.2926     4.2216     1.4633 H       
  56 H56           -0.6796     7.5931    -0.3979 H       
  57 H57           -6.7525     5.0554     4.1613 H       
  58 H58           -7.4908     4.4592     2.6550 H       
  59 H59           -8.8880     3.9109     4.6435 H       
  60 H60           -8.2950     2.4414     3.8319 H       
  61 H61           -5.6804     1.8071     6.3171 H       
  62 H62           -6.4188     1.2109     4.8108 H       
  63 H63           -4.2832     2.3554     4.3286 H       
  64 H64           -4.8763     3.8249     5.1402 H       
  65 H65           -8.6363     1.2533     5.9681 H       
  66 H66           -7.7873     1.8327     7.4213 H       
  67 H67           -9.1457     2.7680     6.7520 H       
  68 H68           -6.1856     7.1852     0.1169 H       
  69 H69           -6.2172     9.6007    -0.1786 H       
  70 H70           -4.1331    10.8595    -0.5135 H       
  71 H71           -1.9805     9.7166    -0.5558 H       
@<TRIPOS>BOND
   1    1    2 am
   2    1   10 1
   3    1   15 1
   4    2    3 1
   5    2   14 2
   6    3    4 2
   7    3   44 1
   8    4    5 1
   9    4   45 1
  10    5    6 ar
  11    5   10 ar
  12    6    7 ar
  13    6   46 1
  14    7    8 ar
  15    8    9 ar
  16    8   13 ar
  17    9   10 ar
  18    9   21 ar
  19   11   12 ar
  20   11   22 1
  21   11   21 ar
  22   12   13 ar
  23   12   47 1
  24   13   48 1
  25   15   16 ar
  26   15   20 ar
  27   16   17 ar
  28   16   49 1
  29   17   18 ar
  30   17   40 1
  31   18   19 ar
  32   18   24 1
  33   19   20 ar
  34   19   50 1
  35   20   51 1
  36   21   52 1
  37   22   23 ar
  38   22   28 ar
  39   23   25 ar
  40   23   53 1
  41   24   29 1
  42   24   54 1
  43   24   55 1
  44   25   26 ar
  45   26   27 ar
  46   26   36 ar
  47   27   28 ar
  48   27   39 ar
  49   28   56 1
  50   29   30 1
  51   29   34 1
  52   30   31 1
  53   30   57 1
  54   30   58 1
  55   31   32 1
  56   31   59 1
  57   31   60 1
  58   32   33 1
  59   32   35 1
  60   33   34 1
  61   33   61 1
  62   33   62 1
  63   34   63 1
  64   34   64 1
  65   35   65 1
  66   35   66 1
  67   35   67 1
  68   36   37 ar
  69   36   68 1
  70   37   38 ar
  71   37   69 1
  72   38   39 ar
  73   38   70 1
  74   39   71 1
  75   40   41 1
  76   40   42 1
  77   40   43 1

#	End of record

