#	Name: ASD03320184
#	Creating user name:	WinNT
#	Creation time:	15. 06. 2019 20:36

#	Modifying user name:	WinNT
#	Modification time:	15. 06. 2019 20:36

#	Program:	/corina/corina34_cracker 3.40 0067  02.08.2006

@<TRIPOS>MOLECULE
ASD03320184
  57   60    0    0    0
SMALL
NO_CHARGES


@<TRIPOS>ATOM
   1 C1             0.5667     0.9925    -0.6704 C.ar    
   2 C2             0.2668    -0.3592    -0.8633 C.ar    
   3 C3            -1.0210    -0.8149    -0.6837 C.ar    
   4 C4            -2.0276     0.0648    -0.3105 C.ar    
   5 C5            -1.7372     1.4209    -0.1149 C.ar    
   6 C6            -0.4391     1.8817    -0.2895 C.ar    
   7 C7             1.9473     1.4777    -0.8636 C.2     
   8 O8             2.2076     2.6535    -0.6957 O.2     
   9 N9             2.9194     0.6174    -1.2261 N.am    
  10 C10            4.2064     1.0928    -1.5064 C.ar    
  11 C11           -2.8129     2.3617     0.2835 C.ar    
  12 C12            4.7283     2.1548    -0.7796 C.ar    
  13 C13            5.9976     2.6227    -1.0563 C.ar    
  14 C14            6.7514     2.0322    -2.0600 C.ar    
  15 C15            6.2306     0.9716    -2.7868 C.ar    
  16 C16            4.9636     0.4988    -2.5074 C.ar    
  17 O17            8.0013     2.4936    -2.3319 O.3     
  18 C18            8.7211     1.8387    -3.3783 C.3     
  19 F19            8.0090     1.9537    -4.5770 F       
  20 F20            9.9782     2.4353    -3.5237 F       
  21 F21            8.8810     0.4861    -3.0587 F       
  22 O22           -3.2940    -0.3893    -0.1356 O.3     
  23 C23           -2.6889     3.1500     1.4305 C.ar    
  24 N24           -3.6711     3.9755     1.7489 N.ar    
  25 C25           -4.7541     4.0605     1.0021 C.ar    
  26 N26           -4.9112     3.3351    -0.0874 N.ar    
  27 C27           -3.9755     2.4883    -0.4810 C.ar    
  28 C28           -3.4977    -1.7998    -0.2405 C.3     
  29 C29           -4.9813    -2.1169    -0.0422 C.3     
  30 N30           -5.7598    -1.5212    -1.1363 N.3     
  31 C31           -7.1073    -2.1151    -1.2103 C.3     
  32 C32           -8.1233    -0.9597    -1.0915 C.3     
  33 C33           -7.2968     0.2787    -1.5275 C.3     
  34 C34           -5.8984    -0.0606    -0.9539 C.3     
  35 H35            1.0464    -1.0478    -1.1540 H       
  36 H36           -1.2479    -1.8600    -0.8342 H       
  37 H37           -0.2104     2.9265    -0.1397 H       
  38 H38            2.7275    -0.3311    -1.2928 H       
  39 H39            4.1414     2.6148     0.0016 H       
  40 H40            6.4035     3.4489    -0.4913 H       
  41 H41            6.8180     0.5126    -3.5683 H       
  42 H42            4.5584    -0.3271    -3.0731 H       
  43 H43           -1.8048     3.0856     2.0474 H       
  44 H44           -5.5372     4.7454     1.2921 H       
  45 H45           -4.1113     1.8974    -1.3748 H       
  46 H46           -3.1821    -2.1401    -1.2267 H       
  47 H47           -2.9119    -2.3094     0.5245 H       
  48 H48           -5.1248    -3.1974    -0.0406 H       
  49 H49           -5.3171    -1.7043     0.9091 H       
  50 H50           -7.2359    -2.6252    -2.1650 H       
  51 H51           -7.2481    -2.8185    -0.3897 H       
  52 H52           -8.9662    -1.1169    -1.7645 H       
  53 H53           -8.4655    -0.8517    -0.0622 H       
  54 H54           -7.2633     0.3631    -2.6137 H       
  55 H55           -7.6923     1.1899    -1.0786 H       
  56 H56           -5.8499     0.1959     0.1044 H       
  57 H57           -5.1225     0.4665    -1.5089 H       
@<TRIPOS>BOND
   1    1    2 ar
   2    1    7 1
   3    1    6 ar
   4    2    3 ar
   5    2   35 1
   6    3    4 ar
   7    3   36 1
   8    4    5 ar
   9    4   22 1
  10    5    6 ar
  11    5   11 1
  12    6   37 1
  13    7    8 2
  14    7    9 am
  15    9   10 1
  16    9   38 1
  17   10   12 ar
  18   10   16 ar
  19   11   23 ar
  20   11   27 ar
  21   12   13 ar
  22   12   39 1
  23   13   14 ar
  24   13   40 1
  25   14   15 ar
  26   14   17 1
  27   15   16 ar
  28   15   41 1
  29   16   42 1
  30   17   18 1
  31   18   19 1
  32   18   20 1
  33   18   21 1
  34   22   28 1
  35   23   24 ar
  36   23   43 1
  37   24   25 ar
  38   25   26 ar
  39   25   44 1
  40   26   27 ar
  41   27   45 1
  42   28   29 1
  43   28   46 1
  44   28   47 1
  45   29   30 1
  46   29   48 1
  47   29   49 1
  48   30   31 1
  49   30   34 1
  50   31   32 1
  51   31   50 1
  52   31   51 1
  53   32   33 1
  54   32   52 1
  55   32   53 1
  56   33   34 1
  57   33   54 1
  58   33   55 1
  59   34   56 1
  60   34   57 1

#	End of record

