#	Name: ASD01911942
#	Creating user name:	WinNT
#	Creation time:	15. 06. 2019 19:58

#	Modifying user name:	WinNT
#	Modification time:	15. 06. 2019 19:58

#	Program:	/corina/corina34_cracker 3.40 0067  02.08.2006

@<TRIPOS>MOLECULE
ASD01911942
  42   44    0    0    0
SMALL
NO_CHARGES


@<TRIPOS>ATOM
   1 C1            -0.9815     1.6925    -0.2037 C.ar    
   2 C2            -0.7812     0.3207    -0.2547 C.ar    
   3 O3            -1.8310    -0.5269    -0.0930 O.3     
   4 C4            -1.5506    -1.9267    -0.1575 C.3     
   5 C5            -2.8260    -2.7042     0.0423 C.2     
   6 O6            -3.8720    -2.1175     0.2222 O.2     
   7 N7            -2.8041    -4.0516     0.0210 N.am    
   8 C8            -4.0372    -4.8298     0.2138 C.3     
   9 C9            -4.1554    -5.8455    -0.9275 C.3     
  10 N10           -2.9231    -6.6419    -0.9995 N.3     
  11 C11           -1.7627    -5.8004    -1.3209 C.3     
  12 C12           -1.5475    -4.7828    -0.2018 C.3     
  13 C13           -3.0534    -7.6760    -1.9102 C.ar    
  14 C14           -2.4553    -8.9200    -1.6455 C.ar    
  15 C15           -2.6009    -9.9504    -2.5814 C.ar    
  16 C16           -3.3301    -9.6971    -3.7299 C.ar    
  17 C17           -3.8892    -8.4461    -3.9199 C.ar    
  18 N18           -3.7452    -7.4897    -3.0234 N.ar    
  19 C19            0.0873     2.5521    -0.3689 C.ar    
  20 C20            1.3557     2.0462    -0.5854 C.ar    
  21 C21            1.5579     0.6794    -0.6371 C.ar    
  22 C22            0.4926    -0.1843    -0.4716 C.ar    
  23 C23           -1.7103    -9.1293    -0.4406 C.1     
  24 N24           -1.1193    -9.2953     0.5153 N.1     
  25 H25           -1.9729     2.0882    -0.0395 H       
  26 H26           -1.1270    -2.1678    -1.1325 H       
  27 H27           -0.8378    -2.1908     0.6237 H       
  28 H28           -3.9934    -5.3548     1.1681 H       
  29 H29           -4.8980    -4.1613     0.1996 H       
  30 H30           -5.0038    -6.5041    -0.7420 H       
  31 H31           -4.3031    -5.3180    -1.8699 H       
  32 H32           -0.8760    -6.4264    -1.4206 H       
  33 H33           -1.9438    -5.2736    -2.2578 H       
  34 H34           -0.7614    -4.0842    -0.4883 H       
  35 H35           -1.2648    -5.3008     0.7147 H       
  36 H36           -2.1549   -10.9193    -2.4116 H       
  37 H37           -3.4613   -10.4702    -4.4726 H       
  38 H38           -4.4579    -8.2505    -4.8170 H       
  39 H39           -0.0682     3.6201    -0.3293 H       
  40 H40            2.1899     2.7199    -0.7146 H       
  41 H41            2.5496     0.2868    -0.8070 H       
  42 H42            0.6511    -1.2519    -0.5117 H       
@<TRIPOS>BOND
   1    1    2 ar
   2    1   19 ar
   3    1   25 1
   4    2    3 1
   5    2   22 ar
   6    3    4 1
   7    4    5 1
   8    4   26 1
   9    4   27 1
  10    5    6 2
  11    5    7 am
  12    7    8 1
  13    7   12 1
  14    8    9 1
  15    8   28 1
  16    8   29 1
  17    9   10 1
  18    9   30 1
  19    9   31 1
  20   10   11 1
  21   10   13 1
  22   11   12 1
  23   11   32 1
  24   11   33 1
  25   12   34 1
  26   12   35 1
  27   13   14 ar
  28   13   18 ar
  29   14   15 ar
  30   14   23 1
  31   15   16 ar
  32   15   36 1
  33   16   17 ar
  34   16   37 1
  35   17   18 ar
  36   17   38 1
  37   19   20 ar
  38   19   39 1
  39   20   21 ar
  40   20   40 1
  41   21   22 ar
  42   21   41 1
  43   22   42 1
  44   23   24 3

#	End of record

