#	Name: ASD09610109
#	Creating user name:	WinNT
#	Creation time:	15. 06. 2019 21:22

#	Modifying user name:	WinNT
#	Modification time:	15. 06. 2019 21:22

#	Program:	/corina/corina34_cracker 3.40 0067  02.08.2006

@<TRIPOS>MOLECULE
ASD09610109
  42   43    0    0    0
SMALL
NO_CHARGES


@<TRIPOS>ATOM
   1 N1            -0.0168     1.3891     0.0097 N.pl3   
   2 N2             0.0021    -0.0041     0.0020 N.2     
   3 C3             1.1927    -0.5142    -0.0121 C.2     
   4 C4             2.2164     0.5985    -0.0159 C.3     
   5 C5             1.3682     1.8853    -0.0009 C.3     
   6 C6             1.4898    -1.9006    -0.0219 C.2     
   7 O7             2.6473    -2.2745    -0.0346 O.2     
   8 O8             0.4885    -2.8052    -0.0173 O.3     
   9 C9             1.6278     2.7054    -1.2383 C.2     
  10 O10            2.7050     2.6528    -1.7829 O.2     
  11 O11            0.6622     3.4942    -1.7354 O.3     
  12 C12            1.6558     2.7044     1.2590 C.3     
  13 C13           -1.1643     2.1854     0.0197 C.ar    
  14 C14           -2.1356     2.0205    -0.9622 C.ar    
  15 C15           -3.2693     2.8099    -0.9491 C.ar    
  16 C16           -3.4385     3.7638     0.0396 C.ar    
  17 C17           -2.4734     3.9300     1.0173 C.ar    
  18 C18           -1.3406     3.1398     1.0135 C.ar    
  19 Cl19          -4.8644     4.7540     0.0529 Cl      
  20 Cl20          -1.9234     0.8247    -2.2026 Cl      
  21 C21            0.8606    -4.1848    -0.0278 C.3     
  22 C22           -0.3992    -5.0529    -0.0206 C.3     
  23 C23            0.9826     4.2556    -2.9295 C.3     
  24 C24           -0.2316     5.0891    -3.3440 C.3     
  25 H25            2.8436     0.5438     0.8739 H       
  26 H26            2.8265     0.5534    -0.9180 H       
  27 H27            1.4863     2.0863     2.1407 H       
  28 H28            2.6924     3.0408     1.2449 H       
  29 H29            0.9934     3.5695     1.2890 H       
  30 H30           -4.0240     2.6830    -1.7112 H       
  31 H31           -2.6084     4.6754     1.7871 H       
  32 H32           -0.5904     3.2669     1.7799 H       
  33 H33            1.4431    -4.3972    -0.9243 H       
  34 H34            1.4596    -4.4063     0.8555 H       
  35 H35           -0.1154    -6.1053    -0.0286 H       
  36 H36           -0.9817    -4.8405     0.8759 H       
  37 H37           -0.9982    -4.8314    -0.9039 H       
  38 H38            1.8242     4.9170    -2.7238 H       
  39 H39            1.2466     3.5719    -3.7364 H       
  40 H40            0.0089     5.6606    -4.2405 H       
  41 H41           -1.0732     4.4276    -3.5498 H       
  42 H42           -0.4956     5.7727    -2.5372 H       
@<TRIPOS>BOND
   1    1    2 1
   2    1    5 1
   3    1   13 1
   4    2    3 2
   5    3    4 1
   6    3    6 1
   7    4    5 1
   8    4   25 1
   9    4   26 1
  10    5    9 1
  11    5   12 1
  12    6    7 2
  13    6    8 1
  14    8   21 1
  15    9   10 2
  16    9   11 1
  17   11   23 1
  18   12   27 1
  19   12   28 1
  20   12   29 1
  21   13   14 ar
  22   13   18 ar
  23   14   15 ar
  24   14   20 1
  25   15   16 ar
  26   15   30 1
  27   16   17 ar
  28   16   19 1
  29   17   18 ar
  30   17   31 1
  31   18   32 1
  32   21   22 1
  33   21   33 1
  34   21   34 1
  35   22   35 1
  36   22   36 1
  37   22   37 1
  38   23   24 1
  39   23   38 1
  40   23   39 1
  41   24   40 1
  42   24   41 1
  43   24   42 1

#	End of record

