#	Name: ASD01870709
#	Creating user name:	WinNT
#	Creation time:	15. 06. 2019 19:39

#	Modifying user name:	WinNT
#	Modification time:	15. 06. 2019 19:39

#	Program:	/corina/corina34_cracker 3.40 0067  02.08.2006

@<TRIPOS>MOLECULE
ASD01870709
  44   47    0    0    0
SMALL
NO_CHARGES


@<TRIPOS>ATOM
   1 C1            -0.0167     1.3777     0.0096 C.ar    
   2 C2             0.0021    -0.0041     0.0020 C.ar    
   3 C3             1.2045    -0.6882    -0.0127 C.ar    
   4 C4             2.4019     0.0016    -0.0200 C.ar    
   5 C5             1.1819     2.0947     0.0020 C.ar    
   6 C6             1.4333     3.5469     0.0075 C.2     
   7 C7             2.4058     1.3982    -0.0126 C.ar    
   8 C8             3.5260     2.3562    -0.0178 C.2     
   9 C9             2.9305     3.7440    -0.0058 C.3     
  10 C10            3.3449     4.4998    -1.2420 C.ar    
  11 C11            3.9934     5.7149    -1.1243 C.ar    
  12 C12            4.3734     6.4082    -2.2582 C.ar    
  13 C13            4.1055     5.8861    -3.5098 C.ar    
  14 C14            3.4579     4.6705    -3.6275 C.ar    
  15 C15            3.0816     3.9752    -2.4935 C.ar    
  16 O16            0.5936     4.4214     0.0199 O.2     
  17 O17            4.7066     2.0811    -0.0295 O.2     
  18 C18            4.5190     6.6423    -4.7460 C.3     
  19 C19            5.9105     6.2260    -5.1477 C.2     
  20 C20            6.5464     6.8271    -6.3357 C.ar    
  21 O21            6.5073     5.3973    -4.4948 O.2     
  22 N22            5.8894     7.7394    -7.0447 N.ar    
  23 C23            7.8348     6.4378    -6.7026 C.ar    
  24 C24            8.4185     7.0122    -7.8210 C.ar    
  25 C25            7.6952     7.9553    -8.5337 C.ar    
  26 C26            6.4204     8.2990    -8.1087 C.ar    
  27 C27            9.8084     6.6203    -8.2518 C.3     
  28 H28           -0.9597     1.9041     0.0169 H       
  29 H29           -0.9278    -0.5534     0.0080 H       
  30 H30            1.2073    -1.7682    -0.0182 H       
  31 H31            3.3361    -0.5401    -0.0312 H       
  32 H32            3.2474     4.2810     0.8883 H       
  33 H33            4.2027     6.1228    -0.1465 H       
  34 H34            4.8794     7.3579    -2.1663 H       
  35 H35            3.2482     4.2628    -4.6054 H       
  36 H36            2.5789     3.0237    -2.5854 H       
  37 H37            3.8251     6.4204    -5.5568 H       
  38 H38            4.5054     7.7124    -4.5389 H       
  39 H39            8.3699     5.6997    -6.1235 H       
  40 H40            8.1218     8.4213    -9.4096 H       
  41 H41            5.8562     9.0367    -8.6599 H       
  42 H42            9.7511     5.7800    -8.9436 H       
  43 H43           10.2875     7.4656    -8.7458 H       
  44 H44           10.3921     6.3320    -7.3775 H       
@<TRIPOS>BOND
   1    1    2 ar
   2    1    5 ar
   3    1   28 1
   4    2    3 ar
   5    2   29 1
   6    3    4 ar
   7    3   30 1
   8    4    7 ar
   9    4   31 1
  10    5    7 ar
  11    5    6 1
  12    6    9 1
  13    6   16 2
  14    7    8 1
  15    8    9 1
  16    8   17 2
  17    9   10 1
  18    9   32 1
  19   10   11 ar
  20   10   15 ar
  21   11   12 ar
  22   11   33 1
  23   12   13 ar
  24   12   34 1
  25   13   14 ar
  26   13   18 1
  27   14   15 ar
  28   14   35 1
  29   15   36 1
  30   18   19 1
  31   18   37 1
  32   18   38 1
  33   19   20 1
  34   19   21 2
  35   20   23 ar
  36   20   22 ar
  37   22   26 ar
  38   23   24 ar
  39   23   39 1
  40   24   25 ar
  41   24   27 1
  42   25   26 ar
  43   25   40 1
  44   26   41 1
  45   27   42 1
  46   27   43 1
  47   27   44 1

#	End of record

