#	Name: ASD01883778
#	Creating user name:	WinNT
#	Creation time:	15. 06. 2019 19:47

#	Modifying user name:	WinNT
#	Modification time:	15. 06. 2019 19:47

#	Program:	/corina/corina34_cracker 3.40 0067  02.08.2006

@<TRIPOS>MOLECULE
ASD01883778
  56   59    0    0    0
SMALL
NO_CHARGES


@<TRIPOS>ATOM
   1 C1            -0.0168     1.3856     0.0097 C.ar    
   2 C2             0.0021    -0.0041     0.0020 C.ar    
   3 C3             1.2157    -0.6846    -0.0128 C.ar    
   4 C4             2.3947     0.0184    -0.0203 C.ar    
   5 C5             2.3848     1.4172    -0.0132 C.ar    
   6 C6             1.1631     2.0958     0.0022 C.ar    
   7 C7             3.8447    -0.3969    -0.0365 C.3     
   8 N8             4.6266     0.8448    -0.0379 N.am    
   9 C9             3.7803     1.8889    -0.0244 C.2     
  10 O10            4.1185     3.0567    -0.0214 O.2     
  11 C11            6.0889     0.9321    -0.0517 C.3     
  12 O12           -1.1642    -0.6979     0.0095 O.3     
  13 C13           -2.3727     0.0646     0.0252 C.3     
  14 C14           -3.5557    -0.8689     0.0315 C.ar    
  15 C15           -4.0849    -1.3020     1.2301 C.ar    
  16 C16           -5.1791    -2.1649     1.2345 C.ar    
  17 C17           -5.7328    -2.5856     0.0273 C.ar    
  18 C18           -5.1954    -2.1461    -1.1659 C.ar    
  19 C19           -4.1127    -1.2857    -1.1643 C.ar    
  20 C20           -5.7522    -2.6343     2.5204 C.ar    
  21 C21           -5.1961    -2.2123     3.7278 C.ar    
  22 C22           -5.7261    -2.6473     4.9264 C.ar    
  23 C23           -6.8111    -3.5030     4.9385 C.ar    
  24 C24           -7.3776    -3.9327     3.7344 C.ar    
  25 C25           -6.8476    -3.4908     2.5226 C.ar    
  26 C26           -8.5371    -4.8471     3.7460 C.2     
  27 O27           -9.0812    -5.2597     2.5848 O.3     
  28 O28           -9.0002    -5.2272     4.8028 O.2     
  29 Cl29          -7.4709    -4.0455     6.4498 Cl      
  30 C30            6.5839     0.9697    -1.4989 C.3     
  31 C31            6.0954     2.2541    -2.1717 C.3     
  32 C32            8.1135     0.9351    -1.5158 C.3     
  33 H33           -0.9605     1.9106     0.0170 H       
  34 H34            1.2300    -1.7645    -0.0180 H       
  35 H35            1.1443     3.1757     0.0075 H       
  36 H36            4.0762    -0.9844     0.8519 H       
  37 H37            4.0588    -0.9754    -0.9352 H       
  38 H38            6.4036     1.8395     0.4637 H       
  39 H39            6.5096     0.0628     0.4537 H       
  40 H40           -2.3972     0.6883     0.9188 H       
  41 H41           -2.4142     0.6978    -0.8611 H       
  42 H42           -3.6515    -0.9731     2.1631 H       
  43 H43           -6.5806    -3.2545     0.0250 H       
  44 H44           -5.6237    -2.4719    -2.1023 H       
  45 H45           -3.6956    -0.9440    -2.1001 H       
  46 H46           -4.3480    -1.5436     3.7253 H       
  47 H47           -5.2907    -2.3176     5.8582 H       
  48 H48           -7.2809    -3.8192     1.5894 H       
  49 H49           -9.8388    -5.8579     2.6430 H       
  50 H50            6.1950     0.1063    -2.0385 H       
  51 H51            5.0058     2.2787    -2.1597 H       
  52 H52            6.4844     3.1176    -1.6321 H       
  53 H53            6.4481     2.2809    -3.2028 H       
  54 H54            8.4615     0.0201    -1.0364 H       
  55 H55            8.4661     0.9619    -2.5468 H       
  56 H56            8.5024     1.7986    -0.9761 H       
@<TRIPOS>BOND
   1    1    2 ar
   2    1    6 ar
   3    1   33 1
   4    2    3 ar
   5    2   12 1
   6    3    4 ar
   7    3   34 1
   8    4    5 ar
   9    4    7 1
  10    5    6 ar
  11    5    9 1
  12    6   35 1
  13    7    8 1
  14    7   36 1
  15    7   37 1
  16    8    9 am
  17    8   11 1
  18    9   10 2
  19   11   30 1
  20   11   38 1
  21   11   39 1
  22   12   13 1
  23   13   14 1
  24   13   40 1
  25   13   41 1
  26   14   15 ar
  27   14   19 ar
  28   15   16 ar
  29   15   42 1
  30   16   17 ar
  31   16   20 1
  32   17   18 ar
  33   17   43 1
  34   18   19 ar
  35   18   44 1
  36   19   45 1
  37   20   21 ar
  38   20   25 ar
  39   21   22 ar
  40   21   46 1
  41   22   23 ar
  42   22   47 1
  43   23   24 ar
  44   23   29 1
  45   24   25 ar
  46   24   26 1
  47   25   48 1
  48   26   27 1
  49   26   28 2
  50   27   49 1
  51   30   31 1
  52   30   32 1
  53   30   50 1
  54   31   51 1
  55   31   52 1
  56   31   53 1
  57   32   54 1
  58   32   55 1
  59   32   56 1

#	End of record

