#	Name: ASD01901231
#	Creating user name:	WinNT
#	Creation time:	15. 06. 2019 19:53

#	Modifying user name:	WinNT
#	Modification time:	15. 06. 2019 19:53

#	Program:	/corina/corina34_cracker 3.40 0067  02.08.2006

@<TRIPOS>MOLECULE
ASD01901231
  42   45    0    0    0
SMALL
NO_CHARGES


@<TRIPOS>ATOM
   1 C1            -0.0166     1.3750     0.0096 C.ar    
   2 C2             0.0021    -0.0041     0.0020 C.ar    
   3 C3             1.2078    -0.6830    -0.0131 C.ar    
   4 C4             2.4027     0.0149    -0.0203 C.ar    
   5 C5             2.3997     1.3941    -0.0129 C.ar    
   6 C6             1.1860     2.0866     0.0019 C.ar    
   7 C7             1.1748     3.5185     0.0093 C.1     
   8 C8             1.1656     4.6925     0.0153 C.1     
   9 C9             1.1543     6.1244     0.0226 C.ar    
  10 C10           -0.0666     8.1943     0.0502 C.ar    
  11 C11           -0.0605     6.8156     0.0432 C.ar    
  12 C12            2.3585     6.8349     0.0149 C.ar    
  13 C13            2.3438     8.2124     0.0219 C.ar    
  14 C14            1.1340     8.8967     0.0371 C.ar    
  15 N15            1.1239    10.2968     0.0447 N.am    
  16 N16            1.1329    12.2903     1.3084 N.am    
  17 C17            1.1410    10.9481     1.2182 C.2     
  18 C18            1.1027    10.9651    -1.1300 C.2     
  19 C19            1.0930    12.4366    -1.0908 C.ar    
  20 C20            1.1063    13.0691     0.1682 C.ar    
  21 C21            1.0965    14.4575     0.2095 C.ar    
  22 C22            1.0718    13.2149    -2.2425 C.ar    
  23 N23            1.0644    14.5306    -2.1471 N.ar    
  24 C24            1.0692    15.1546    -0.9818 C.ar    
  25 O25            1.0923    10.3677    -2.1891 O.2     
  26 Cl26          -1.5742     9.0546     0.0758 Cl      
  27 O27            1.1645    10.2966     2.2443 O.2     
  28 C28            1.1518    12.9306     2.6259 C.3     
  29 H29           -0.9584     1.9035     0.0169 H       
  30 H30           -0.9266    -0.5554     0.0083 H       
  31 H31            1.2163    -1.7630    -0.0190 H       
  32 H32            3.3399    -0.5217    -0.0315 H       
  33 H33            3.3330     1.9375    -0.0185 H       
  34 H34           -0.9928     6.2705     0.0533 H       
  35 H35            3.2991     6.3044     0.0038 H       
  36 H36            3.2737     8.7615     0.0160 H       
  37 H37            1.1095    14.9808     1.1542 H       
  38 H38            1.0617    12.7430    -3.2139 H       
  39 H39            1.0614    16.2344    -0.9614 H       
  40 H40            1.1713    12.1651     3.4016 H       
  41 H41            2.0390    13.5580     2.7122 H       
  42 H42            0.2593    13.5451     2.7441 H       
@<TRIPOS>BOND
   1    1    2 ar
   2    1    6 ar
   3    1   29 1
   4    2    3 ar
   5    2   30 1
   6    3    4 ar
   7    3   31 1
   8    4    5 ar
   9    4   32 1
  10    5    6 ar
  11    5   33 1
  12    6    7 1
  13    7    8 3
  14    8    9 1
  15    9   12 ar
  16    9   11 ar
  17   10   11 ar
  18   10   14 ar
  19   10   26 1
  20   11   34 1
  21   12   13 ar
  22   12   35 1
  23   13   14 ar
  24   13   36 1
  25   14   15 1
  26   15   18 am
  27   15   17 am
  28   16   17 am
  29   16   20 1
  30   16   28 1
  31   17   27 2
  32   18   19 1
  33   18   25 2
  34   19   22 ar
  35   19   20 ar
  36   20   21 ar
  37   21   24 ar
  38   21   37 1
  39   22   23 ar
  40   22   38 1
  41   23   24 ar
  42   24   39 1
  43   28   40 1
  44   28   41 1
  45   28   42 1

#	End of record

