#	Name: ASD04590155
#	Creating user name:	WinNT
#	Creation time:	15. 06. 2019 20:50

#	Modifying user name:	WinNT
#	Modification time:	15. 06. 2019 20:50

#	Program:	/corina/corina34_cracker 3.40 0067  02.08.2006

@<TRIPOS>MOLECULE
ASD04590155
  41   42    0    0    0
SMALL
NO_CHARGES


@<TRIPOS>ATOM
   1 N1            -0.0153     1.2803     0.0091 N.pl3   
   2 N2             0.0021    -0.0041     0.0020 N.2     
   3 C3             1.2457    -0.4438    -0.0122 C.2     
   4 C4             2.0902     0.6962    -0.0142 C.2     
   5 C5             1.2525     1.7666    -0.0004 C.2     
   6 C6             1.6768    -1.8544    -0.0235 C.2     
   7 N7             0.7576    -2.8400    -0.0200 N.am    
   8 O8             2.8615    -2.1280    -0.0359 O.2     
   9 N9             3.4941     0.7147    -0.0266 N.am    
  10 C10            4.1525     1.8907    -0.0267 C.2     
  11 C11            1.1858    -4.2410    -0.0312 C.3     
  12 O12            3.5307     2.9356    -0.0160 O.2     
  13 N13            5.5001     1.9086    -0.0386 N.am    
  14 C14            6.2157     3.1869    -0.0387 C.3     
  15 C15            5.8245     3.9903    -1.2806 C.3     
  16 C16            5.8467     3.9781     1.2177 C.3     
  17 C17            7.7235     2.9272    -0.0534 C.3     
  18 C18           -0.0446    -5.1504    -0.0245 C.3     
  19 C19            0.1897    -6.6569    -0.1527 C.3     
  20 C20           -0.2431    -6.0615     1.1885 C.3     
  21 H21           -0.8184     1.8243     0.0160 H       
  22 H22            1.5409     2.8074     0.0024 H       
  23 H23           -0.1875    -2.6218    -0.0102 H       
  24 H24            3.9901    -0.1188    -0.0351 H       
  25 H25            1.7751    -4.4337    -0.9277 H       
  26 H26            1.7916    -4.4429     0.8522 H       
  27 H27            5.9961     1.0750    -0.0471 H       
  28 H28            4.7503     4.1753    -1.2701 H       
  29 H29            6.3569     4.9414    -1.2807 H       
  30 H30            6.0874     3.4267    -2.1757 H       
  31 H31            6.1255     3.4057     2.1025 H       
  32 H32            6.3792     4.9292     1.2177 H       
  33 H33            4.7726     4.1631     1.2282 H       
  34 H34            7.9864     2.3636    -0.9486 H       
  35 H35            8.2560     3.8783    -0.0535 H       
  36 H36            8.0022     2.3549     0.8313 H       
  37 H37           -0.9367    -4.7379    -0.4959 H       
  38 H38           -0.5484    -7.2356    -0.7081 H       
  39 H39            1.2204    -7.0002    -0.2419 H       
  40 H40            0.5029    -6.0130     1.9818 H       
  41 H41           -1.2659    -6.2484     1.5156 H       
@<TRIPOS>BOND
   1    1    2 1
   2    1    5 1
   3    1   21 1
   4    2    3 2
   5    3    4 1
   6    3    6 1
   7    4    5 2
   8    4    9 1
   9    5   22 1
  10    6    7 am
  11    6    8 2
  12    7   11 1
  13    7   23 1
  14    9   10 am
  15    9   24 1
  16   10   12 2
  17   10   13 am
  18   11   18 1
  19   11   25 1
  20   11   26 1
  21   13   14 1
  22   13   27 1
  23   14   16 1
  24   14   15 1
  25   14   17 1
  26   15   28 1
  27   15   29 1
  28   15   30 1
  29   16   31 1
  30   16   32 1
  31   16   33 1
  32   17   34 1
  33   17   35 1
  34   17   36 1
  35   18   19 1
  36   18   20 1
  37   18   37 1
  38   19   20 1
  39   19   38 1
  40   19   39 1
  41   20   40 1
  42   20   41 1

#	End of record

