#	Name: ASD08178202
#	Creating user name:	WinNT
#	Creation time:	15. 06. 2019 21:18

#	Modifying user name:	WinNT
#	Modification time:	15. 06. 2019 21:18

#	Program:	/corina/corina34_cracker 3.40 0067  02.08.2006

@<TRIPOS>MOLECULE
ASD08178202
  81   84    0    0    0
SMALL
NO_CHARGES


@<TRIPOS>ATOM
   1 C1            -0.0191     1.5027     0.0207 C.ar    
   2 C2             0.0010    -0.0042     0.0166 C.3     
   3 C3            -0.8034    -0.5283     1.2078 C.3     
   4 C4            -0.7830    -2.0581     1.2036 C.3     
   5 C5            -1.5874    -2.5822     2.3949 C.3     
   6 C6            -1.5673    -4.0891     2.3907 C.2     
   7 N7            -0.6926    -4.8430     2.9773 N.2     
   8 N8            -0.8493    -6.0898     2.8558 N.2     
   9 C9            -1.8644    -6.5050     2.1598 C.2     
  10 S10           -2.7350    -5.1430     1.5925 S.3     
  11 N11           -2.1931    -7.8348     1.9197 N.am    
  12 C12           -1.4281    -8.8206     2.4289 C.2     
  13 C13           -1.7844   -10.2616     2.1687 C.3     
  14 O14           -0.4530    -8.5481     3.0966 O.2     
  15 C15           -0.7780   -11.1576     2.8435 C.ar    
  16 C16            1.1728     2.2124     0.0064 C.ar    
  17 C17            1.1067     3.5974     0.0109 C.ar    
  18 C18           -0.1542     4.1903     0.0295 C.ar    
  19 N19           -1.2376     3.4283     0.0422 N.ar    
  20 N20           -1.1697     2.1466     0.0324 N.ar    
  21 N21           -0.2749     5.5795     0.0353 N.am    
  22 C22           -1.4926     6.1505    -0.0517 C.2     
  23 C23           -1.6342     7.6458     0.0713 C.3     
  24 O24           -2.4744     5.4610    -0.2290 O.2     
  25 C25           -3.0867     8.0253    -0.0606 C.ar    
  26 C26           -3.8892     8.0891     1.0632 C.ar    
  27 C27           -5.2215     8.4372     0.9422 C.ar    
  28 C28           -5.7512     8.7220    -0.3024 C.ar    
  29 C29           -4.9485     8.6592    -1.4261 C.ar    
  30 C30           -3.6151     8.3153    -1.3046 C.ar    
  31 C31           -0.9904   -11.5806     4.1423 C.ar    
  32 C32           -0.0672   -12.4024     4.7613 C.ar    
  33 C33            1.0682   -12.8017     4.0814 C.ar    
  34 C34            1.2802   -12.3795     2.7823 C.ar    
  35 C35            0.3549   -11.5612     2.1618 C.ar    
  36 C36            2.0751   -13.6969     4.7565 C.3     
  37 N37            1.7290   -15.0980     4.5050 N.am    
  38 C38            2.4945   -16.0832     5.0148 C.2     
  39 O39            2.1764   -17.3709     4.7836 O.3     
  40 O40            3.4717   -15.8093     5.6830 O.2     
  41 C41            3.0456   -18.3790     5.3638 C.3     
  42 C42            3.0592   -18.2258     6.8860 C.3     
  43 C43            2.5285   -19.7711     4.9959 C.3     
  44 C44            4.4650   -18.2022     4.8207 C.3     
  45 H45           -0.4409    -0.3709    -0.9099 H       
  46 H46            1.0307    -0.3540     0.0914 H       
  47 H47           -0.3615    -0.1615     2.1343 H       
  48 H48           -1.8331    -0.1785     1.1331 H       
  49 H49           -1.2249    -2.4249     0.2772 H       
  50 H50            0.2467    -2.4079     1.2784 H       
  51 H51           -1.1455    -2.2155     3.3213 H       
  52 H52           -2.6171    -2.2324     2.3201 H       
  53 H53           -2.9730    -8.0528     1.3857 H       
  54 H54           -2.7782   -10.4676     2.5661 H       
  55 H55           -1.7761   -10.4498     1.0951 H       
  56 H56            2.1241     1.7012    -0.0074 H       
  57 H57            2.0044     4.1978     0.0007 H       
  58 H58            0.5176     6.1349     0.1018 H       
  59 H59           -1.2615     7.9672     1.0438 H       
  60 H60           -1.0588     8.1313    -0.7169 H       
  61 H61           -3.4753     7.8665     2.0356 H       
  62 H62           -5.8487     8.4863     1.8201 H       
  63 H63           -6.7923     8.9933    -0.3970 H       
  64 H64           -5.3624     8.8814    -2.3985 H       
  65 H65           -2.9879     8.2662    -2.1825 H       
  66 H66           -1.8775   -11.2686     4.6736 H       
  67 H67           -0.2328   -12.7323     5.7763 H       
  68 H68            2.1674   -12.6912     2.2511 H       
  69 H69            0.5205   -11.2313     1.1468 H       
  70 H70            3.0688   -13.4910     4.3586 H       
  71 H71            2.0673   -13.5077     5.8300 H       
  72 H72            0.9489   -15.3166     3.9715 H       
  73 H73            2.0480   -18.3517     7.2729 H       
  74 H74            3.7117   -18.9825     7.3215 H       
  75 H75            3.4277   -17.2340     7.1481 H       
  76 H76            2.5188   -19.8803     3.9114 H       
  77 H77            3.1810   -20.5279     5.4314 H       
  78 H78            1.5173   -19.8970     5.3828 H       
  79 H79            4.8334   -17.2104     5.0827 H       
  80 H80            5.1175   -18.9590     5.2562 H       
  81 H81            4.4553   -18.3114     3.7362 H       
@<TRIPOS>BOND
   1    1    2 1
   2    1   16 ar
   3    1   20 ar
   4    2    3 1
   5    2   45 1
   6    2   46 1
   7    3    4 1
   8    3   47 1
   9    3   48 1
  10    4    5 1
  11    4   49 1
  12    4   50 1
  13    5    6 1
  14    5   51 1
  15    5   52 1
  16    6    7 2
  17    6   10 1
  18    7    8 1
  19    8    9 2
  20    9   10 1
  21    9   11 1
  22   11   12 am
  23   11   53 1
  24   12   13 1
  25   12   14 2
  26   13   15 1
  27   13   54 1
  28   13   55 1
  29   15   31 ar
  30   15   35 ar
  31   16   17 ar
  32   16   56 1
  33   17   18 ar
  34   17   57 1
  35   18   19 ar
  36   18   21 1
  37   19   20 ar
  38   21   22 am
  39   21   58 1
  40   22   23 1
  41   22   24 2
  42   23   25 1
  43   23   59 1
  44   23   60 1
  45   25   26 ar
  46   25   30 ar
  47   26   27 ar
  48   26   61 1
  49   27   28 ar
  50   27   62 1
  51   28   29 ar
  52   28   63 1
  53   29   30 ar
  54   29   64 1
  55   30   65 1
  56   31   32 ar
  57   31   66 1
  58   32   33 ar
  59   32   67 1
  60   33   34 ar
  61   33   36 1
  62   34   35 ar
  63   34   68 1
  64   35   69 1
  65   36   37 1
  66   36   70 1
  67   36   71 1
  68   37   38 am
  69   37   72 1
  70   38   39 1
  71   38   40 2
  72   39   41 1
  73   41   42 1
  74   41   43 1
  75   41   44 1
  76   42   73 1
  77   42   74 1
  78   42   75 1
  79   43   76 1
  80   43   77 1
  81   43   78 1
  82   44   79 1
  83   44   80 1
  84   44   81 1

#	End of record

