#	Name: ASD03930073
#	Creating user name:	WinNT
#	Creation time:	15. 06. 2019 20:47

#	Modifying user name:	WinNT
#	Modification time:	15. 06. 2019 20:47

#	Program:	/corina/corina34_cracker 3.40 0067  02.08.2006

@<TRIPOS>MOLECULE
ASD03930073
  29   31    0    0    0
SMALL
NO_CHARGES


@<TRIPOS>ATOM
   1 C1             2.2344     1.4058    -0.5963 C.ar    
   2 C2             2.2746     0.0411    -0.5910 C.ar    
   3 C3             1.2664    -0.6850     0.0300 C.ar    
   4 C4             0.2009    -0.0163     0.6556 C.ar    
   5 C5             0.1605     1.3758     0.6494 C.ar    
   6 C6             1.1793     2.0877     0.0227 C.ar    
   7 O7             1.0335    -2.0044     0.1989 O.3     
   8 C8            -0.1096    -2.1438     0.8887 C.2     
   9 N9            -0.6140    -0.9797     1.1663 N.2     
  10 C10            1.1473     3.5644     0.0102 C.2     
  11 O11            2.1842     4.1954     0.0787 O.2     
  12 N12           -0.0313     4.2123    -0.0773 N.am    
  13 C13           -1.2906     3.4846    -0.2908 C.3     
  14 C14           -2.1195     4.2201    -1.3065 C.2     
  15 C15           -0.1115     5.6785     0.0433 C.3     
  16 C16           -0.6699     6.2286    -1.2718 C.3     
  17 C17           -1.8464     5.4137    -1.7266 C.2     
  18 H18            3.0242     1.9635    -1.0774 H       
  19 H19            3.0924    -0.4753    -1.0715 H       
  20 H20           -0.6547     1.8988     1.1274 H       
  21 H21           -0.5478    -3.0894     1.1720 H       
  22 H22           -1.0738     2.4806    -0.6557 H       
  23 H23           -1.8385     3.4210     0.6494 H       
  24 H24           -2.9911     3.7250    -1.7084 H       
  25 H25           -0.7750     5.9452     0.8660 H       
  26 H26            0.8824     6.0888     0.2223 H       
  27 H27           -0.9764     7.2647    -1.1281 H       
  28 H28            0.1047     6.1876    -2.0376 H       
  29 H29           -2.5173     5.8591    -2.4464 H       
@<TRIPOS>BOND
   1    1    2 ar
   2    1    6 ar
   3    1   18 1
   4    2    3 ar
   5    2   19 1
   6    3    4 ar
   7    3    7 1
   8    4    5 ar
   9    4    9 1
  10    5    6 ar
  11    5   20 1
  12    6   10 1
  13    7    8 1
  14    8    9 2
  15    8   21 1
  16   10   11 2
  17   10   12 am
  18   12   13 1
  19   12   15 1
  20   13   14 1
  21   13   22 1
  22   13   23 1
  23   14   17 2
  24   14   24 1
  25   15   16 1
  26   15   25 1
  27   15   26 1
  28   16   17 1
  29   16   27 1
  30   16   28 1
  31   17   29 1

#	End of record

