#	Name: ASD01914865
#	Creating user name:	WinNT
#	Creation time:	15. 06. 2019 20:04

#	Modifying user name:	WinNT
#	Modification time:	15. 06. 2019 20:04

#	Program:	/corina/corina34_cracker 3.40 0067  02.08.2006

@<TRIPOS>MOLECULE
ASD01914865
  66   71    0    0    0
SMALL
NO_CHARGES


@<TRIPOS>ATOM
   1 N1             0.3438     1.6569     0.1578 N.2     
   2 C2             0.3332     0.3164     0.2702 C.2     
   3 C3             1.6231    -0.1143     0.3021 C.2     
   4 N4             2.4155     0.9958     0.2065 N.pl3   
   5 C5             1.5875     2.0770     0.1185 C.2     
   6 C6            -0.8746    -0.5423     0.3465 C.ar    
   7 C7            -0.7457    -1.9123     0.5668 C.ar    
   8 C8            -2.1412     0.0189     0.2040 C.ar    
   9 C9            -3.2691    -0.7829     0.2759 C.ar    
  10 C10           -3.1370    -2.1512     0.4869 C.ar    
  11 C11           -1.8692    -2.7076     0.6360 C.ar    
  12 C12            2.0187     3.4868    -0.0010 C.ar    
  13 C13            3.3157     3.8556     0.3581 C.ar    
  14 C14            3.7119     5.1722     0.2438 C.ar    
  15 C15            2.8263     6.1260    -0.2253 C.ar    
  16 C16            1.5390     5.7668    -0.5831 C.ar    
  17 C17            1.1322     4.4526    -0.4789 C.ar    
  18 C18            3.8803     1.0202     0.2001 C.3     
  19 C19            4.3859     1.1965     1.6088 C.2     
  20 O20            3.6000     1.2923     2.5276 O.2     
  21 N21            5.7113     1.2476     1.8476 N.am    
  22 C22            6.2260     1.4191     3.2146 C.3     
  23 C23            6.6815     1.1272     0.7487 C.3     
  24 C24            7.7049     0.0484     1.1189 C.3     
  25 N25            8.2877     0.3604     2.4307 N.3     
  26 C26            7.2682     0.3282     3.4828 C.3     
  27 C27            9.3310    -0.5004     2.7244 C.ar    
  28 N28           10.3456    -0.5993     1.8782 N.ar    
  29 N29            9.2938    -1.2020     3.8478 N.ar    
  30 C30           10.2747    -2.0332     4.1586 C.ar    
  31 C31           11.3492    -2.1648     3.2930 C.ar    
  32 C32           11.3585    -1.4122     2.1291 C.ar    
  33 O33           -4.4931    -0.2013     0.1422 O.3     
  34 C34           -5.5977    -1.0771    -0.1057 C.3     
  35 C35           -5.4836    -2.2648     0.8586 C.3     
  36 N36           -4.2490    -2.9975     0.5548 N.3     
  37 C37           -4.0280    -4.0807     1.5221 C.3     
  38 H38            1.9575    -1.1378     0.3871 H       
  39 H39            0.2344    -2.3508     0.6829 H       
  40 H40           -2.2445     1.0810     0.0375 H       
  41 H41           -1.7655    -3.7696     0.8030 H       
  42 H42            4.0077     3.1121     0.7251 H       
  43 H43            4.7155     5.4589     0.5214 H       
  44 H44            3.1411     7.1554    -0.3123 H       
  45 H45            0.8523     6.5161    -0.9482 H       
  46 H46            0.1270     4.1734    -0.7584 H       
  47 H47            4.2575     0.0819    -0.2066 H       
  48 H48            4.2272     1.8491    -0.4169 H       
  49 H49            6.6903     2.4006     3.3107 H       
  50 H50            5.4074     1.3267     3.9284 H       
  51 H51            6.1639     0.8420    -0.1672 H       
  52 H52            7.1904     2.0802     0.6035 H       
  53 H53            7.2108    -0.9222     1.1620 H       
  54 H54            8.4939     0.0223     0.3673 H       
  55 H55            7.7383     0.5046     4.4503 H       
  56 H56            6.7808    -0.6468     3.4872 H       
  57 H57           10.2390    -2.6021     5.0759 H       
  58 H58           12.1636    -2.8360     3.5225 H       
  59 H59           12.1809    -1.4915     1.4336 H       
  60 H60           -6.5344    -0.5481     0.0699 H       
  61 H61           -5.5620    -1.4333    -1.1353 H       
  62 H62           -5.4496    -1.9005     1.8854 H       
  63 H63           -6.3417    -2.9245     0.7299 H       
  64 H64           -4.9156    -4.7114     1.5703 H       
  65 H65           -3.1733    -4.6797     1.2078 H       
  66 H66           -3.8311    -3.6547     2.5059 H       
@<TRIPOS>BOND
   1    1    2 1
   2    1    5 2
   3    2    3 2
   4    2    6 1
   5    3    4 1
   6    3   38 1
   7    4    5 1
   8    4   18 1
   9    5   12 1
  10    6    7 ar
  11    6    8 ar
  12    7   11 ar
  13    7   39 1
  14    8    9 ar
  15    8   40 1
  16    9   10 ar
  17    9   33 1
  18   10   11 ar
  19   10   36 1
  20   11   41 1
  21   12   13 ar
  22   12   17 ar
  23   13   14 ar
  24   13   42 1
  25   14   15 ar
  26   14   43 1
  27   15   16 ar
  28   15   44 1
  29   16   17 ar
  30   16   45 1
  31   17   46 1
  32   18   19 1
  33   18   47 1
  34   18   48 1
  35   19   20 2
  36   19   21 am
  37   21   22 1
  38   21   23 1
  39   22   26 1
  40   22   49 1
  41   22   50 1
  42   23   24 1
  43   23   51 1
  44   23   52 1
  45   24   25 1
  46   24   53 1
  47   24   54 1
  48   25   26 1
  49   25   27 1
  50   26   55 1
  51   26   56 1
  52   27   28 ar
  53   27   29 ar
  54   28   32 ar
  55   29   30 ar
  56   30   31 ar
  57   30   57 1
  58   31   32 ar
  59   31   58 1
  60   32   59 1
  61   33   34 1
  62   34   35 1
  63   34   60 1
  64   34   61 1
  65   35   36 1
  66   35   62 1
  67   35   63 1
  68   36   37 1
  69   37   64 1
  70   37   65 1
  71   37   66 1

#	End of record

