#	Name: ASD01885780
#	Creating user name:	WinNT
#	Creation time:	15. 06. 2019 19:50

#	Modifying user name:	WinNT
#	Modification time:	15. 06. 2019 19:50

#	Program:	/corina/corina34_cracker 3.40 0067  02.08.2006

@<TRIPOS>MOLECULE
ASD01885780
  57   59    0    0    0
SMALL
NO_CHARGES


@<TRIPOS>ATOM
   1 C1            -0.0160     1.3289     0.0093 C.ar    
   2 C2            -1.2537     2.0210     0.0189 C.ar    
   3 C3            -2.4927     1.2417     0.0209 C.ar    
   4 C4            -2.3735    -0.1467     0.0133 C.ar    
   5 C5            -1.1019    -0.7255     0.0042 C.ar    
   6 N6             0.0021    -0.0041     0.0020 N.ar    
   7 C7             1.1280     3.4322     0.0093 C.ar    
   8 C8            -0.0908     4.1061     0.0248 C.ar    
   9 C9            -1.2692     3.4193     0.0266 C.ar    
  10 C10           -3.8116     1.8982     0.0311 C.2     
  11 C11           -0.9896    -2.2040    -0.0045 C.2     
  12 C12            2.4115     4.2220     0.0082 C.3     
  13 N13            2.8383     4.4645     1.3928 N.3     
  14 C14            1.1792     2.0720     0.0019 C.ar    
  15 N15            0.2253    -2.7875    -0.0143 N.am    
  16 O16           -1.9927    -2.8895    -0.0027 O.2     
  17 C17            4.1984     5.0210     1.4350 C.3     
  18 C18            4.5794     5.3134     2.8887 C.3     
  19 O19            4.4613     4.1135     3.6578 O.3     
  20 C20            3.1492     3.5447     3.6394 C.3     
  21 C21            2.7537     3.2343     2.1933 C.3     
  22 C22            6.0228     5.8176     2.9470 C.3     
  23 F23            6.1387     6.9886     2.1903 F       
  24 F24            6.3702     6.0846     4.2756 F       
  25 F25            6.8793     4.8406     2.4283 F       
  26 C26           -4.8555     1.6358    -0.8019 C.2     
  27 N27           -5.8613     2.4500    -0.4556 N.2     
  28 C28           -5.4791     3.1931     0.5462 C.2     
  29 O29           -4.2204     2.8733     0.8736 O.3     
  30 C30           -6.3210     4.2397     1.2293 C.3     
  31 H31           -3.2558    -0.7695     0.0147 H       
  32 H32           -0.1030     5.1860     0.0359 H       
  33 H33           -2.2086     3.9522     0.0335 H       
  34 H34            3.1837     3.6598    -0.5169 H       
  35 H35            2.2509     5.1756    -0.4948 H       
  36 H36            2.1329     1.5653    -0.0092 H       
  37 H37            1.0262    -2.2402    -0.0157 H       
  38 H38            0.2988    -3.7547    -0.0200 H       
  39 H39            4.8995     4.3011     1.0127 H       
  40 H40            4.2319     5.9446     0.8571 H       
  41 H41            3.9112     6.0731     3.2943 H       
  42 H42            3.1432     2.6247     4.2238 H       
  43 H43            2.4394     4.2529     4.0668 H       
  44 H44            1.7326     2.8537     2.1689 H       
  45 H45            3.4317     2.4858     1.7832 H       
  46 H46           -4.8700     0.9050    -1.5970 H       
  47 H47           -6.8707     3.7834     2.0525 H       
  48 H48           -5.6763     5.0289     1.6163 H       
  49 H49           -7.0249     4.6640     0.5134 H       
  50 C50           12.8812    13.8957    10.1808 C.3     
  51 C51           12.9019    12.3659    10.1724 C.3     
  52 H52           13.9038    14.2730    10.1731 H       
  53 H53           12.3540    14.2568     9.2977 H       
  54 H54           12.3710    14.2472    11.0776 H       
  55 H55           13.4291    12.0048    11.0554 H       
  56 H56           11.8793    11.9886    10.1801 H       
  57 H57           13.4121    12.0144     9.2756 H       
@<TRIPOS>BOND
   1    1    6 ar
   2    1   14 ar
   3    1    2 ar
   4    2    3 ar
   5    2    9 ar
   6    3   10 1
   7    3    4 ar
   8    4    5 ar
   9    4   31 1
  10    5   11 1
  11    5    6 ar
  12    7   12 1
  13    7    8 ar
  14    7   14 ar
  15    8    9 ar
  16    8   32 1
  17    9   33 1
  18   10   26 2
  19   10   29 1
  20   11   15 am
  21   11   16 2
  22   12   13 1
  23   12   34 1
  24   12   35 1
  25   13   17 1
  26   13   21 1
  27   14   36 1
  28   15   37 1
  29   15   38 1
  30   17   18 1
  31   17   39 1
  32   17   40 1
  33   18   19 1
  34   18   22 1
  35   18   41 1
  36   19   20 1
  37   20   21 1
  38   20   42 1
  39   20   43 1
  40   21   44 1
  41   21   45 1
  42   22   23 1
  43   22   24 1
  44   22   25 1
  45   26   27 1
  46   26   46 1
  47   27   28 2
  48   28   29 1
  49   28   30 1
  50   30   47 1
  51   30   48 1
  52   30   49 1
  53   50   51 1
  54   50   52 1
  55   50   53 1
  56   50   54 1
  57   51   55 1
  58   51   56 1
  59   51   57 1

#	End of record

