#	Name: ASD03730392
#	Creating user name:	WinNT
#	Creation time:	15. 06. 2019 20:44

#	Modifying user name:	WinNT
#	Modification time:	15. 06. 2019 20:44

#	Program:	/corina/corina34_cracker 3.40 0067  02.08.2006

@<TRIPOS>MOLECULE
ASD03730392
  69   74    0    0    0
SMALL
NO_CHARGES


@<TRIPOS>ATOM
   1 C1            -0.1555     1.4825    -0.6487 C.2     
   2 C2            -0.1581     0.0082    -0.7586 C.ar    
   3 C3             1.0341    -0.6794    -0.9908 C.ar    
   4 C4             1.0248    -2.0553    -1.0919 C.ar    
   5 C5            -0.1628    -2.7534    -0.9641 C.ar    
   6 C6            -1.3482    -2.0779    -0.7338 C.ar    
   7 C7            -1.3519    -0.7026    -0.6249 C.ar    
   8 O8             0.8864     2.0985    -0.7605 O.2     
   9 N9            -1.3093     2.1440    -0.4299 N.am    
  10 C10           -0.1655    -4.2562    -1.0767 C.3     
  11 O11           -1.3387    -1.9383     5.6272 O.3     
  12 C12           -1.3662    -2.1195     7.0553 C.3     
  13 O13           -1.8524    -3.4646     7.2204 O.3     
  14 C14           -1.4865    -4.1279     6.0842 C.ar    
  15 C15           -1.1717    -3.1888     5.1046 C.ar    
  16 C16           -1.3940    -5.4790     5.8022 C.ar    
  17 C17           -0.9892    -5.9103     4.5425 C.ar    
  18 C18           -0.6854    -4.9628     3.5697 C.ar    
  19 C19           -0.7707    -3.6149     3.8496 C.ar    
  20 O20           -0.8174    -7.1776     4.0685 O.3     
  21 C21           -0.3144    -5.7275     2.3273 C.3     
  22 C22           -0.8086    -7.1490     2.6282 C.3     
  23 N23            0.0403    -4.8455     0.2487 N.am    
  24 C24           -0.9597    -5.1592     1.0963 C.2     
  25 C25            1.1603    -5.6936     2.0551 C.ar    
  26 C26            2.2701    -6.0705     2.7779 C.ar    
  27 C27            3.5346    -5.9107     2.2398 C.ar    
  28 C28            3.6812    -5.3709     0.9748 C.ar    
  29 C29            2.5727    -4.9910     0.2473 C.ar    
  30 C30            1.2959    -5.1486     0.7809 C.ar    
  31 O31           -2.1479    -5.0117     0.9025 O.2     
  32 C32           -1.3067     3.6049    -0.3210 C.3     
  33 C33           -2.7332     4.1004    -0.0747 C.3     
  34 N34           -2.7306     5.5654     0.0346 N.3     
  35 C35           -4.1006     6.0957     0.0339 C.3     
  36 C36           -4.6623     6.0553    -1.3887 C.3     
  37 C37           -1.9974     6.0028     1.2300 C.3     
  38 C38           -1.6735     7.4936     1.1125 C.3     
  39 H39            1.9618    -0.1356    -1.0915 H       
  40 H40            1.9467    -2.5886    -1.2716 H       
  41 H41           -2.2718    -2.6287    -0.6350 H       
  42 H42           -2.2771    -0.1768    -0.4407 H       
  43 H43           -2.1413     1.6527    -0.3447 H       
  44 H44           -1.1230    -4.5888    -1.4774 H       
  45 H45            0.6369    -4.5720    -1.7434 H       
  46 H46           -0.3643    -2.0205     7.4733 H       
  47 H47           -2.0478    -1.4063     7.5188 H       
  48 H48           -1.6376    -6.2040     6.5647 H       
  49 H49           -0.5244    -2.8900     3.0878 H       
  50 H50           -0.1168    -7.8916     2.2305 H       
  51 H51           -1.8123    -7.3019     2.2318 H       
  52 H52            2.1533    -6.4916     3.7655 H       
  53 H53            4.4052    -6.2070     2.8060 H       
  54 H54            4.6683    -5.2460     0.5549 H       
  55 H55            2.6952    -4.5697    -0.7396 H       
  56 H56           -0.6689     3.9062     0.5100 H       
  57 H57           -0.9265     4.0376    -1.2463 H       
  58 H58           -3.3710     3.7992    -0.9056 H       
  59 H59           -3.1134     3.6677     0.8507 H       
  60 H60           -4.7256     5.4885     0.6887 H       
  61 H61           -4.0918     7.1252     0.3920 H       
  62 H62           -5.7066     6.3676    -1.3759 H       
  63 H63           -4.0892     6.7296    -2.0250 H       
  64 H64           -4.5915     5.0399    -1.7786 H       
  65 H65           -2.6107     5.8329     2.1149 H       
  66 H66           -1.0707     5.4354     1.3157 H       
  67 H67           -1.0500     7.7973     1.9534 H       
  68 H68           -1.1402     7.6771     0.1798 H       
  69 H69           -2.5996     8.0683     1.1207 H       
@<TRIPOS>BOND
   1    1    2 1
   2    1    8 2
   3    1    9 am
   4    2    3 ar
   5    2    7 ar
   6    3    4 ar
   7    3   39 1
   8    4    5 ar
   9    4   40 1
  10    5    6 ar
  11    5   10 1
  12    6    7 ar
  13    6   41 1
  14    7   42 1
  15    9   32 1
  16    9   43 1
  17   10   23 1
  18   10   44 1
  19   10   45 1
  20   11   12 1
  21   11   15 1
  22   12   13 1
  23   12   46 1
  24   12   47 1
  25   13   14 1
  26   14   15 ar
  27   14   16 ar
  28   15   19 ar
  29   16   17 ar
  30   16   48 1
  31   17   18 ar
  32   17   20 1
  33   18   19 ar
  34   18   21 1
  35   19   49 1
  36   20   22 1
  37   21   22 1
  38   21   24 1
  39   21   25 1
  40   22   50 1
  41   22   51 1
  42   23   24 am
  43   23   30 1
  44   24   31 2
  45   25   26 ar
  46   25   30 ar
  47   26   27 ar
  48   26   52 1
  49   27   28 ar
  50   27   53 1
  51   28   29 ar
  52   28   54 1
  53   29   30 ar
  54   29   55 1
  55   32   33 1
  56   32   56 1
  57   32   57 1
  58   33   34 1
  59   33   58 1
  60   33   59 1
  61   34   35 1
  62   34   37 1
  63   35   36 1
  64   35   60 1
  65   35   61 1
  66   36   62 1
  67   36   63 1
  68   36   64 1
  69   37   38 1
  70   37   65 1
  71   37   66 1
  72   38   67 1
  73   38   68 1
  74   38   69 1

#	End of record

