#	Name: ASD02500760
#	Creating user name:	WinNT
#	Creation time:	15. 06. 2019 20:23

#	Modifying user name:	WinNT
#	Modification time:	15. 06. 2019 20:23

#	Program:	/corina/corina34_cracker 3.40 0067  02.08.2006

@<TRIPOS>MOLECULE
ASD02500760
  52   55    0    0    0
SMALL
NO_CHARGES


@<TRIPOS>ATOM
   1 O1            -0.0164     1.3573     0.0095 O.3     
   2 C2             0.0021    -0.0041     0.0020 C.ar    
   3 C3             1.1561    -0.7105    -0.3165 C.ar    
   4 N4             2.3537    -0.0628    -0.6362 N.3     
   5 C5             2.1361     1.3288    -1.0485 C.3     
   6 C6             1.2537     2.0174     0.0009 C.3     
   7 C7             1.1304    -2.1012    -0.3182 C.ar    
   8 C8            -0.0326    -2.7757    -0.0023 C.ar    
   9 C9            -1.1779    -2.0711     0.3174 C.ar    
  10 C10           -1.1618    -0.6890     0.3198 C.ar    
  11 C11            3.0963    -0.8060    -1.6629 C.3     
  12 S12           -0.0566    -4.5376    -0.0074 S.o2    
  13 O13           -1.4114    -4.9199    -0.2015 O.2     
  14 O14            0.9981    -4.9507    -0.8654 O.2     
  15 N15            0.3568    -5.0378     1.5161 N.am    
  16 C16           -0.6760    -5.2482     2.5403 C.3     
  17 C17           -0.5453    -6.6772     3.0818 C.3     
  18 N18            0.8609    -6.9192     3.4338 N.am    
  19 C19            1.8937    -6.7089     2.4096 C.3     
  20 C20            1.7625    -5.2853     1.8665 C.3     
  21 S21            1.2743    -7.4196     4.9573 S.o2    
  22 O22            2.6292    -7.0377     5.1512 O.2     
  23 O23            0.2198    -7.0059     5.8154 O.2     
  24 C24            1.2496    -9.1814     4.9523 C.ar    
  25 C25            2.3952    -9.8892     4.6319 C.ar    
  26 C26            2.3747   -11.2737     4.6283 C.ar    
  27 C27            1.2109   -11.9490     4.9445 C.ar    
  28 C28            0.0665   -11.2433     5.2646 C.ar    
  29 C29            0.0862    -9.8587     5.2744 C.ar    
  30 F30           -1.0310    -9.1692     5.5932 F       
  31 F31            3.5328    -9.2294     4.3224 F       
  32 H32            3.0941     1.8444    -1.1163 H       
  33 H33            1.6369     1.3497    -2.0172 H       
  34 H34            1.1218     3.0674    -0.2599 H       
  35 H35            1.7180     1.9363     0.9837 H       
  36 H36            2.0230    -2.6556    -0.5677 H       
  37 H37           -2.0860    -2.6008     0.5651 H       
  38 H38           -2.0579    -0.1406     0.5702 H       
  39 H39            2.4896    -0.8842    -2.5651 H       
  40 H40            4.0232    -0.2805    -1.8928 H       
  41 H41            3.3272    -1.8049    -1.2927 H       
  42 H42           -0.5363    -4.5350     3.3527 H       
  43 H43           -1.6629    -5.1135     2.0977 H       
  44 H44           -1.1691    -6.7909     3.9684 H       
  45 H45           -0.8587    -7.3881     2.3174 H       
  46 H46            2.8806    -6.8435     2.8522 H       
  47 H47            1.7539    -7.4221     1.5973 H       
  48 H48            2.3855    -5.1752     0.9789 H       
  49 H49            2.0798    -4.5748     2.6297 H       
  50 H50            3.2683   -11.8262     4.3780 H       
  51 H51            1.1958   -13.0288     4.9410 H       
  52 H52           -0.8424   -11.7720     5.5111 H       
@<TRIPOS>BOND
   1    1    2 1
   2    1    6 1
   3    2    3 ar
   4    2   10 ar
   5    3    4 1
   6    3    7 ar
   7    4    5 1
   8    4   11 1
   9    5    6 1
  10    5   32 1
  11    5   33 1
  12    6   34 1
  13    6   35 1
  14    7    8 ar
  15    7   36 1
  16    8    9 ar
  17    8   12 1
  18    9   10 ar
  19    9   37 1
  20   10   38 1
  21   11   39 1
  22   11   40 1
  23   11   41 1
  24   12   13 2
  25   12   14 2
  26   12   15 am
  27   15   16 1
  28   15   20 1
  29   16   17 1
  30   16   42 1
  31   16   43 1
  32   17   18 1
  33   17   44 1
  34   17   45 1
  35   18   19 1
  36   18   21 am
  37   19   20 1
  38   19   46 1
  39   19   47 1
  40   20   48 1
  41   20   49 1
  42   21   22 2
  43   21   23 2
  44   21   24 1
  45   24   25 ar
  46   24   29 ar
  47   25   26 ar
  48   25   31 1
  49   26   27 ar
  50   26   50 1
  51   27   28 ar
  52   27   51 1
  53   28   29 ar
  54   28   52 1
  55   29   30 1

#	End of record

