#	Name: ASD04230174
#	Creating user name:	WinNT
#	Creation time:	15. 06. 2019 20:48

#	Modifying user name:	WinNT
#	Modification time:	15. 06. 2019 20:48

#	Program:	/corina/corina34_cracker 3.40 0067  02.08.2006

@<TRIPOS>MOLECULE
ASD04230174
  35   38    0    0    0
SMALL
NO_CHARGES


@<TRIPOS>ATOM
   1 C1             0.0760     1.3678     0.8453 C.2     
   2 C2             0.0730    -0.0864     0.6254 C.ar    
   3 C3            -1.1597    -0.7688     0.5508 C.ar    
   4 C4            -2.3846    -0.0756     0.6838 C.ar    
   5 C5            -2.3995     1.3252     0.8957 C.2     
   6 C6            -1.2116     2.0544     0.9855 C.2     
   7 C7             1.2657    -0.7951     0.4909 C.ar    
   8 C8             1.2449    -2.1631     0.2848 C.ar    
   9 C9             0.0501    -2.8498     0.2082 C.ar    
  10 C10           -1.1627    -2.1665     0.3393 C.ar    
  11 C11           -2.4425    -2.8673     0.2625 C.ar    
  12 C12           -3.6232    -2.1386     0.4000 C.ar    
  13 C13           -3.5962    -0.7810     0.6047 C.ar    
  14 O14            1.1247     1.9868     0.9145 O.2     
  15 S15           -2.4930    -4.6088    -0.0008 S.3     
  16 C16           -4.2241    -4.8931     0.1643 C.ar    
  17 C17           -5.0401    -4.8936    -0.9608 C.ar    
  18 C18           -6.3962    -5.1167    -0.8281 C.ar    
  19 C19           -6.9431    -5.3391     0.4235 C.ar    
  20 C20           -6.1333    -5.3393     1.5458 C.ar    
  21 C21           -4.7755    -5.1230     1.4191 C.ar    
  22 Br22          -8.8011    -5.6430     0.6008 Br      
  23 C23           -1.2517     3.4697     1.2005 C.1     
  24 N24           -1.2834     4.5923     1.3710 N.1     
  25 C25           -3.6536     2.0039     1.0262 C.1     
  26 N26           -4.6485     2.5424     1.1298 N.1     
  27 H27            2.2100    -0.2742     0.5475 H       
  28 H28            2.1760    -2.7007     0.1822 H       
  29 H29            0.0520    -3.9176     0.0462 H       
  30 H30           -4.5731    -2.6494     0.3444 H       
  31 H31           -4.5275    -0.2439     0.7072 H       
  32 H32           -4.6140    -4.7193    -1.9378 H       
  33 H33           -7.0309    -5.1171    -1.7019 H       
  34 H34           -6.5632    -5.5129     2.5212 H       
  35 H35           -4.1440    -5.1236     2.2952 H       
@<TRIPOS>BOND
   1    1    2 1
   2    1   14 2
   3    1    6 1
   4    2    3 ar
   5    2    7 ar
   6    3    4 ar
   7    3   10 ar
   8    4    5 1
   9    4   13 ar
  10    5    6 2
  11    5   25 1
  12    6   23 1
  13    7    8 ar
  14    7   27 1
  15    8    9 ar
  16    8   28 1
  17    9   10 ar
  18    9   29 1
  19   10   11 ar
  20   11   12 ar
  21   11   15 1
  22   12   13 ar
  23   12   30 1
  24   13   31 1
  25   15   16 1
  26   16   17 ar
  27   16   21 ar
  28   17   18 ar
  29   17   32 1
  30   18   19 ar
  31   18   33 1
  32   19   20 ar
  33   19   22 1
  34   20   21 ar
  35   20   34 1
  36   21   35 1
  37   23   24 3
  38   25   26 3

#	End of record

