#	Name: ASD03081298
#	Creating user name:	WinNT
#	Creation time:	15. 06. 2019 20:27

#	Modifying user name:	WinNT
#	Modification time:	15. 06. 2019 20:27

#	Program:	/corina/corina34_cracker 3.40 0067  02.08.2006

@<TRIPOS>MOLECULE
ASD03081298
  29   31    0    0    0
SMALL
NO_CHARGES


@<TRIPOS>ATOM
   1 O1            -0.0162     1.3444     0.0094 O.3     
   2 C2             0.0021    -0.0041     0.0020 C.2     
   3 N3             1.2607    -0.3805    -0.0120 N.2     
   4 N4             2.0177     0.6597    -0.0137 N.2     
   5 C5             1.2725     1.7416    -0.0007 C.2     
   6 C6             1.7573     3.1372     0.0021 C.ar    
   7 C7             3.1280     3.4036    -0.0095 C.ar    
   8 C8             3.5737     4.7088    -0.0067 C.ar    
   9 C9             2.6660     5.7533     0.0081 C.ar    
  10 C10            1.3066     5.4965     0.0197 C.ar    
  11 C11            0.8471     4.1956     0.0107 C.ar    
  12 C12            5.0526     4.9982    -0.0193 C.3     
  13 F13            5.4976     5.0949    -1.3421 F       
  14 F14            5.2973     6.2052     0.6444 F       
  15 F15            5.7358     3.9632     0.6281 F       
  16 C16           -2.4679    -0.3631     0.0237 C.ar    
  17 C17           -1.1769    -0.8945     0.0085 C.ar    
  18 C18           -1.0185    -2.2856    -0.0010 C.ar    
  19 C19           -2.1550    -3.0751     0.0052 C.ar    
  20 C20           -3.3991    -2.4709     0.0204 C.ar    
  21 N21           -3.5184    -1.1569     0.0290 N.ar    
  22 H22            3.8374     2.5894    -0.0204 H       
  23 H23            3.0203     6.7735     0.0109 H       
  24 H24            0.6036     6.3162     0.0312 H       
  25 H25           -0.2144     3.9965     0.0153 H       
  26 H26           -2.6059     0.7079     0.0356 H       
  27 H27           -0.0347    -2.7310    -0.0131 H       
  28 H28           -2.0715    -4.1518    -0.0021 H       
  29 H29           -4.2876    -3.0848     0.0248 H       
@<TRIPOS>BOND
   1    1    2 1
   2    1    5 1
   3    2    3 2
   4    2   17 1
   5    3    4 1
   6    4    5 2
   7    5    6 1
   8    6    7 ar
   9    6   11 ar
  10    7    8 ar
  11    7   22 1
  12    8    9 ar
  13    8   12 1
  14    9   10 ar
  15    9   23 1
  16   10   11 ar
  17   10   24 1
  18   11   25 1
  19   12   13 1
  20   12   14 1
  21   12   15 1
  22   16   17 ar
  23   16   21 ar
  24   16   26 1
  25   17   18 ar
  26   18   19 ar
  27   18   27 1
  28   19   20 ar
  29   19   28 1
  30   20   21 ar
  31   20   29 1

#	End of record

