#	Name: ASD00111088
#	Creating user name:	WinNT
#	Creation time:	15. 06. 2019 18:30

#	Modifying user name:	WinNT
#	Modification time:	15. 06. 2019 18:30

#	Program:	/corina/corina34_cracker 3.40 0067  02.08.2006

@<TRIPOS>MOLECULE
ASD00111088
  35   37    0    0    0
SMALL
NO_CHARGES


@<TRIPOS>ATOM
   1 N1            -0.0178     1.4642     0.0101 N.3     
   2 C2             0.0021    -0.0041     0.0020 C.3     
   3 C3             0.6954    -0.4696    -1.2775 C.3     
   4 C4             2.1764    -0.6593    -1.0621 C.ar    
   5 C5             2.8951     0.0673    -0.1385 C.ar    
   6 C6             2.2383     1.0598     0.7843 C.3     
   7 C7             1.3371     2.0182     0.0001 C.3     
   8 C8             4.2647    -0.1202    -0.0247 C.ar    
   9 C9             4.9120    -1.0575    -0.8122 C.ar    
  10 C10            4.1824    -1.8108    -1.7214 C.ar    
  11 C11            2.8234    -1.6083    -1.8438 C.ar    
  12 O12            6.2541    -1.2383    -0.6958 O.3     
  13 C13            6.9376    -0.4262     0.2609 C.3     
  14 C14            0.0805    -1.7970    -1.7257 C.3     
  15 C15           -1.4163    -1.8110    -2.0421 C.3     
  16 C16           -0.3938    -1.9017    -3.1766 C.3     
  17 Br17           5.0482    -3.1096    -2.7887 Br      
  18 H18           -0.5608     1.8227    -0.7611 H       
  19 H19            0.5509    -0.3685     0.8704 H       
  20 H20           -1.0188    -0.3852     0.0259 H       
  21 H21            0.5411     0.2754    -2.0581 H       
  22 H22            1.6380     0.5235     1.5192 H       
  23 H23            3.0081     1.6332     1.3008 H       
  24 H24            1.6936     2.1039    -1.0263 H       
  25 H25            1.3386     2.9990     0.4756 H       
  26 H26            4.8300     0.4688     0.6823 H       
  27 H27            2.2572    -2.1928    -2.5539 H       
  28 H28            6.8048     0.6252     0.0060 H       
  29 H29            6.5296    -0.6136     1.2542 H       
  30 H30            7.9998    -0.6708     0.2524 H       
  31 H31            0.5070    -2.6904    -1.2696 H       
  32 H32           -1.9746    -2.7139    -1.7944 H       
  33 H33           -1.9631    -0.8747    -1.9309 H       
  34 H34           -0.2678    -1.0249    -3.8118 H       
  35 H35           -0.2793    -2.8641    -3.6753 H       
@<TRIPOS>BOND
   1    1    2 1
   2    1    7 1
   3    1   18 1
   4    2    3 1
   5    2   19 1
   6    2   20 1
   7    3    4 1
   8    3   14 1
   9    3   21 1
  10    4    5 ar
  11    4   11 ar
  12    5    6 1
  13    5    8 ar
  14    6    7 1
  15    6   22 1
  16    6   23 1
  17    7   24 1
  18    7   25 1
  19    8    9 ar
  20    8   26 1
  21    9   10 ar
  22    9   12 1
  23   10   11 ar
  24   10   17 1
  25   11   27 1
  26   12   13 1
  27   13   28 1
  28   13   29 1
  29   13   30 1
  30   14   15 1
  31   14   16 1
  32   14   31 1
  33   15   16 1
  34   15   32 1
  35   15   33 1
  36   16   34 1
  37   16   35 1

#	End of record

