#	Name: ASD03240111
#	Creating user name:	WinNT
#	Creation time:	15. 06. 2019 20:34

#	Modifying user name:	WinNT
#	Modification time:	15. 06. 2019 20:34

#	Program:	/corina/corina34_cracker 3.40 0067  02.08.2006

@<TRIPOS>MOLECULE
ASD03240111
  69   75    0    0    0
SMALL
NO_CHARGES


@<TRIPOS>ATOM
   1 C1            -0.0172     1.4170     0.0098 C.ar    
   2 C2             0.0021    -0.0041     0.0020 C.ar    
   3 C3             1.1950     2.1249     0.0021 C.ar    
   4 C4             2.3740     1.3955    -0.0132 C.ar    
   5 C5             2.3165    -0.0175    -0.0203 C.ar    
   6 N6             1.1639    -0.6587    -0.0122 N.ar    
   7 C7             3.5776    -0.7941    -0.0370 C.ar    
   8 C8             3.6829     2.0905    -0.0224 C.ar    
   9 C9             3.9286     3.1081    -0.9435 C.ar    
  10 C10            5.1491     3.7519    -0.9470 C.ar    
  11 C11            6.1280     3.3896    -0.0391 C.ar    
  12 C12            5.8902     2.3805     0.8769 C.ar    
  13 C13            4.6715     1.7334     0.8937 C.ar    
  14 C14            3.6627    -2.0063     0.6475 C.ar    
  15 C15            4.8401    -2.7254     0.6277 C.ar    
  16 C16            5.9351    -2.2460    -0.0689 C.ar    
  17 C17            5.8570    -1.0442    -0.7498 C.ar    
  18 C18            4.6832    -0.3188    -0.7422 C.ar    
  19 C19            7.2184    -3.0358    -0.0856 C.3     
  20 N20           -1.1658    -0.6561     0.0097 N.ar    
  21 C21           -2.3036     0.0125     0.0241 C.ar    
  22 N22           -2.3566     1.3443     0.0317 N.ar    
  23 C23           -1.2609     2.0742     0.0311 C.ar    
  24 N24            7.2079    -3.9632    -1.2248 N.3     
  25 C25            8.5278    -4.5778    -1.4153 C.3     
  26 C26            8.5195    -5.4219    -2.6918 C.3     
  27 C27            7.4435    -6.5050    -2.5747 C.3     
  28 C28            6.0862    -5.8405    -2.3285 C.3     
  29 C29            6.1651    -4.9843    -1.0625 C.3     
  30 C30            7.3898    -7.3018    -3.8527 C.2     
  31 N31            6.6917    -6.9800    -4.9673 N.pl3   
  32 C32            6.9372    -7.9827    -5.8662 C.2     
  33 N33            7.7443    -8.8368    -5.2769 N.2     
  34 N34            8.0129    -8.4260    -4.0886 N.2     
  35 C35            6.3964    -8.0860    -7.2392 C.ar    
  36 C36            6.7415    -9.1754    -8.0385 C.ar    
  37 C37            6.2270    -9.2581    -9.3208 C.ar    
  38 C38            5.3838    -8.2486    -9.7628 C.ar    
  39 C39            5.0831    -7.1962    -8.9168 C.ar    
  40 N40            5.5817    -7.1434    -7.6991 N.ar    
  41 C41           -3.5321    -0.7233     0.0315 C.1     
  42 N42           -4.5066    -1.3070     0.0373 N.1     
  43 H43            1.2088     3.2048     0.0074 H       
  44 H44            3.1653     3.3915    -1.6530 H       
  45 H45            5.3407     4.5400    -1.6602 H       
  46 H46            7.0817     3.8963    -0.0456 H       
  47 H47            6.6583     2.1016     1.5831 H       
  48 H48            4.4870     0.9457     1.6092 H       
  49 H49            2.8088    -2.3813     1.1921 H       
  50 H50            4.9072    -3.6642     1.1573 H       
  51 H51            6.7152    -0.6749    -1.2914 H       
  52 H52            4.6233     0.6191    -1.2744 H       
  53 H53            8.0636    -2.3539    -0.1800 H       
  54 H54            7.3094    -3.6009     0.8421 H       
  55 H55           -1.3157     3.1528     0.0373 H       
  56 H56            9.2832    -3.7967    -1.5013 H       
  57 H57            8.7590    -5.2139    -0.5608 H       
  58 H58            8.3020    -4.7840    -3.5485 H       
  59 H59            9.4946    -5.8905    -2.8246 H       
  60 H60            7.6817    -7.1665    -1.7417 H       
  61 H61            5.8304    -5.2092    -3.1794 H       
  62 H62            5.3229    -6.6082    -2.2016 H       
  63 H63            6.4073    -5.6184    -0.2097 H       
  64 H64            5.2043    -4.4984    -0.8922 H       
  65 H65            6.1321    -6.1991    -5.1013 H       
  66 H66            7.4011    -9.9435    -7.6624 H       
  67 H67            6.4766   -10.0897    -9.9632 H       
  68 H68            4.9665    -8.2841   -10.7583 H       
  69 H69            4.4271    -6.4091    -9.2583 H       
@<TRIPOS>BOND
   1    1    2 ar
   2    1    3 ar
   3    1   23 ar
   4    2   20 ar
   5    2    6 ar
   6    3    4 ar
   7    3   43 1
   8    4    5 ar
   9    4    8 1
  10    5    6 ar
  11    5    7 1
  12    7   14 ar
  13    7   18 ar
  14    8    9 ar
  15    8   13 ar
  16    9   10 ar
  17    9   44 1
  18   10   11 ar
  19   10   45 1
  20   11   12 ar
  21   11   46 1
  22   12   13 ar
  23   12   47 1
  24   13   48 1
  25   14   15 ar
  26   14   49 1
  27   15   16 ar
  28   15   50 1
  29   16   17 ar
  30   16   19 1
  31   17   18 ar
  32   17   51 1
  33   18   52 1
  34   19   24 1
  35   19   53 1
  36   19   54 1
  37   20   21 ar
  38   21   22 ar
  39   21   41 1
  40   22   23 ar
  41   23   55 1
  42   24   25 1
  43   24   29 1
  44   25   26 1
  45   25   56 1
  46   25   57 1
  47   26   27 1
  48   26   58 1
  49   26   59 1
  50   27   28 1
  51   27   30 1
  52   27   60 1
  53   28   29 1
  54   28   61 1
  55   28   62 1
  56   29   63 1
  57   29   64 1
  58   30   31 1
  59   30   34 2
  60   31   32 1
  61   31   65 1
  62   32   33 2
  63   32   35 1
  64   33   34 1
  65   35   36 ar
  66   35   40 ar
  67   36   37 ar
  68   36   66 1
  69   37   38 ar
  70   37   67 1
  71   38   39 ar
  72   38   68 1
  73   39   40 ar
  74   39   69 1
  75   41   42 3

#	End of record

