#	Name: ASD01870457
#	Creating user name:	WinNT
#	Creation time:	15. 06. 2019 19:39

#	Modifying user name:	WinNT
#	Modification time:	15. 06. 2019 19:39

#	Program:	/corina/corina34_cracker 3.40 0067  02.08.2006

@<TRIPOS>MOLECULE
ASD01870457
  40   43    0    0    0
SMALL
NO_CHARGES


@<TRIPOS>ATOM
   1 F1             0.0021    -0.0041     0.0020 F       
   2 C2            -0.0162     1.3468     0.0094 C.ar    
   3 C3            -1.2242     2.0232     0.0304 C.ar    
   4 C4            -1.2417     3.4050     0.0379 C.ar    
   5 C5            -0.0538     4.1120     0.0246 C.ar    
   6 C6            -0.0742     5.6188     0.0333 C.3     
   7 O7            -0.0610     6.0876     1.3832 O.3     
   8 C8            -0.0766     7.4239     1.5677 C.2     
   9 O9            -0.1007     8.1701     0.6075 O.2     
  10 C10           -0.0645     7.9760     2.9238 C.2     
  11 S11           -0.0226     7.0126     4.3868 S.3     
  12 C12           -0.0319     8.4368     5.4200 C.ar    
  13 N13           -0.0112     8.5270     6.7531 N.ar    
  14 C14           -0.0219     9.6815     7.3768 C.ar    
  15 C15           -0.0556    10.8759     6.6724 C.ar    
  16 C16           -0.0782    10.8492     5.2962 C.ar    
  17 C17           -0.0662     9.5975     4.6404 C.ar    
  18 C18           -0.0784     9.3050     3.2148 C.2     
  19 C19           -0.1078    10.3574     2.1761 C.ar    
  20 C20            0.9752    11.2254     2.0271 C.ar    
  21 C21            0.9420    12.2049     1.0567 C.ar    
  22 C22           -0.1632    12.3286     0.2313 C.ar    
  23 Cl23          -0.1980    13.5643    -0.9875 Cl      
  24 C24           -1.2405    11.4701     0.3740 C.ar    
  25 C25           -1.2164    10.4830     1.3370 C.ar    
  26 C26            1.1529     3.4377     0.0037 C.ar    
  27 C27            1.1730     2.0559     0.0019 C.ar    
  28 H28           -2.1524     1.4711     0.0405 H       
  29 H29           -2.1838     3.9329     0.0539 H       
  30 H30            0.8032     5.9971    -0.4913 H       
  31 H31           -0.9764     5.9729    -0.4655 H       
  32 H32           -0.0046     9.7020     8.4565 H       
  33 H33           -0.0644    11.8188     7.1990 H       
  34 H34           -0.1042    11.7675     4.7285 H       
  35 H35            1.8373    11.1304     2.6707 H       
  36 H36            1.7793    12.8771     0.9405 H       
  37 H37           -2.0996    11.5713    -0.2726 H       
  38 H38           -2.0552     9.8112     1.4445 H       
  39 H39            2.0803     3.9910    -0.0071 H       
  40 H40            2.1158     1.5293    -0.0099 H       
@<TRIPOS>BOND
   1    1    2 1
   2    2   27 ar
   3    2    3 ar
   4    3    4 ar
   5    3   28 1
   6    4    5 ar
   7    4   29 1
   8    5    6 1
   9    5   26 ar
  10    6    7 1
  11    6   30 1
  12    6   31 1
  13    7    8 1
  14    8    9 2
  15    8   10 1
  16   10   18 2
  17   10   11 1
  18   11   12 1
  19   12   17 ar
  20   12   13 ar
  21   13   14 ar
  22   14   15 ar
  23   14   32 1
  24   15   16 ar
  25   15   33 1
  26   16   17 ar
  27   16   34 1
  28   17   18 1
  29   18   19 1
  30   19   25 ar
  31   19   20 ar
  32   20   21 ar
  33   20   35 1
  34   21   22 ar
  35   21   36 1
  36   22   23 1
  37   22   24 ar
  38   24   25 ar
  39   24   37 1
  40   25   38 1
  41   26   27 ar
  42   26   39 1
  43   27   40 1

#	End of record

