#	Name: ASD01914997
#	Creating user name:	WinNT
#	Creation time:	15. 06. 2019 20:04

#	Modifying user name:	WinNT
#	Modification time:	15. 06. 2019 20:04

#	Program:	/corina/corina34_cracker 3.40 0067  02.08.2006

@<TRIPOS>MOLECULE
ASD01914997
  36   38    0    0    0
SMALL
NO_CHARGES


@<TRIPOS>ATOM
   1 N1            -0.0158     1.3165     0.0093 N.ar    
   2 C2             0.0021    -0.0041     0.0020 C.ar    
   3 C3             1.1948    -0.7080    -0.0122 C.ar    
   4 C4             2.3913    -0.0108    -0.0190 C.ar    
   5 C5             2.3359     1.3836    -0.0115 C.ar    
   6 C6             3.5651     2.2024    -0.0170 C.2     
   7 N7             3.4903     3.4986     0.3478 N.am    
   8 C8             2.2309     4.0820     0.8023 C.3     
   9 C9             1.0507     3.5295     0.0069 C.3     
  10 C10            1.0944     2.0233     0.0025 C.ar    
  11 O11            4.6291     1.7148    -0.3453 O.2     
  12 C12            4.6917     4.3348     0.2876 C.3     
  13 C13            4.7873     4.9798    -1.0710 C.ar    
  14 C14            4.1996     6.2114    -1.2932 C.ar    
  15 C15            4.2858     6.8048    -2.5377 C.ar    
  16 C16            4.9629     6.1638    -3.5650 C.ar    
  17 C17            5.5517     4.9281    -3.3396 C.ar    
  18 C18            5.4675     4.3415    -2.0917 C.ar    
  19 O19            5.0487     6.7453    -4.7904 O.3     
  20 C20            5.7611     6.0280    -5.8004 C.3     
  21 Br21          -1.6336    -0.9529     0.0119 Br      
  22 H22            1.1918    -1.7880    -0.0176 H       
  23 H23            3.3381    -0.5302    -0.0294 H       
  24 H24            2.0901     3.8509     1.8582 H       
  25 H25            2.2719     5.1640     0.6763 H       
  26 H26            0.1188     3.8630     0.4634 H       
  27 H27            1.1017     3.8964    -1.0182 H       
  28 H28            4.6350     5.1080     1.0538 H       
  29 H29            5.5732     3.7171     0.4594 H       
  30 H30            3.6723     6.7098    -0.4932 H       
  31 H31            3.8263     7.7667    -2.7108 H       
  32 H32            6.0793     4.4271    -4.1377 H       
  33 H33            5.9298     3.3817    -1.9143 H       
  34 H34            6.7904     5.8718    -5.4775 H       
  35 H35            5.2821     5.0631    -5.9670 H       
  36 H36            5.7540     6.6019    -6.7270 H       
@<TRIPOS>BOND
   1    1    2 ar
   2    1   10 ar
   3    2    3 ar
   4    2   21 1
   5    3    4 ar
   6    3   22 1
   7    4    5 ar
   8    4   23 1
   9    5    6 1
  10    5   10 ar
  11    6    7 am
  12    6   11 2
  13    7    8 1
  14    7   12 1
  15    8    9 1
  16    8   24 1
  17    8   25 1
  18    9   10 1
  19    9   26 1
  20    9   27 1
  21   12   13 1
  22   12   28 1
  23   12   29 1
  24   13   14 ar
  25   13   18 ar
  26   14   15 ar
  27   14   30 1
  28   15   16 ar
  29   15   31 1
  30   16   17 ar
  31   16   19 1
  32   17   18 ar
  33   17   32 1
  34   18   33 1
  35   19   20 1
  36   20   34 1
  37   20   35 1
  38   20   36 1

#	End of record

