#	Name: ASD00069474
#	Creating user name:	WinNT
#	Creation time:	15. 06. 2019 18:29

#	Modifying user name:	WinNT
#	Modification time:	15. 06. 2019 18:29

#	Program:	/corina/corina34_cracker 3.40 0067  02.08.2006

@<TRIPOS>MOLECULE
ASD00069474
  40   42    0    0    0
SMALL
NO_CHARGES


@<TRIPOS>ATOM
   1 C1            -0.5951     1.4947     1.2035 C.3     
   2 C2            -0.5325    -0.0430     1.1017 C.3     
   3 C3            -1.4217    -0.5383    -0.0406 C.3     
   4 C4            -1.0630     1.9181     2.5973 C.3     
   5 O5             0.7607     1.9324     0.9737 O.3     
   6 B6             1.5716     0.8015     1.3228 Du      
   7 O7             0.8530    -0.3355     0.8236 O.3     
   8 C8            -1.5276     2.0624     0.1315 C.3     
   9 C9            -0.9599    -0.6826     2.4243 C.3     
  10 C10            2.9444     0.8070     2.0845 C.ar    
  11 C11            3.6176    -0.3826     2.3522 C.ar    
  12 C12            3.5256     2.0063     2.5064 C.ar    
  13 C13            4.7336     1.9714     3.1727 C.ar    
  14 N14            5.3429     0.8267     3.4143 N.ar    
  15 C15            4.8324    -0.3316     3.0296 C.ar    
  16 N16            5.5142    -1.5105     3.3088 N.pl3   
  17 C17            4.9198    -2.8019     2.9552 C.3     
  18 C18            5.8595    -4.0034     2.8366 C.3     
  19 C19            4.9074    -3.8917     4.0290 C.3     
  20 H20           -1.0796    -0.1060    -0.9810 H       
  21 H21           -1.3664    -1.6253    -0.0990 H       
  22 H22           -2.4526    -0.2364     0.1443 H       
  23 H23           -0.3652     1.5409     3.3449 H       
  24 H24           -1.1018     3.0060     2.6526 H       
  25 H25           -2.0553     1.5090     2.7873 H       
  26 H26           -2.5296     1.6563     0.2696 H       
  27 H27           -1.5607     3.1485     0.2169 H       
  28 H28           -1.1567     1.7867    -0.8557 H       
  29 H29           -1.9814    -0.3836     2.6591 H       
  30 H30           -0.9101    -1.7679     2.3358 H       
  31 H31           -0.2925    -0.3520     3.2201 H       
  32 H32            3.2034    -1.3296     2.0393 H       
  33 H33            3.0353     2.9489     2.3129 H       
  34 H34            5.1870     2.8951     3.5009 H       
  35 H35            6.3836    -1.4780     3.7378 H       
  36 H36            4.0709    -2.7576     2.2728 H       
  37 H37            5.6287    -4.7498     2.0765 H       
  38 H38            6.9201    -3.8331     3.0217 H       
  39 H39            5.3415    -3.6478     4.9986 H       
  40 H40            4.0502    -4.5645     4.0533 H       
@<TRIPOS>BOND
   1    1    2 1
   2    1    5 1
   3    1    8 1
   4    1    4 1
   5    2    3 1
   6    2    9 1
   7    2    7 1
   8    3   20 1
   9    3   21 1
  10    3   22 1
  11    4   23 1
  12    4   24 1
  13    4   25 1
  14    5    6 1
  15    6    7 1
  16    6   10 1
  17    8   26 1
  18    8   27 1
  19    8   28 1
  20    9   29 1
  21    9   30 1
  22    9   31 1
  23   10   11 ar
  24   10   12 ar
  25   11   15 ar
  26   11   32 1
  27   12   13 ar
  28   12   33 1
  29   13   14 ar
  30   13   34 1
  31   14   15 ar
  32   15   16 1
  33   16   17 1
  34   16   35 1
  35   17   18 1
  36   17   19 1
  37   17   36 1
  38   18   19 1
  39   18   37 1
  40   18   38 1
  41   19   39 1
  42   19   40 1

#	End of record

