#	Name: ASD01811292
#	Creating user name:	WinNT
#	Creation time:	15. 06. 2019 19:26

#	Modifying user name:	WinNT
#	Modification time:	15. 06. 2019 19:26

#	Program:	/corina/corina34_cracker 3.40 0067  02.08.2006

@<TRIPOS>MOLECULE
ASD01811292
  60   62    0    0    0
SMALL
NO_CHARGES


@<TRIPOS>ATOM
   1 C1            -0.5978     1.9769    -2.5404 C.2     
   2 C2            -0.5313     0.4973    -2.8188 C.3     
   3 C3            -1.9031     0.0035    -3.2825 C.3     
   4 C4             0.5037     0.2304    -3.9135 C.3     
   5 O5             0.1124     2.7423    -3.1567 O.2     
   6 N6            -1.4508     2.4500    -1.6103 N.am    
   7 C7            -1.5103     3.7732    -1.3613 C.2     
   8 N8            -2.3632     4.2462    -0.4312 N.am    
   9 S9            -0.5023     4.8532    -2.2266 S.2     
  10 C10           -2.3463     5.6035    -0.0923 C.ar    
  11 C11           -3.5412     6.2992     0.0507 C.ar    
  12 C12           -3.5298     7.6401     0.3853 C.ar    
  13 C13           -2.3318     8.2976     0.5793 C.ar    
  14 C14           -1.1265     7.6081     0.4381 C.ar    
  15 C15           -1.1381     6.2532     0.1064 C.ar    
  16 C16           -4.8535     5.5890    -0.1603 C.3     
  17 C17            0.1583     8.3101     0.6449 C.2     
  18 O18            1.0262     7.8010     1.3268 O.2     
  19 N19            0.3671     9.5146     0.0772 N.am    
  20 C20           -0.7078    10.1899    -0.6626 C.3     
  21 C21           -0.1927    10.5526    -2.0590 C.3     
  22 C22            1.0918    11.3741    -1.9271 C.3     
  23 C23            2.1621    10.5404    -1.2190 C.3     
  24 C24            1.6720    10.1800     0.1917 C.3     
  25 C25            1.5829    11.7617    -3.2981 C.ar    
  26 C26            1.7096    13.0986    -3.6317 C.ar    
  27 C27            2.1585    13.4604    -4.8848 C.ar    
  28 C28            2.4858    12.4740    -5.8174 C.ar    
  29 C29            2.3559    11.1269    -5.4739 C.ar    
  30 C30            1.9104    10.7791    -4.2155 C.ar    
  31 C31            2.9520    12.8424    -7.1203 C.1     
  32 N32            3.3218    13.1346    -8.1539 N.1     
  33 H33           -0.2432    -0.0308    -1.9098 H       
  34 H34           -2.1912     0.5316    -4.1915 H       
  35 H35           -1.8550    -1.0667    -3.4839 H       
  36 H36           -2.6405     0.1937    -2.5026 H       
  37 H37            1.4810     0.5822    -3.5831 H       
  38 H38            0.5518    -0.8398    -4.1148 H       
  39 H39            0.2156     0.7585    -4.8225 H       
  40 H40           -2.0219     1.8381    -1.1200 H       
  41 H41           -2.9889     3.6456     0.0033 H       
  42 H42           -4.4614     8.1753     0.4950 H       
  43 H43           -2.3271     9.3456     0.8400 H       
  44 H44           -0.2087     5.7134     0.0002 H       
  45 H45           -5.1955     5.1689     0.7855 H       
  46 H46           -5.5941     6.2970    -0.5323 H       
  47 H47           -4.7201     4.7874    -0.8868 H       
  48 H48           -1.5653     9.5228    -0.7513 H       
  49 H49           -1.0010    11.0970    -0.1342 H       
  50 H50            0.0147     9.6405    -2.6186 H       
  51 H51           -0.9470    11.1386    -2.5841 H       
  52 H52            0.8893    12.2740    -1.3463 H       
  53 H53            2.3473     9.6284    -1.7865 H       
  54 H54            3.0838    11.1176    -1.1462 H       
  55 H55            1.5689    11.0864     0.7883 H       
  56 H56            2.3852     9.5065     0.6669 H       
  57 H57            1.4561    13.8604    -2.9094 H       
  58 H58            2.2563    14.5043    -5.1442 H       
  59 H59            2.6073    10.3589    -6.1904 H       
  60 H60            1.8134     9.7375    -3.9470 H       
@<TRIPOS>BOND
   1    1    2 1
   2    1    5 2
   3    1    6 am
   4    2    3 1
   5    2    4 1
   6    2   33 1
   7    3   34 1
   8    3   35 1
   9    3   36 1
  10    4   37 1
  11    4   38 1
  12    4   39 1
  13    6    7 am
  14    6   40 1
  15    7    8 am
  16    7    9 2
  17    8   10 1
  18    8   41 1
  19   10   11 ar
  20   10   15 ar
  21   11   12 ar
  22   11   16 1
  23   12   13 ar
  24   12   42 1
  25   13   14 ar
  26   13   43 1
  27   14   15 ar
  28   14   17 1
  29   15   44 1
  30   16   45 1
  31   16   46 1
  32   16   47 1
  33   17   18 2
  34   17   19 am
  35   19   20 1
  36   19   24 1
  37   20   21 1
  38   20   48 1
  39   20   49 1
  40   21   22 1
  41   21   50 1
  42   21   51 1
  43   22   23 1
  44   22   25 1
  45   22   52 1
  46   23   24 1
  47   23   53 1
  48   23   54 1
  49   24   55 1
  50   24   56 1
  51   25   26 ar
  52   25   30 ar
  53   26   27 ar
  54   26   57 1
  55   27   28 ar
  56   27   58 1
  57   28   29 ar
  58   28   31 1
  59   29   30 ar
  60   29   59 1
  61   30   60 1
  62   31   32 3

#	End of record

