#	Name: ASD03082213
#	Creating user name:	WinNT
#	Creation time:	15. 06. 2019 20:27

#	Modifying user name:	WinNT
#	Modification time:	15. 06. 2019 20:27

#	Program:	/corina/corina34_cracker 3.40 0067  02.08.2006

@<TRIPOS>MOLECULE
ASD03082213
  47   49    0    0    0
SMALL
NO_CHARGES


@<TRIPOS>ATOM
   1 N1             0.6330     1.7240     0.0954 N.pl3   
   2 N2             0.1344     0.4114     0.0737 N.2     
   3 C3             1.1704    -0.3898    -0.0267 C.2     
   4 N4             2.2841     0.3427    -0.0689 N.2     
   5 C5             1.9776     1.6223     0.0038 C.2     
   6 N6             1.1148    -1.7839    -0.0800 N.pl3   
   7 C7             2.2819    -2.5224    -0.3010 C.ar    
   8 C8             2.3739    -3.8311     0.1556 C.ar    
   9 C9             3.5271    -4.5584    -0.0637 C.ar    
  10 C10            4.5915    -3.9839    -0.7384 C.ar    
  11 C11            4.5020    -2.6798    -1.1944 C.ar    
  12 C12            3.3483    -1.9504    -0.9823 C.ar    
  13 C13            3.6277    -5.9780     0.4319 C.3     
  14 F14            2.4381    -6.3320     1.0773 F       
  15 F15            3.8436    -6.8360    -0.6517 F       
  16 F16            4.6950    -6.0838     1.3303 F       
  17 C17            5.1373     3.6459     0.3195 C.ar    
  18 C18            4.2718     2.5599     0.3498 C.ar    
  19 C19            2.9369     2.7496    -0.0125 C.ar    
  20 C20            2.5295     4.0347    -0.3922 C.ar    
  21 C21            3.4523     5.0587    -0.3951 C.ar    
  22 N22            4.7070     4.8439    -0.0466 N.ar    
  23 C23           -0.1495     2.9587     0.1919 C.3     
  24 C24           -0.6801     3.3357    -1.1927 C.3     
  25 F25            5.7190    -4.6971    -0.9515 F       
  26 N26            6.4684     3.4748     0.6830 N.pl3   
  27 O27           -1.2473     2.7585     1.0845 O.3     
  28 C28            6.9513     2.1544     1.0950 C.3     
  29 C29            8.4395     2.2404     1.4396 C.3     
  30 H30            0.2668    -2.2402     0.0364 H       
  31 H31            1.5443    -4.2794     0.6821 H       
  32 H32            5.3334    -2.2337    -1.7200 H       
  33 H33            3.2771    -0.9347    -1.3425 H       
  34 H34            4.6259     1.5843     0.6485 H       
  35 H35            1.5052     4.2210    -0.6795 H       
  36 H36            3.1439     6.0517    -0.6870 H       
  37 H37            0.4838     3.7616     0.5693 H       
  38 H38           -1.3134     2.5328    -1.5701 H       
  39 H39           -1.2623     4.2544    -1.1210 H       
  40 H40            0.1573     3.4885    -1.8736 H       
  41 H41            7.0773     4.2296     0.6637 H       
  42 H42           -1.8539     2.0569     0.8107 H       
  43 H43            6.3943     1.8208     1.9705 H       
  44 H44            6.8073     1.4445     0.2805 H       
  45 H45            8.5834     2.9503     2.2541 H       
  46 H46            8.7988     1.2580     1.7461 H       
  47 H47            8.9965     2.5740     0.5641 H       
@<TRIPOS>BOND
   1    1    2 1
   2    1    5 1
   3    1   23 1
   4    2    3 2
   5    3    4 1
   6    3    6 1
   7    4    5 2
   8    5   19 1
   9    6    7 1
  10    6   30 1
  11    7    8 ar
  12    7   12 ar
  13    8    9 ar
  14    8   31 1
  15    9   10 ar
  16    9   13 1
  17   10   11 ar
  18   10   25 1
  19   11   12 ar
  20   11   32 1
  21   12   33 1
  22   13   14 1
  23   13   15 1
  24   13   16 1
  25   17   18 ar
  26   17   22 ar
  27   17   26 1
  28   18   19 ar
  29   18   34 1
  30   19   20 ar
  31   20   21 ar
  32   20   35 1
  33   21   22 ar
  34   21   36 1
  35   23   24 1
  36   23   27 1
  37   23   37 1
  38   24   38 1
  39   24   39 1
  40   24   40 1
  41   26   28 1
  42   26   41 1
  43   27   42 1
  44   28   29 1
  45   28   43 1
  46   28   44 1
  47   29   45 1
  48   29   46 1
  49   29   47 1

#	End of record

