#	Name: ASD01914237
#	Creating user name:	WinNT
#	Creation time:	15. 06. 2019 20:03

#	Modifying user name:	WinNT
#	Modification time:	15. 06. 2019 20:03

#	Program:	/corina/corina34_cracker 3.40 0067  02.08.2006

@<TRIPOS>MOLECULE
ASD01914237
  32   34    0    0    0
SMALL
NO_CHARGES


@<TRIPOS>ATOM
   1 C1            -0.0170     1.4061     0.0098 C.2     
   2 C2             0.0021    -0.0041     0.0020 C.2     
   3 C3             1.1979    -0.6542    -0.0129 C.2     
   4 C4             2.3919     0.0858    -0.0203 C.2     
   5 C5             2.3571     1.4348    -0.0123 C.2     
   6 N6             1.1649     2.0999     0.0022 N.pl3   
   7 N7            -1.0090     2.2852     0.0293 N.2     
   8 C8            -0.5005     3.5196     0.0287 C.2     
   9 C9             0.8477     3.4307     0.0129 C.2     
  10 C10           -1.2971     4.7987     0.0469 C.3     
  11 C11           -2.2861     4.8001    -1.1204 C.3     
  12 C12           -3.0643     6.0495    -1.1026 C.1     
  13 C13           -3.6849     7.0460    -1.0885 C.1     
  14 C14           -4.4419     8.2614    -1.0712 C.ar    
  15 C15           -5.4121     8.4867    -2.0484 C.ar    
  16 C16           -6.1351     9.6659    -2.0181 C.ar    
  17 C17           -5.8655    10.5831    -1.0116 C.ar    
  18 C18           -4.8901    10.2957    -0.0747 C.ar    
  19 N19           -4.2190     9.1631    -0.1220 N.ar    
  20 Cl20          -1.4840    -0.9014     0.0120 Cl      
  21 H21            1.2286    -1.7337    -0.0186 H       
  22 H22            3.3421    -0.4273    -0.0321 H       
  23 H23            3.2813     1.9936    -0.0174 H       
  24 H24            1.5445     4.2559     0.0110 H       
  25 H25           -1.8442     4.8726     0.9868 H       
  26 H26           -0.6216     5.6488    -0.0481 H       
  27 H27           -1.7390     4.7262    -2.0603 H       
  28 H28           -2.9616     3.9500    -1.0254 H       
  29 H29           -5.5958     7.7513    -2.8177 H       
  30 H30           -6.8922     9.8685    -2.7612 H       
  31 H31           -6.4125    11.5130    -0.9610 H       
  32 H32           -4.6782    11.0079     0.7091 H       
@<TRIPOS>BOND
   1    1    2 1
   2    1    6 1
   3    1    7 2
   4    2    3 2
   5    2   20 1
   6    3    4 1
   7    3   21 1
   8    4    5 2
   9    4   22 1
  10    5    6 1
  11    5   23 1
  12    6    9 1
  13    7    8 1
  14    8    9 2
  15    8   10 1
  16    9   24 1
  17   10   11 1
  18   10   25 1
  19   10   26 1
  20   11   12 1
  21   11   27 1
  22   11   28 1
  23   12   13 3
  24   13   14 1
  25   14   15 ar
  26   14   19 ar
  27   15   16 ar
  28   15   29 1
  29   16   17 ar
  30   16   30 1
  31   17   18 ar
  32   17   31 1
  33   18   19 ar
  34   18   32 1

#	End of record

