#	Name: ASD03540137
#	Creating user name:	WinNT
#	Creation time:	15. 06. 2019 20:42

#	Modifying user name:	WinNT
#	Modification time:	15. 06. 2019 20:42

#	Program:	/corina/corina34_cracker 3.40 0067  02.08.2006

@<TRIPOS>MOLECULE
ASD03540137
  55   58    0    0    0
SMALL
NO_CHARGES


@<TRIPOS>ATOM
   1 C1            -0.8620    -1.3893     0.1965 C.2     
   2 C2             0.2512    -2.2255    -0.3801 C.3     
   3 O3            -0.6150    -0.3196     0.7011 O.2     
   4 O4            -2.1287    -1.8302     0.1444 O.3     
   5 N5             1.5272    -1.5271    -0.2058 N.am    
   6 C6             2.2565    -1.6387     1.0598 C.3     
   7 C7             3.1972    -2.8143     0.9955 C.ar    
   8 C8             4.4885    -2.6418     0.5333 C.ar    
   9 C9             5.3514    -3.7201     0.4743 C.ar    
  10 C10            4.9230    -4.9709     0.8779 C.ar    
  11 C11            3.6320    -5.1433     1.3410 C.ar    
  12 C12            2.7705    -4.0641     1.4041 C.ar    
  13 C13            2.0301    -0.7818    -1.2099 C.2     
  14 C14            1.3504    -0.7551    -2.5228 C.ar    
  15 C15            2.0774    -0.9798    -3.6900 C.ar    
  16 C16            1.4294    -0.9534    -4.9228 C.ar    
  17 C17            0.0564    -0.7021    -4.9814 C.ar    
  18 C18           -0.6580    -0.4803    -3.8211 C.ar    
  19 C19           -0.0227    -0.5103    -2.5953 C.ar    
  20 O20            3.0423    -0.1317    -1.0362 O.2     
  21 C21            2.1930    -1.1903    -6.1666 C.2     
  22 N22            1.5645    -1.1644    -7.3585 N.am    
  23 O23            3.3877    -1.4084    -6.1140 O.2     
  24 C24            2.3212    -1.3991    -8.5908 C.3     
  25 O25           -1.0938    -0.8361   -13.0206 O.3     
  26 C26           -0.5999     0.4399   -13.4691 C.3     
  27 O27           -0.0389     1.0268   -12.2800 O.3     
  28 C28            0.3316    -0.0258   -11.4939 C.ar    
  29 C29           -0.3171    -1.1714   -11.9494 C.ar    
  30 C30            1.1849    -0.1039   -10.4058 C.ar    
  31 C31            1.3919    -1.3166    -9.7743 C.ar    
  32 C32            0.7486    -2.4533   -10.2265 C.ar    
  33 C33           -0.1050    -2.3827   -11.3121 C.ar    
  34 H34            0.2891    -3.1852     0.1353 H       
  35 H35            0.0693    -2.3903    -1.4421 H       
  36 H36           -2.8085    -1.2590     0.5273 H       
  37 H37            2.8269    -0.7260     1.2322 H       
  38 H38            1.5484    -1.7842     1.8756 H       
  39 H39            4.8231    -1.6645     0.2179 H       
  40 H40            6.3600    -3.5855     0.1125 H       
  41 H41            5.5970    -5.8136     0.8311 H       
  42 H42            3.2973    -6.1206     1.6560 H       
  43 H43            1.7630    -4.1980     1.7693 H       
  44 H44            3.1387    -1.1733    -3.6392 H       
  45 H45           -0.4472    -0.6810    -5.9366 H       
  46 H46           -1.7193    -0.2865    -3.8719 H       
  47 H47           -0.5881    -0.3400    -1.6910 H       
  48 H48            0.6112    -0.9903    -7.4004 H       
  49 H49            3.1010    -0.6437    -8.6879 H       
  50 H50            2.7765    -2.3888    -8.5547 H       
  51 H51            0.1691     0.3070   -14.2301 H       
  52 H52           -1.4158     1.0537   -13.8509 H       
  53 H53            1.6894     0.7825   -10.0507 H       
  54 H54            0.9128    -3.3986    -9.7307 H       
  55 H55           -0.6069    -3.2723   -11.6629 H       
@<TRIPOS>BOND
   1    1    2 1
   2    1    3 2
   3    1    4 1
   4    2    5 1
   5    2   34 1
   6    2   35 1
   7    4   36 1
   8    5    6 1
   9    5   13 am
  10    6    7 1
  11    6   37 1
  12    6   38 1
  13    7    8 ar
  14    7   12 ar
  15    8    9 ar
  16    8   39 1
  17    9   10 ar
  18    9   40 1
  19   10   11 ar
  20   10   41 1
  21   11   12 ar
  22   11   42 1
  23   12   43 1
  24   13   14 1
  25   13   20 2
  26   14   15 ar
  27   14   19 ar
  28   15   16 ar
  29   15   44 1
  30   16   17 ar
  31   16   21 1
  32   17   18 ar
  33   17   45 1
  34   18   19 ar
  35   18   46 1
  36   19   47 1
  37   21   22 am
  38   21   23 2
  39   22   24 1
  40   22   48 1
  41   24   31 1
  42   24   49 1
  43   24   50 1
  44   25   26 1
  45   25   29 1
  46   26   27 1
  47   26   51 1
  48   26   52 1
  49   27   28 1
  50   28   29 ar
  51   28   30 ar
  52   29   33 ar
  53   30   31 ar
  54   30   53 1
  55   31   32 ar
  56   32   33 ar
  57   32   54 1
  58   33   55 1

#	End of record

