#	Name: ASD03092456
#	Creating user name:	WinNT
#	Creation time:	15. 06. 2019 20:32

#	Modifying user name:	WinNT
#	Modification time:	15. 06. 2019 20:32

#	Program:	/corina/corina34_cracker 3.40 0067  02.08.2006

@<TRIPOS>MOLECULE
ASD03092456
  62   65    0    0    0
SMALL
NO_CHARGES


@<TRIPOS>ATOM
   1 C1            -0.9352     1.5032     0.2691 C.2     
   2 C2            -0.7400     0.1578     0.2299 C.2     
   3 C3             0.6550    -0.2135     0.2765 C.2     
   4 C4             1.4699     0.8322     0.3484 C.2     
   5 S5             0.5531     2.3288     0.3621 S.3     
   6 C6            -1.8376    -0.8195     0.1483 C.2     
   7 O7            -2.9915    -0.4364     0.1124 O.2     
   8 N8            -1.5641    -2.1387     0.1133 N.am    
   9 C9             2.9732     0.7461     0.4097 C.3     
  10 C10           -2.2843     2.1735     0.2293 C.3     
  11 C11           -2.6566    -3.1114     0.0321 C.3     
  12 S12           -1.1967    -6.7599    -0.7131 S.3     
  13 C13           -1.2832    -6.3620     0.9471 C.2     
  14 N14           -1.7662    -5.1656     1.0992 N.2     
  15 C15           -2.0865    -4.5062     0.0071 C.2     
  16 C16           -1.8614    -5.1845    -1.1376 C.2     
  17 C17           -3.0350    -4.9865    -4.6996 C.ar    
  18 C18           -2.8098    -5.4857    -3.4350 C.ar    
  19 C19           -2.1251    -4.6931    -2.5041 C.ar    
  20 C20           -1.6983    -3.4206    -2.9068 C.ar    
  21 C21           -1.9664    -3.0021    -4.1921 C.ar    
  22 N22           -2.6153    -3.7813    -5.0376 N.ar    
  23 C23           -1.5132    -1.6360    -4.6387 C.3     
  24 C24           -3.7645    -5.8306    -5.7126 C.3     
  25 N25           -0.8949    -7.1949     1.9807 N.3     
  26 C26           -0.3936    -8.4768     1.4643 C.3     
  27 C27           -0.0320    -9.3881     2.6402 C.3     
  28 O28            0.9259    -8.7275     3.4717 O.3     
  29 C29            0.4702    -7.4759     3.9925 C.3     
  30 C30            0.1137    -6.5452     2.8303 C.3     
  31 C31            1.5774    -6.8397     4.8353 C.3     
  32 C32            0.5654   -10.6932     2.1102 C.3     
  33 H33            0.9998    -1.2367     0.2553 H       
  34 H34           -0.6439    -2.4442     0.1419 H       
  35 H35            3.3795     0.7617    -0.6016 H       
  36 H36            3.3631     1.5952     0.9711 H       
  37 H37            3.2641    -0.1807     0.9040 H       
  38 H38           -2.6582     2.2981     1.2455 H       
  39 H39           -2.1909     3.1501    -0.2458 H       
  40 H40           -2.9796     1.5572    -0.3406 H       
  41 H41           -3.3072    -3.0003     0.8995 H       
  42 H42           -3.2311    -2.9374    -0.8777 H       
  43 H43           -3.1563    -6.4724    -3.1653 H       
  44 H44           -1.1676    -2.7775    -2.2204 H       
  45 H45           -0.5114    -1.7062    -5.0626 H       
  46 H46           -2.2009    -1.2536    -5.3929 H       
  47 H47           -1.4993    -0.9603    -3.7835 H       
  48 H48           -4.8352    -5.6391    -5.6416 H       
  49 H49           -3.4160    -5.5785    -6.7142 H       
  50 H50           -3.5700    -6.8847    -5.5149 H       
  51 H51           -1.1655    -8.9524     0.8592 H       
  52 H52            0.4922    -8.3018     0.8537 H       
  53 H53           -0.9285    -9.6066     3.2204 H       
  54 H54           -0.4117    -7.6388     4.6120 H       
  55 H55            1.0076    -6.3393     2.2415 H       
  56 H56           -0.2879    -5.6108     3.2223 H       
  57 H57            2.4580    -6.6756     4.2142 H       
  58 H58            1.2295    -5.8859     5.2318 H       
  59 H59            1.8334    -7.5045     5.6603 H       
  60 H60            1.4628   -10.4735     1.5318 H       
  61 H61            0.8226   -11.3415     2.9478 H       
  62 H62           -0.1637   -11.1942     1.4734 H       
@<TRIPOS>BOND
   1    1    2 2
   2    1    5 1
   3    1   10 1
   4    2    3 1
   5    2    6 1
   6    3    4 2
   7    3   33 1
   8    4    5 1
   9    4    9 1
  10    6    7 2
  11    6    8 am
  12    8   11 1
  13    8   34 1
  14    9   35 1
  15    9   36 1
  16    9   37 1
  17   10   38 1
  18   10   39 1
  19   10   40 1
  20   11   15 1
  21   11   41 1
  22   11   42 1
  23   12   13 1
  24   12   16 1
  25   13   14 2
  26   13   25 1
  27   14   15 1
  28   15   16 2
  29   16   19 1
  30   17   18 ar
  31   17   22 ar
  32   17   24 1
  33   18   19 ar
  34   18   43 1
  35   19   20 ar
  36   20   21 ar
  37   20   44 1
  38   21   22 ar
  39   21   23 1
  40   23   45 1
  41   23   46 1
  42   23   47 1
  43   24   48 1
  44   24   49 1
  45   24   50 1
  46   25   26 1
  47   25   30 1
  48   26   27 1
  49   26   51 1
  50   26   52 1
  51   27   28 1
  52   27   32 1
  53   27   53 1
  54   28   29 1
  55   29   30 1
  56   29   31 1
  57   29   54 1
  58   30   55 1
  59   30   56 1
  60   31   57 1
  61   31   58 1
  62   31   59 1
  63   32   60 1
  64   32   61 1
  65   32   62 1

#	End of record

