#	Name: ASD01913095
#	Creating user name:	WinNT
#	Creation time:	15. 06. 2019 20:00

#	Modifying user name:	WinNT
#	Modification time:	15. 06. 2019 20:00

#	Program:	/corina/corina34_cracker 3.40 0067  02.08.2006

@<TRIPOS>MOLECULE
ASD01913095
  39   40    0    0    0
SMALL
NO_CHARGES


@<TRIPOS>ATOM
   1 C1             0.1665     1.1234     0.3371 C.ar    
   2 C2             0.2887    -0.2612     0.3462 C.ar    
   3 C3             1.5422    -0.8527     0.2411 C.ar    
   4 C4             2.6683    -0.0684     0.1276 C.ar    
   5 C5             2.5497     1.3239     0.1177 C.ar    
   6 C6             1.2877     1.9147     0.2235 C.ar    
   7 N7             3.6375     3.5109    -0.0128 N.am    
   8 C8             3.7540     2.1682    -0.0033 C.2     
   9 O9             4.8514     1.6525    -0.0945 O.2     
  10 O10           -0.8187    -1.0376     0.4584 O.3     
  11 C11            4.7845     4.3127    -0.0418 C.ar    
  12 C12            4.7446     5.6051     0.4702 C.ar    
  13 C13            5.8804     6.3937     0.4400 C.ar    
  14 C14            7.0534     5.8978    -0.0985 C.ar    
  15 C15            7.0952     4.6130    -0.6082 C.ar    
  16 C16            5.9662     3.8178    -0.5766 C.ar    
  17 F17            3.5983     6.0896     0.9959 F       
  18 C18           -3.1141    -5.3749     0.7306 C.3     
  19 C19           -1.7619    -4.6716     0.5972 C.3     
  20 C20           -1.9734    -3.1562     0.5944 C.3     
  21 C21           -0.6212    -2.4529     0.4610 C.3     
  22 H22           -0.8096     1.5791     0.4148 H       
  23 H23            1.6330    -1.9288     0.2489 H       
  24 H24            3.6420    -0.5288     0.0468 H       
  25 H25            1.1918     2.9904     0.2158 H       
  26 H26            2.7589     3.9216     0.0006 H       
  27 H27            5.8510     7.3977     0.8369 H       
  28 H28            7.9390     6.5155    -0.1215 H       
  29 H29            8.0132     4.2294    -1.0283 H       
  30 H30            6.0004     2.8145    -0.9750 H       
  31 H31           -3.7518    -5.0986    -0.1091 H       
  32 H32           -2.9635    -6.4545     0.7326 H       
  33 H33           -3.5904    -5.0728     1.6633 H       
  34 H34           -1.1242    -4.9479     1.4370 H       
  35 H35           -1.2856    -4.9737    -0.3355 H       
  36 H36           -2.6110    -2.8799    -0.2453 H       
  37 H37           -2.4496    -2.8541     1.5271 H       
  38 H38           -0.1449    -2.7550    -0.4717 H       
  39 H39            0.0165    -2.7292     1.3007 H       
@<TRIPOS>BOND
   1    1    2 ar
   2    1    6 ar
   3    1   22 1
   4    2    3 ar
   5    2   10 1
   6    3    4 ar
   7    3   23 1
   8    4    5 ar
   9    4   24 1
  10    5    6 ar
  11    5    8 1
  12    6   25 1
  13    7    8 am
  14    7   11 1
  15    7   26 1
  16    8    9 2
  17   10   21 1
  18   11   12 ar
  19   11   16 ar
  20   12   13 ar
  21   12   17 1
  22   13   14 ar
  23   13   27 1
  24   14   15 ar
  25   14   28 1
  26   15   16 ar
  27   15   29 1
  28   16   30 1
  29   18   19 1
  30   18   31 1
  31   18   32 1
  32   18   33 1
  33   19   20 1
  34   19   34 1
  35   19   35 1
  36   20   21 1
  37   20   36 1
  38   20   37 1
  39   21   38 1
  40   21   39 1

#	End of record

