#	Name: ASD07930402
#	Creating user name:	WinNT
#	Creation time:	15. 06. 2019 21:12

#	Modifying user name:	WinNT
#	Modification time:	15. 06. 2019 21:12

#	Program:	/corina/corina34_cracker 3.40 0067  02.08.2006

@<TRIPOS>MOLECULE
ASD07930402
  45   47    0    0    0
SMALL
NO_CHARGES


@<TRIPOS>ATOM
   1 N1             0.1209     1.1281     0.2326 N.2     
   2 N2            -1.0879    -0.8676     0.0996 N.pl3   
   3 C3            -1.3793    -1.8003    -0.9941 C.3     
   4 C4            -0.2844    -2.8747    -1.0482 C.3     
   5 S5             1.3248    -2.0418    -1.2249 S.o2    
   6 N6             1.2787    -0.8944    -0.0175 N.am    
   7 C7             0.1023    -0.1694     0.1091 C.2     
   8 C8             2.4234    -0.6627     0.8669 C.3     
   9 C9            -1.4131    -1.0381    -2.3203 C.3     
  10 C10           -2.7153    -2.4550    -0.7547 C.ar    
  11 C11           -3.4563    -2.1223     0.3620 C.ar    
  12 C12           -4.6877    -2.7261     0.5821 C.ar    
  13 C13           -5.1703    -3.6631    -0.3221 C.ar    
  14 C14           -4.4250    -3.9922    -1.4375 C.ar    
  15 C15           -3.2012    -3.3850    -1.6572 C.ar    
  16 N16           -5.4402    -2.3913     1.7128 N.am    
  17 C17           -6.7860    -2.3681     1.6439 C.2     
  18 O18           -7.3431    -2.5446     0.5782 O.2     
  19 C19           -7.5855    -2.1277     2.8662 C.ar    
  20 O20            2.3859    -2.9104    -0.8522 O.2     
  21 O21            1.3743    -1.2907    -2.4302 O.2     
  22 N22           -6.9706    -1.9356     4.0270 N.ar    
  23 Cl23          -2.2671    -3.8009    -3.0602 Cl      
  24 C24           -7.6422    -1.7185     5.1360 C.ar    
  25 C25           -9.0305    -1.6819     5.1325 C.ar    
  26 C26           -9.7126    -1.8781     3.9385 C.ar    
  27 C27           -8.9769    -2.0993     2.7867 C.ar    
  28 F28           -9.7104    -1.4584     6.2784 F       
  29 H29            0.9668     1.6028     0.2370 H       
  30 H30           -1.7324    -0.7387     0.8129 H       
  31 H31           -0.2968    -3.4586    -0.1279 H       
  32 H32           -0.4546    -3.5302    -1.9023 H       
  33 H33            3.0708     0.0984     0.4315 H       
  34 H34            2.0679    -0.3239     1.8400 H       
  35 H35            2.9830    -1.5903     0.9873 H       
  36 H36           -0.4456    -0.5667    -2.4932 H       
  37 H37           -1.6297    -1.7318    -3.1327 H       
  38 H38           -2.1881    -0.2727    -2.2798 H       
  39 H39           -3.0785    -1.3935     1.0639 H       
  40 H40           -6.1272    -4.1344    -0.1532 H       
  41 H41           -4.7996    -4.7211    -2.1409 H       
  42 H42           -4.9934    -2.1758     2.5463 H       
  43 H43           -7.1074    -1.5668     6.0620 H       
  44 H44          -10.7920    -1.8550     3.9087 H       
  45 H45           -9.4744    -2.2557     1.8409 H       
@<TRIPOS>BOND
   1    1    7 2
   2    1   29 1
   3    2    3 1
   4    2    7 1
   5    2   30 1
   6    3    4 1
   7    3    9 1
   8    3   10 1
   9    4    5 1
  10    4   31 1
  11    4   32 1
  12    5    6 am
  13    5   20 2
  14    5   21 2
  15    6    7 1
  16    6    8 1
  17    8   33 1
  18    8   34 1
  19    8   35 1
  20    9   36 1
  21    9   37 1
  22    9   38 1
  23   10   11 ar
  24   10   15 ar
  25   11   12 ar
  26   11   39 1
  27   12   13 ar
  28   12   16 1
  29   13   14 ar
  30   13   40 1
  31   14   15 ar
  32   14   41 1
  33   15   23 1
  34   16   17 am
  35   16   42 1
  36   17   18 2
  37   17   19 1
  38   19   22 ar
  39   19   27 ar
  40   22   24 ar
  41   24   25 ar
  42   24   43 1
  43   25   26 ar
  44   25   28 1
  45   26   27 ar
  46   26   44 1
  47   27   45 1

#	End of record

