#	Name: ASD01885701
#	Creating user name:	WinNT
#	Creation time:	15. 06. 2019 19:50

#	Modifying user name:	WinNT
#	Modification time:	15. 06. 2019 19:50

#	Program:	/corina/corina34_cracker 3.40 0067  02.08.2006

@<TRIPOS>MOLECULE
ASD01885701
  56   61    0    0    0
SMALL
NO_CHARGES


@<TRIPOS>ATOM
   1 C1            -0.0170     1.4037     0.0098 C.ar    
   2 C2            -1.2666     2.0741     0.0193 C.ar    
   3 C3            -1.2876     3.4919     0.0272 C.ar    
   4 C4            -0.0705     4.1595     0.0250 C.ar    
   5 C5             1.1196     3.4233     0.0154 C.ar    
   6 N6             1.1177     2.1038     0.0027 N.ar    
   7 C7             0.0021    -0.0041     0.0020 C.ar    
   8 C8            -1.1700    -0.6951     0.0090 C.ar    
   9 C9            -2.3952    -0.0320     0.0237 C.ar    
  10 C10           -2.4531     1.3297     0.0204 C.ar    
  11 C11           -2.5672     4.2367     0.0368 C.ar    
  12 C12           -2.7778     5.2542     0.9679 C.ar    
  13 C13           -3.9714     5.9450     0.9728 C.ar    
  14 C14           -3.5642     3.9272    -0.8888 C.ar    
  15 C15            2.4154     4.1443     0.0065 C.2     
  16 N16            3.5716     3.4520    -0.0142 N.am    
  17 O17            2.4348     5.3591     0.0180 O.2     
  18 C18           -1.1423    -2.2019     0.0132 C.3     
  19 N19           -1.1523    -2.6943    -1.3665 N.pl3   
  20 C20           -4.9609     5.6299     0.0550 C.ar    
  21 C21           -4.7544     4.6238    -0.8757 C.ar    
  22 F22           -6.1287     6.3091     0.0641 F       
  23 C23           -0.0563    -2.9476    -2.1465 C.2     
  24 N24           -0.4391    -3.3770    -3.3233 N.2     
  25 C25           -1.7917    -3.4259    -3.3721 C.ar    
  26 C26           -2.2682    -2.9952    -2.1206 C.ar    
  27 C27           -2.7053    -3.8012    -4.3632 C.ar    
  28 C28           -4.0459    -3.7420    -4.1105 C.ar    
  29 C29           -4.5160    -3.3122    -2.8772 C.ar    
  30 C30           -3.6351    -2.9432    -1.8830 C.ar    
  31 C31            1.3500    -2.7639    -1.7236 C.ar    
  32 N32            1.6176    -2.3208    -0.5011 N.ar    
  33 C33            2.8547    -2.1444    -0.0863 C.ar    
  34 C34            3.9281    -2.4164    -0.9159 C.ar    
  35 C35            3.6938    -2.8815    -2.2020 C.ar    
  36 C36            2.3836    -3.0631    -2.6106 C.ar    
  37 H37           -0.0423     5.2392     0.0305 H       
  38 H38            0.9434    -0.5334    -0.0098 H       
  39 H39           -3.3110    -0.6044     0.0376 H       
  40 H40           -3.4090     1.8322     0.0280 H       
  41 H41           -2.0075     5.5002     1.6838 H       
  42 H42           -4.1355     6.7325     1.6934 H       
  43 H43           -3.4040     3.1436    -1.6146 H       
  44 H44            3.5561     2.4822    -0.0234 H       
  45 H45            4.4192     3.9236    -0.0200 H       
  46 H46           -0.2389    -2.5472     0.5158 H       
  47 H47           -2.0184    -2.5799     0.5402 H       
  48 H48           -5.5283     4.3821    -1.5891 H       
  49 H49           -2.3507    -4.1369    -5.3266 H       
  50 H50           -4.7477    -4.0323    -4.8783 H       
  51 H51           -5.5795    -3.2712    -2.6935 H       
  52 H52           -4.0068    -2.6099    -0.9253 H       
  53 H53            3.0340    -1.7819     0.9152 H       
  54 H54            4.9389    -2.2679    -0.5658 H       
  55 H55            4.5152    -3.1005    -2.8681 H       
  56 H56            2.1649    -3.4236    -3.6048 H       
@<TRIPOS>BOND
   1    1    7 ar
   2    1    6 ar
   3    1    2 ar
   4    2    3 ar
   5    2   10 ar
   6    3   11 1
   7    3    4 ar
   8    4    5 ar
   9    4   37 1
  10    5   15 1
  11    5    6 ar
  12    7    8 ar
  13    7   38 1
  14    8    9 ar
  15    8   18 1
  16    9   10 ar
  17    9   39 1
  18   10   40 1
  19   11   12 ar
  20   11   14 ar
  21   12   13 ar
  22   12   41 1
  23   13   20 ar
  24   13   42 1
  25   14   21 ar
  26   14   43 1
  27   15   16 am
  28   15   17 2
  29   16   44 1
  30   16   45 1
  31   18   19 1
  32   18   46 1
  33   18   47 1
  34   19   23 1
  35   19   26 1
  36   20   21 ar
  37   20   22 1
  38   21   48 1
  39   23   24 2
  40   23   31 1
  41   24   25 1
  42   25   26 ar
  43   25   27 ar
  44   26   30 ar
  45   27   28 ar
  46   27   49 1
  47   28   29 ar
  48   28   50 1
  49   29   30 ar
  50   29   51 1
  51   30   52 1
  52   31   32 ar
  53   31   36 ar
  54   32   33 ar
  55   33   34 ar
  56   33   53 1
  57   34   35 ar
  58   34   54 1
  59   35   36 ar
  60   35   55 1
  61   36   56 1

#	End of record

