#	Name: ASD01151095
#	Creating user name:	WinNT
#	Creation time:	15. 06. 2019 19:05

#	Modifying user name:	WinNT
#	Modification time:	15. 06. 2019 19:05

#	Program:	/corina/corina34_cracker 3.40 0067  02.08.2006

@<TRIPOS>MOLECULE
ASD01151095
  44   46    0    0    0
SMALL
NO_CHARGES


@<TRIPOS>ATOM
   1 C1            -0.0187     1.5258     0.0104 C.3     
   2 C2             0.0021    -0.0041     0.0020 C.3     
   3 C3             0.7421    -0.5109     1.2415 C.3     
   4 O4            -1.3386    -0.4987     0.0122 O.3     
   5 C5             0.7182    -0.4975    -1.2568 C.3     
   6 N6             0.7381    -1.9623    -1.2648 N.am    
   7 C7             1.7610    -2.6175    -0.6894 C.2     
   8 O8             2.6506    -1.9691    -0.1733 O.2     
   9 N9             1.8422    -3.9568    -0.6598 N.am    
  10 C10            2.9918    -4.5925    -0.0113 C.3     
  11 C11            2.6815    -4.8259     1.4448 C.ar    
  12 C12            2.9794    -3.8518     2.3795 C.ar    
  13 C13            2.6945    -4.0653     3.7151 C.ar    
  14 C14            2.1114    -5.2536     4.1164 C.ar    
  15 Br15           1.7209    -5.5460     5.9434 Br      
  16 C16            1.8135    -6.2280     3.1808 C.ar    
  17 C17            2.0939    -6.0115     1.8447 C.ar    
  18 C18            0.8845    -4.7301    -1.2158 C.2     
  19 O19            0.9658    -5.9431    -1.1836 O.2     
  20 C20           -0.2609    -4.0668    -1.8616 C.ar    
  21 C21           -1.2886    -4.7952    -2.4570 C.ar    
  22 C22           -2.3397    -4.1283    -3.0489 C.ar    
  23 C23           -2.3774    -2.7397    -3.0537 C.ar    
  24 F24           -3.4145    -2.1002    -3.6374 F       
  25 C25           -1.3624    -2.0057    -2.4654 C.ar    
  26 C26           -0.3021    -2.6605    -1.8614 C.ar    
  27 H27            1.0039     1.9031     0.0027 H       
  28 H28           -0.5459     1.8868    -0.8726 H       
  29 H29           -0.5289     1.8773     0.9072 H       
  30 H30            0.2319    -0.1594     2.1383 H       
  31 H31            0.7568    -1.6008     1.2356 H       
  32 H32            1.7647    -0.1336     1.2338 H       
  33 H33           -1.8677    -0.2163    -0.7464 H       
  34 H34            0.1910    -0.1364    -2.1398 H       
  35 H35            1.7408    -0.1202    -1.2645 H       
  36 H36            3.2007    -5.5463    -0.4957 H       
  37 H37            3.8627    -3.9428    -0.0976 H       
  38 H38            3.4350    -2.9242     2.0662 H       
  39 H39            2.9276    -3.3044     4.4453 H       
  40 H40            1.3581    -7.1559     3.4936 H       
  41 H41            1.8576    -6.7705     1.1136 H       
  42 H42           -1.2617    -5.8748    -2.4551 H       
  43 H43           -3.1384    -4.6886    -3.5120 H       
  44 H44           -1.3990    -0.9263    -2.4737 H       
@<TRIPOS>BOND
   1    1    2 1
   2    1   27 1
   3    1   28 1
   4    1   29 1
   5    2    3 1
   6    2    4 1
   7    2    5 1
   8    3   30 1
   9    3   31 1
  10    3   32 1
  11    4   33 1
  12    5    6 1
  13    5   34 1
  14    5   35 1
  15    6   26 1
  16    6    7 am
  17    7    8 2
  18    7    9 am
  19    9   10 1
  20    9   18 am
  21   10   11 1
  22   10   36 1
  23   10   37 1
  24   11   17 ar
  25   11   12 ar
  26   12   13 ar
  27   12   38 1
  28   13   14 ar
  29   13   39 1
  30   14   15 1
  31   14   16 ar
  32   16   17 ar
  33   16   40 1
  34   17   41 1
  35   18   19 2
  36   18   20 1
  37   20   26 ar
  38   20   21 ar
  39   21   22 ar
  40   21   42 1
  41   22   23 ar
  42   22   43 1
  43   23   24 1
  44   23   25 ar
  45   25   26 ar
  46   25   44 1

#	End of record

