#	Name: ASD06020020
#	Creating user name:	WinNT
#	Creation time:	15. 06. 2019 21:04

#	Modifying user name:	WinNT
#	Modification time:	15. 06. 2019 21:04

#	Program:	/corina/corina34_cracker 3.40 0067  02.08.2006

@<TRIPOS>MOLECULE
ASD06020020
  35   38    0    0    0
SMALL
NO_CHARGES


@<TRIPOS>ATOM
   1 C1             2.4718     4.1328    -0.0107 C.1     
   2 C2             1.2023     3.4706     0.0107 C.ar    
   3 C3             1.1207     2.0721     0.0247 C.ar    
   4 C4            -0.1208     1.4716     0.0457 C.ar    
   5 N5            -1.2248     2.1935     0.0522 N.ar    
   6 C6            -1.1969     3.5172     0.0394 C.ar    
   7 C7             0.0124     4.2017     0.0240 C.ar    
   8 N8             3.4789     4.6581    -0.0277 N.1     
   9 N9            -2.3915     4.2308     0.0471 N.pl3   
  10 C10           -3.6053     3.5569    -0.0500 C.ar    
  11 C11           -4.8057     4.2647     0.0708 C.ar    
  12 C12           -6.0230     3.5812    -0.0282 C.ar    
  13 C13           -5.9606     2.1817    -0.2499 C.ar    
  14 C14           -4.7501     1.5729    -0.3551 C.ar    
  15 N15           -3.6177     2.2521    -0.2613 N.ar    
  16 S16           -5.1482     5.9697     0.3423 S.3     
  17 C17           -6.8754     5.6389     0.3026 C.2     
  18 N18           -7.0842     4.3779     0.1051 N.2     
  19 C19           -7.9352     6.6555     0.4706 C.ar    
  20 C20           -9.2800     6.2818     0.4214 C.ar    
  21 C21          -10.2649     7.2369     0.5797 C.ar    
  22 C22           -9.9220     8.5610     0.7866 C.ar    
  23 C23           -8.5922     8.9384     0.8365 C.ar    
  24 C24           -7.5966     7.9933     0.6851 C.ar    
  25 Cl25          -5.9282     8.4681     0.7554 Cl      
  26 Cl26          -9.7126     4.6208     0.1612 Cl      
  27 H27            2.0185     1.4719     0.0189 H       
  28 H28           -0.1900     0.3938     0.0566 H       
  29 H29            0.0317     5.2815     0.0183 H       
  30 H30           -2.3783     5.1979     0.1201 H       
  31 H31           -6.8690     1.6037    -0.3342 H       
  32 H32           -4.7110     0.5069    -0.5239 H       
  33 H33          -11.3052     6.9495     0.5415 H       
  34 H34          -10.6964     9.3037     0.9093 H       
  35 H35           -8.3318     9.9740     0.9984 H       
@<TRIPOS>BOND
   1    1    2 1
   2    1    8 3
   3    2    3 ar
   4    2    7 ar
   5    3    4 ar
   6    3   27 1
   7    4    5 ar
   8    4   28 1
   9    5    6 ar
  10    6    7 ar
  11    6    9 1
  12    7   29 1
  13    9   10 1
  14    9   30 1
  15   10   11 ar
  16   10   15 ar
  17   11   12 ar
  18   11   16 1
  19   12   13 ar
  20   12   18 1
  21   13   14 ar
  22   13   31 1
  23   14   15 ar
  24   14   32 1
  25   16   17 1
  26   17   18 2
  27   17   19 1
  28   19   20 ar
  29   19   24 ar
  30   20   21 ar
  31   20   26 1
  32   21   22 ar
  33   21   33 1
  34   22   23 ar
  35   22   34 1
  36   23   24 ar
  37   23   35 1
  38   24   25 1

#	End of record

