#	Name: ASD02320020
#	Creating user name:	WinNT
#	Creation time:	15. 06. 2019 20:20

#	Modifying user name:	WinNT
#	Modification time:	15. 06. 2019 20:20

#	Program:	/corina/corina34_cracker 3.40 0067  02.08.2006

@<TRIPOS>MOLECULE
ASD02320020
  77   78    0    0    0
SMALL
NO_CHARGES


@<TRIPOS>ATOM
   1 C1            -2.8018     1.2964     0.1373 C.3     
   2 C2            -2.4800     0.0110    -0.6311 C.3     
   3 C3            -1.4490    -0.7995     0.1604 C.3     
   4 C4            -1.9996    -1.0821     1.5607 C.3     
   5 O5            -2.3069     0.1540     2.2086 O.3     
   6 C6            -3.3001     0.9329     1.5385 C.3     
   7 O7            -3.1852    -1.8729     1.4559 O.3     
   8 C8            -3.6724    -2.3586     2.7084 C.3     
   9 C9            -5.0258    -3.0782     2.5165 C.3     
  10 C10           -4.6418    -4.5680     2.3730 C.3     
  11 C11           -3.1018    -4.5721     2.4953 C.3     
  12 O12           -2.7871    -3.3715     3.2338 O.3     
  13 C13           -2.6319    -5.8088     3.2638 C.3     
  14 C14           -3.8184    -1.2067     3.7048 C.3     
  15 C15           -3.5668     2.2128     2.3332 C.3     
  16 O16           -2.5227    -0.7585     4.1079 O.3     
  17 S17           -2.5442     0.2632     5.2358 S.o2    
  18 O18           -1.2230     0.7762     5.3378 O.2     
  19 O19           -3.6817     1.0848     5.0113 O.2     
  20 O20           -2.8112    -0.4968     6.5271 O.3     
  21 Na21          -1.2443    -1.5213     7.2020 Du      
  22 O22           -1.1952    -2.0350    -0.5112 O.3     
  23 S23            0.2449    -2.5151    -0.4008 S.o2    
  24 O24            0.3656    -3.6268    -1.2776 O.2     
  25 O25            1.0625    -1.3569    -0.4972 O.2     
  26 O26            0.4322    -3.0573     1.0089 O.3     
  27 Na27          -0.4060    -4.8370     1.3096 Du      
  28 O28           -5.8623    -2.8846     3.6587 O.3     
  29 S29           -7.3434    -2.7667     3.3285 S.o2    
  30 O30           -7.9934    -2.3817     4.5320 O.2     
  31 O31           -7.4277    -2.0158     2.1250 O.2     
  32 O32           -7.8440    -4.1656     2.9982 O.3     
  33 Na33          -8.0764    -5.3386     4.5888 Du      
  34 O34           -5.2294    -5.3398     3.4222 O.3     
  35 S35           -5.9963    -6.5617     2.9370 S.o2    
  36 O36           -6.6425    -7.1091     4.0781 O.2     
  37 O37           -6.6948    -6.1584     1.7671 O.2     
  38 O38           -4.9680    -7.5909     2.4903 O.3     
  39 Na39          -4.0376    -8.5094     3.9906 Du      
  40 O40           -3.6721    -0.7602    -0.7932 O.3     
  41 S41           -3.7459    -1.5160    -2.1122 S.o2    
  42 O42           -5.0584    -2.0546    -2.1931 O.2     
  43 O43           -3.1973    -0.6541    -3.0998 O.2     
  44 O44           -2.7999    -2.7034    -2.0046 O.3     
  45 Na45          -3.4899    -4.1880    -0.8732 Du      
  46 O46           -4.6121     2.9558     1.7029 O.3     
  47 S47           -5.0668     4.1756     2.4914 S.o2    
  48 O48           -6.3016     4.5853     1.9201 O.2     
  49 O49           -4.9181     3.8438     3.8651 O.2     
  50 O50           -4.0711     5.2916     2.2087 O.3     
  51 Na51          -4.2712     6.1181     0.4095 Du      
  52 O52           -1.6233     2.0976     0.2426 O.3     
  53 S53           -1.6003     3.2919    -0.7006 S.o2    
  54 O54           -0.2730     3.7986    -0.6742 O.2     
  55 O55           -2.2489     2.8734    -1.8937 O.2     
  56 O56           -2.4836     4.3683    -0.0861 O.3     
  57 Na57          -1.6572     5.3073     1.4616 Du      
  58 O58           -1.2038    -5.8603     3.2560 O.3     
  59 S59           -0.6234    -7.0569     3.9961 S.o2    
  60 O60            0.7802    -6.8455     4.0623 O.2     
  61 O61           -1.4355    -7.2498     5.1461 O.2     
  62 O62           -0.8329    -8.2781     3.1123 O.3     
  63 Na63           0.4044    -8.3733     1.5566 Du      
  64 H64           -3.5749     1.8534    -0.3921 H       
  65 H65           -2.0718     0.2637    -1.6097 H       
  66 H66           -0.5227    -0.2307     0.2411 H       
  67 H67           -1.2527    -1.6218     2.1428 H       
  68 H68           -4.2215     0.3560     1.4583 H       
  69 H69           -5.5225    -2.7232     1.6135 H       
  70 H70           -4.9486    -4.9494     1.3991 H       
  71 H71           -2.6426    -4.5412     1.5072 H       
  72 H72           -2.9878    -5.7542     4.2926 H       
  73 H73           -3.0304    -6.7051     2.7885 H       
  74 H74           -4.3568    -0.3845     3.2334 H       
  75 H75           -4.3722    -1.5500     4.5786 H       
  76 H76           -3.8663     1.9541     3.3488 H       
  77 H77           -2.6598     2.8166     2.3646 H       
@<TRIPOS>BOND
   1    1    2 1
   2    1   52 1
   3    1    6 1
   4    1   64 1
   5    2    3 1
   6    2   40 1
   7    2   65 1
   8    3    4 1
   9    3   22 1
  10    3   66 1
  11    4    5 1
  12    4    7 1
  13    4   67 1
  14    5    6 1
  15    6   15 1
  16    6   68 1
  17    7    8 1
  18    8    9 1
  19    8   14 1
  20    8   12 1
  21    9   10 1
  22    9   28 1
  23    9   69 1
  24   10   11 1
  25   10   34 1
  26   10   70 1
  27   11   12 1
  28   11   13 1
  29   11   71 1
  30   13   58 1
  31   13   72 1
  32   13   73 1
  33   14   16 1
  34   14   74 1
  35   14   75 1
  36   15   46 1
  37   15   76 1
  38   15   77 1
  39   16   17 1
  40   17   18 2
  41   17   19 2
  42   17   20 1
  43   20   21 1
  44   22   23 1
  45   23   24 2
  46   23   25 2
  47   23   26 1
  48   26   27 1
  49   28   29 1
  50   29   30 2
  51   29   31 2
  52   29   32 1
  53   32   33 1
  54   34   35 1
  55   35   36 2
  56   35   37 2
  57   35   38 1
  58   38   39 1
  59   40   41 1
  60   41   42 2
  61   41   43 2
  62   41   44 1
  63   44   45 1
  64   46   47 1
  65   47   48 2
  66   47   49 2
  67   47   50 1
  68   50   51 1
  69   52   53 1
  70   53   54 2
  71   53   55 2
  72   53   56 1
  73   56   57 1
  74   58   59 1
  75   59   60 2
  76   59   61 2
  77   59   62 1
  78   62   63 1

#	End of record

