#	Name: ASD02198114
#	Creating user name:	WinNT
#	Creation time:	15. 06. 2019 20:18

#	Modifying user name:	WinNT
#	Modification time:	15. 06. 2019 20:18

#	Program:	/corina/corina34_cracker 3.40 0067  02.08.2006

@<TRIPOS>MOLECULE
ASD02198114
  45   48    0    0    0
SMALL
NO_CHARGES


@<TRIPOS>ATOM
   1 C1             0.0601     1.7397    -0.1404 C.2     
   2 C2             0.1614     0.3651    -0.1477 C.2     
   3 C3            -0.9651    -0.5017     0.0268 C.1     
   4 S4             1.5864     2.4624    -0.3748 S.3     
   5 C5             2.3820     0.9007    -0.4858 C.2     
   6 C6             1.4594    -0.1051    -0.3408 C.2     
   7 C7             3.7643     0.7084    -0.6937 C.2     
   8 C8             4.6338     1.8632    -0.9828 C.2     
   9 O9             4.2399    -0.4134    -0.6341 O.2     
  10 N10            1.7855    -1.4530    -0.3826 N.pl3   
  11 N11           -1.1160     2.4353     0.0277 N.pl3   
  12 N12           -1.8587    -1.1893     0.1652 N.1     
  13 C13            4.2472     3.1499    -1.1890 C.2     
  14 C14           -1.0926     3.8267     0.1561 C.ar    
  15 C15           -0.0037     4.4527     0.7492 C.ar    
  16 O16            5.3209     3.9157    -1.4227 O.3     
  17 C17            6.4578     3.1905    -1.3848 C.ar    
  18 C18            6.1050     1.8628    -1.1019 C.ar    
  19 C19            7.7977     3.5147    -1.5596 C.ar    
  20 C20            8.7620     2.5348    -1.4600 C.ar    
  21 C21            8.4101     1.2214    -1.1864 C.ar    
  22 C22            7.0869     0.8821    -1.0019 C.ar    
  23 C23            0.0162     5.8281     0.8746 C.ar    
  24 C24           -1.0462     6.5816     0.4106 C.ar    
  25 C25           -2.1321     5.9614    -0.1805 C.ar    
  26 C26           -2.1559     4.5873    -0.3142 C.ar    
  27 C27           -3.3392     3.9125    -0.9588 C.3     
  28 C28           -4.3197     3.4582     0.1243 C.3     
  29 H29            2.7064    -1.7251    -0.5203 H       
  30 H30            1.0928    -2.1232    -0.2742 H       
  31 H31           -1.9609     1.9597     0.0570 H       
  32 H32            3.2264     3.5021    -1.1678 H       
  33 H33            0.8263     3.8647     1.1122 H       
  34 H34            8.0834     4.5340    -1.7737 H       
  35 H35            9.8020     2.7922    -1.5967 H       
  36 H36            9.1757     0.4634    -1.1117 H       
  37 H37            6.8132    -0.1407    -0.7889 H       
  38 H38            0.8623     6.3155     1.3360 H       
  39 H39           -1.0283     7.6568     0.5102 H       
  40 H40           -2.9604     6.5529    -0.5416 H       
  41 H41           -3.8370     4.6138    -1.6286 H       
  42 H42           -2.9987     3.0469    -1.5270 H       
  43 H43           -4.6601     4.3239     0.6924 H       
  44 H44           -5.1755     2.9701    -0.3420 H       
  45 H45           -3.8218     2.7569     0.7940 H       
@<TRIPOS>BOND
   1    1    2 2
   2    1    4 1
   3    1   11 1
   4    2    3 1
   5    2    6 1
   6    3   12 3
   7    4    5 1
   8    5    6 2
   9    5    7 1
  10    6   10 1
  11    7    8 1
  12    7    9 2
  13    8   13 2
  14    8   18 1
  15   10   29 1
  16   10   30 1
  17   11   14 1
  18   11   31 1
  19   13   16 1
  20   13   32 1
  21   14   15 ar
  22   14   26 ar
  23   15   23 ar
  24   15   33 1
  25   16   17 1
  26   17   18 ar
  27   17   19 ar
  28   18   22 ar
  29   19   20 ar
  30   19   34 1
  31   20   21 ar
  32   20   35 1
  33   21   22 ar
  34   21   36 1
  35   22   37 1
  36   23   24 ar
  37   23   38 1
  38   24   25 ar
  39   24   39 1
  40   25   26 ar
  41   25   40 1
  42   26   27 1
  43   27   28 1
  44   27   41 1
  45   27   42 1
  46   28   43 1
  47   28   44 1
  48   28   45 1

#	End of record

