#	Name: ASD04882449
#	Creating user name:	WinNT
#	Creation time:	15. 06. 2019 20:54

#	Modifying user name:	WinNT
#	Modification time:	15. 06. 2019 20:54

#	Program:	/corina/corina34_cracker 3.40 0067  02.08.2006

@<TRIPOS>MOLECULE
ASD04882449
  72   77    0    0    0
SMALL
NO_CHARGES


@<TRIPOS>ATOM
   1 C1            -0.0103     1.3696    -0.0216 C.ar    
   2 C2             0.0013    -0.0279    -0.0119 C.ar    
   3 C3            -1.1957    -0.7348    -0.0218 C.ar    
   4 C4            -2.3968    -0.0612    -0.0412 C.ar    
   5 C5            -2.4154     1.3363    -0.0510 C.ar    
   6 C6            -1.2135     2.0495    -0.0358 C.ar    
   7 N7             1.2134    -0.7131     0.0072 N.3     
   8 C8             1.3200    -1.5612     1.2026 C.3     
   9 C9             1.3884    -1.5080    -1.2163 C.3     
  10 C10            2.7630    -2.1805    -1.1923 C.3     
  11 N11            2.8696    -3.0287     0.0030 N.3     
  12 C12            2.6946    -2.2338     1.2266 C.3     
  13 C13           -3.7022     2.0577    -0.0722 C.2     
  14 O14           -3.7175     3.2735    -0.0807 O.2     
  15 N15           -4.8607     1.3691    -0.0822 N.am    
  16 N16            1.1969     2.0809    -0.0112 N.am    
  17 C17            1.2377     3.3320     0.4885 C.2     
  18 C18            2.5232     4.0472     0.5809 C.2     
  19 N19            3.7404     3.5749     0.1977 N.2     
  20 C20            4.0796    -3.7127     0.0222 C.ar    
  21 O21            0.2136     3.8709     0.8631 O.2     
  22 C22            2.7153     5.3065     1.0602 C.2     
  23 O23            4.0292     5.5656     0.9641 O.3     
  24 C24            4.6308     4.4912     0.4341 C.2     
  25 C25            4.0860    -5.0990     0.1358 C.ar    
  26 C26            5.2973    -5.7670     0.1531 C.ar    
  27 C27            6.4656    -5.0233     0.0558 C.ar    
  28 C28            6.3854    -3.6494    -0.0545 C.ar    
  29 N29            5.2158    -3.0391    -0.0735 N.ar    
  30 C30            2.7910    -5.8628     0.2391 C.3     
  31 C31            6.1067     4.3660     0.1564 C.3     
  32 C32            6.7313     5.3728    -0.8116 C.3     
  33 C33            7.0217     5.4713     0.6873 C.3     
  34 C34           -6.1384     2.0855    -0.1032 C.3     
  35 C35           -7.2887     1.0766    -0.1109 C.3     
  36 C36           -8.6030     1.8135    -0.1326 C.2     
  37 N37           -8.9971     2.7483     0.7448 N.2     
  38 C38           -9.5854     1.6530    -1.0397 C.2     
  39 N39          -10.5925     2.5110    -0.6887 N.pl3   
  40 C40          -10.1887     3.1692     0.4192 C.2     
  41 H41           -1.1837    -1.8148    -0.0146 H       
  42 H42           -3.3250    -0.6133    -0.0492 H       
  43 H43           -1.2248     3.1294    -0.0433 H       
  44 H44            1.1996    -0.9479     2.0956 H       
  45 H45            0.5422    -2.3244     1.1776 H       
  46 H46            0.6113    -2.2705    -1.2688 H       
  47 H47            1.3177    -0.8558    -2.0869 H       
  48 H48            2.8834    -2.7938    -2.0853 H       
  49 H49            3.5408    -1.4174    -1.1673 H       
  50 H50            3.4717    -1.4712     1.2791 H       
  51 H51            2.7653    -2.8859     2.0971 H       
  52 H52           -4.8485     0.3992    -0.0754 H       
  53 H53            2.0033     1.6729    -0.3635 H       
  54 H54            1.9556     5.9708     1.4446 H       
  55 H55            5.3333    -6.8429     0.2406 H       
  56 H56            7.4274    -5.5144     0.0666 H       
  57 H57            7.2918    -3.0669    -0.1301 H       
  58 H58            2.4923    -6.2072    -0.7510 H       
  59 H59            2.9271    -6.7214     0.8967 H       
  60 H60            2.0170    -5.2123     0.6464 H       
  61 H61            6.4986     3.3489     0.1470 H       
  62 H62            7.5345     5.0182    -1.4576 H       
  63 H63            6.0747     6.1257    -1.2476 H       
  64 H64            6.5562     6.2891     1.2375 H       
  65 H65            8.0159     5.1816     1.0275 H       
  66 H66           -6.2153     2.7174     0.7815 H       
  67 H67           -6.1928     2.7052    -0.9982 H       
  68 H68           -7.2118     0.4446    -0.9956 H       
  69 H69           -7.2343     0.4568     0.7841 H       
  70 H70           -9.5794     0.9776    -1.8824 H       
  71 H71          -11.4373     2.6267    -1.1511 H       
  72 H72          -10.7577     3.9193     0.9483 H       
@<TRIPOS>BOND
   1    1    2 ar
   2    1   16 1
   3    1    6 ar
   4    2    3 ar
   5    2    7 1
   6    3    4 ar
   7    3   41 1
   8    4    5 ar
   9    4   42 1
  10    5    6 ar
  11    5   13 1
  12    6   43 1
  13    7    8 1
  14    7    9 1
  15    8   12 1
  16    8   44 1
  17    8   45 1
  18    9   10 1
  19    9   46 1
  20    9   47 1
  21   10   11 1
  22   10   48 1
  23   10   49 1
  24   11   12 1
  25   11   20 1
  26   12   50 1
  27   12   51 1
  28   13   14 2
  29   13   15 am
  30   15   34 1
  31   15   52 1
  32   16   17 am
  33   16   53 1
  34   17   18 1
  35   17   21 2
  36   18   22 2
  37   18   19 1
  38   19   24 2
  39   20   25 ar
  40   20   29 ar
  41   22   23 1
  42   22   54 1
  43   23   24 1
  44   24   31 1
  45   25   26 ar
  46   25   30 1
  47   26   27 ar
  48   26   55 1
  49   27   28 ar
  50   27   56 1
  51   28   29 ar
  52   28   57 1
  53   30   58 1
  54   30   59 1
  55   30   60 1
  56   31   32 1
  57   31   33 1
  58   31   61 1
  59   32   33 1
  60   32   62 1
  61   32   63 1
  62   33   64 1
  63   33   65 1
  64   34   35 1
  65   34   66 1
  66   34   67 1
  67   35   36 1
  68   35   68 1
  69   35   69 1
  70   36   37 1
  71   36   38 2
  72   37   40 2
  73   38   39 1
  74   38   70 1
  75   39   40 1
  76   39   71 1
  77   40   72 1

#	End of record

