#	Name: ASD03331090
#	Creating user name:	WinNT
#	Creation time:	15. 06. 2019 20:38

#	Modifying user name:	WinNT
#	Modification time:	15. 06. 2019 20:38

#	Program:	/corina/corina34_cracker 3.40 0067  02.08.2006

@<TRIPOS>MOLECULE
ASD03331090
  64   66    0    0    0
SMALL
NO_CHARGES


@<TRIPOS>ATOM
   1 N1             0.0556     1.1535    -0.7762 N.pl3   
   2 C2             0.0606    -0.1792    -0.5056 C.2     
   3 C3             1.2820    -1.0105    -0.2118 C.3     
   4 N4             2.1147    -0.3106     0.7788 N.3     
   5 C5             3.0663     0.5923     0.1285 C.3     
   6 C6             2.4694     1.1921    -1.1413 C.3     
   7 C7             1.2338     2.0252    -0.7900 C.3     
   8 C8            -1.2377     1.5170    -1.0160 C.2     
   9 N9            -2.0020     0.4583    -0.8817 N.2     
  10 C10           -1.2312    -0.6052    -0.5638 C.2     
  11 C11           -1.7041    -1.9799    -0.3240 C.2     
  12 O12           -0.9088    -2.8565    -0.0442 O.2     
  13 N13           -3.0181    -2.2660    -0.4148 N.am    
  14 C14           -1.7007     2.8764    -1.3680 C.ar    
  15 C15           -2.6005     3.0599    -2.4215 C.ar    
  16 C16           -3.0303     4.3324    -2.7458 C.ar    
  17 C17           -2.5706     5.4248    -2.0292 C.ar    
  18 C18           -1.6766     5.2481    -0.9824 C.ar    
  19 C19           -1.2454     3.9800    -0.6458 C.ar    
  20 F20           -1.2314     6.3181    -0.2880 F       
  21 F21           -2.9936     6.6670    -2.3506 F       
  22 F22           -3.0490     1.9952    -3.1218 F       
  23 C23            2.8086    -1.2662     1.6526 C.3     
  24 C24           -4.7929    -3.8486    -0.8991 C.2     
  25 C25           -3.4883    -3.6329    -0.1763 C.3     
  26 C26           -3.6953    -3.8465     1.3245 C.3     
  27 C27           -4.7918    -2.9053     1.8271 C.3     
  28 O28           -5.4283    -2.8967    -1.3006 O.2     
  29 C29           -4.1109    -5.2965     1.5807 C.3     
  30 C30           -2.3902    -3.5513     2.0664 C.3     
  31 N31           -5.2537    -5.0992    -1.0993 N.am    
  32 C32           -6.5598    -5.3065    -1.7297 C.3     
  33 C33           -6.8414    -6.8064    -1.8382 C.3     
  34 O34           -6.9611    -7.3646    -0.5282 O.3     
  35 H35            0.9770    -1.9780     0.1870 H       
  36 H36            1.8524    -1.1568    -1.1290 H       
  37 H37            3.3248     1.3966     0.8173 H       
  38 H38            3.9689     0.0374    -0.1275 H       
  39 H39            3.2105     1.8290    -1.6243 H       
  40 H40            2.1840     0.3897    -1.8216 H       
  41 H41            1.0986     2.8088    -1.5355 H       
  42 H42            1.3655     2.4755     0.1938 H       
  43 H43           -3.6524    -1.5669    -0.6379 H       
  44 H44           -3.7256     4.4755    -3.5597 H       
  45 H45           -0.5531     3.8433     0.1718 H       
  46 H46            3.3945    -1.9553     1.0445 H       
  47 H47            3.4706    -0.7255     2.3290 H       
  48 H48            2.0754    -1.8267     2.2326 H       
  49 H49           -2.7470    -4.3417    -0.5454 H       
  50 H50           -5.7216    -3.1156     1.2985 H       
  51 H51           -4.9393    -3.0575     2.8963 H       
  52 H52           -4.4958    -1.8723     1.6446 H       
  53 H53           -3.3198    -5.9662     1.2434 H       
  54 H54           -4.2805    -5.4428     2.6474 H       
  55 H55           -5.0284    -5.5136     1.0337 H       
  56 H56           -2.0942    -2.5183     1.8839 H       
  57 H57           -2.5377    -3.7035     3.1356 H       
  58 H58           -1.6090    -4.2219     1.7083 H       
  59 H59           -4.7205    -5.8620    -0.8260 H       
  60 H60           -7.3341    -4.8342    -1.1252 H       
  61 H61           -6.5566    -4.8644    -2.7261 H       
  62 H62           -7.7706    -6.9630    -2.3862 H       
  63 H63           -6.0215    -7.2927    -2.3669 H       
  64 H64           -7.1403    -8.3148    -0.5204 H       
@<TRIPOS>BOND
   1    1    2 1
   2    1    7 1
   3    1    8 1
   4    2    3 1
   5    2   10 2
   6    3    4 1
   7    3   35 1
   8    3   36 1
   9    4    5 1
  10    4   23 1
  11    5    6 1
  12    5   37 1
  13    5   38 1
  14    6    7 1
  15    6   39 1
  16    6   40 1
  17    7   41 1
  18    7   42 1
  19    8    9 2
  20    8   14 1
  21    9   10 1
  22   10   11 1
  23   11   12 2
  24   11   13 am
  25   13   25 1
  26   13   43 1
  27   14   15 ar
  28   14   19 ar
  29   15   16 ar
  30   15   22 1
  31   16   17 ar
  32   16   44 1
  33   17   18 ar
  34   17   21 1
  35   18   19 ar
  36   18   20 1
  37   19   45 1
  38   23   46 1
  39   23   47 1
  40   23   48 1
  41   24   28 2
  42   24   31 am
  43   24   25 1
  44   25   26 1
  45   25   49 1
  46   26   27 1
  47   26   29 1
  48   26   30 1
  49   27   50 1
  50   27   51 1
  51   27   52 1
  52   29   53 1
  53   29   54 1
  54   29   55 1
  55   30   56 1
  56   30   57 1
  57   30   58 1
  58   31   32 1
  59   31   59 1
  60   32   33 1
  61   32   60 1
  62   32   61 1
  63   33   34 1
  64   33   62 1
  65   33   63 1
  66   34   64 1

#	End of record

