#	Name: ASD01912396
#	Creating user name:	WinNT
#	Creation time:	15. 06. 2019 19:59

#	Modifying user name:	WinNT
#	Modification time:	15. 06. 2019 19:59

#	Program:	/corina/corina34_cracker 3.40 0067  02.08.2006

@<TRIPOS>MOLECULE
ASD01912396
  56   57    0    0    0
SMALL
NO_CHARGES


@<TRIPOS>ATOM
   1 N1            -0.0178     1.4650     0.0101 N.am    
   2 C2             0.0021    -0.0041     0.0020 C.3     
   3 C3             0.8803    -0.4916     1.1586 C.3     
   4 C4             2.2627     0.1563     1.0525 C.3     
   5 C5             2.1248     1.6768     1.1584 C.3     
   6 C6             1.2607     2.1889     0.0018 C.3     
   7 C7            -1.1868     2.1359     0.0193 C.2     
   8 O8            -2.2375     1.5256     0.0210 O.2     
   9 O9            -1.1902     3.4822     0.0266 O.3     
  10 C10            3.1537    -0.3549     2.1863 C.3     
  11 C11            3.2879    -1.8172     2.0837 C.1     
  12 C12            3.3948    -2.9834     2.0019 C.1     
  13 C13            3.5253    -4.4060     1.9020 C.ar    
  14 C14            4.2977    -5.0976     2.8360 C.ar    
  15 C15            4.4140    -6.4718     2.7259 C.ar    
  16 C16            3.7544    -7.1118     1.6856 C.ar    
  17 C17            3.0055    -6.3648     0.7951 C.ar    
  18 N18            2.9060    -5.0575     0.9245 N.ar    
  19 C19            2.2885    -7.0562    -0.3358 C.3     
  20 O20            4.4654     0.2597     2.0858 O.3     
  21 C21            5.1420     0.4462     3.2335 C.2     
  22 O22            4.6507     0.1050     4.2903 O.2     
  23 O23            6.3630     1.0106     3.2105 O.3     
  24 C24            7.0348     1.1808     4.4864 C.3     
  25 C25           -2.4856     4.1381     0.0364 C.3     
  26 C26           -3.2605     3.7182     1.2870 C.3     
  27 C27           -2.2890     5.6554     0.0437 C.3     
  28 C28           -3.2723     3.7317    -1.2114 C.3     
  29 H29           -1.0118    -0.3840     0.1278 H       
  30 H30            0.4128    -0.3587    -0.9433 H       
  31 H31            0.4202    -0.2139     2.1069 H       
  32 H32            0.9816    -1.5757     1.1066 H       
  33 H33            2.7120    -0.1016     0.0934 H       
  34 H34            1.6530     1.9341     2.1067 H       
  35 H35            3.1119     2.1361     1.1062 H       
  36 H36            1.7740     2.0131    -0.9436 H       
  37 H37            1.0772     3.2560     0.1274 H       
  38 H38            2.7045    -0.0977     3.1456 H       
  39 H39            4.7979    -4.5677     3.6331 H       
  40 H40            5.0051    -7.0342     3.4336 H       
  41 H41            3.8258    -8.1835     1.5725 H       
  42 H42            1.2877    -7.3411    -0.0112 H       
  43 H43            2.2155    -6.3797    -1.1873 H       
  44 H44            2.8437    -7.9479    -0.6267 H       
  45 H45            7.1709     0.2076     4.9581 H       
  46 H46            8.0074     1.6459     4.3258 H       
  47 H47            6.4303     1.8167     5.1332 H       
  48 H48           -2.7000     4.0076     2.1759 H       
  49 H49           -4.2329     4.2105     1.2943 H       
  50 H50           -3.4005     2.6372     1.2818 H       
  51 H51           -1.7370     5.9545    -0.8473 H       
  52 H52           -3.2615     6.1477     0.0510 H       
  53 H53           -1.7286     5.9448     0.9326 H       
  54 H54           -3.4124     2.6508    -1.2166 H       
  55 H55           -4.2448     4.2241    -1.2041 H       
  56 H56           -2.7203     4.0309    -2.1024 H       
@<TRIPOS>BOND
   1    1    2 1
   2    1    6 1
   3    1    7 am
   4    2    3 1
   5    2   29 1
   6    2   30 1
   7    3    4 1
   8    3   31 1
   9    3   32 1
  10    4    5 1
  11    4   10 1
  12    4   33 1
  13    5    6 1
  14    5   34 1
  15    5   35 1
  16    6   36 1
  17    6   37 1
  18    7    8 2
  19    7    9 1
  20    9   25 1
  21   10   11 1
  22   10   20 1
  23   10   38 1
  24   11   12 3
  25   12   13 1
  26   13   14 ar
  27   13   18 ar
  28   14   15 ar
  29   14   39 1
  30   15   16 ar
  31   15   40 1
  32   16   17 ar
  33   16   41 1
  34   17   18 ar
  35   17   19 1
  36   19   42 1
  37   19   43 1
  38   19   44 1
  39   20   21 1
  40   21   22 2
  41   21   23 1
  42   23   24 1
  43   24   45 1
  44   24   46 1
  45   24   47 1
  46   25   26 1
  47   25   28 1
  48   25   27 1
  49   26   48 1
  50   26   49 1
  51   26   50 1
  52   27   51 1
  53   27   52 1
  54   27   53 1
  55   28   54 1
  56   28   55 1
  57   28   56 1

#	End of record

