#	Name: ASD01881264
#	Creating user name:	WinNT
#	Creation time:	15. 06. 2019 19:42

#	Modifying user name:	WinNT
#	Modification time:	15. 06. 2019 19:42

#	Program:	/corina/corina34_cracker 3.40 0067  02.08.2006

@<TRIPOS>MOLECULE
ASD01881264
  46   48    0    0    0
SMALL
NO_CHARGES


@<TRIPOS>ATOM
   1 C1            -0.0162     1.3398     0.0094 C.2     
   2 N2             0.0021    -0.0041     0.0020 N.am    
   3 C3             1.3975    -0.4575    -0.0137 C.3     
   4 C4             2.2454     0.7902    -0.0151 C.ar    
   5 C5             3.6006     1.0048    -0.0269 C.ar    
   6 C6             4.0977     2.3066    -0.0247 C.ar    
   7 C7             3.2198     3.3875    -0.0105 C.ar    
   8 C8             1.8604     3.1761     0.0014 C.ar    
   9 C9             1.3570     1.8711    -0.0008 C.ar    
  10 O10           -1.0238     2.0203     0.0180 O.2     
  11 N11            5.4710     2.5265    -0.0361 N.pl3   
  12 C12            6.3947     1.3895    -0.0506 C.3     
  13 C13            6.2328     4.4857     1.1657 C.ar    
  14 C14            5.9699     3.8325    -0.0339 C.ar    
  15 C15            6.2114     4.4986    -1.2321 C.ar    
  16 C16            6.7065     5.7920    -1.1785 C.ar    
  17 C17            6.9428     6.3744     0.0521 C.ar    
  18 N18            6.7038     5.7173     1.1708 N.ar    
  19 C19            5.9416     3.8295    -2.5552 C.3     
  20 F20            6.2654     4.7066    -3.5959 F       
  21 F21            6.7214     2.6728    -2.6605 F       
  22 F22            4.5874     3.4880    -2.6375 F       
  23 Cl23           5.9313     3.6743     2.6705 Cl      
  24 C24           -1.1772    -0.8732     0.0093 C.3     
  25 C25           -1.6021    -1.1686    -1.4305 C.3     
  26 C26           -2.8337    -2.0763    -1.4228 C.3     
  27 C27           -3.2585    -2.3716    -2.8627 C.3     
  28 H28            1.6082    -1.0527     0.8747 H       
  29 H29            1.5911    -1.0431    -0.9124 H       
  30 H30            4.2810     0.1661    -0.0376 H       
  31 H31            3.6075     4.3955    -0.0084 H       
  32 H32            1.1827     4.0169     0.0127 H       
  33 H33            6.6144     1.1129    -1.0818 H       
  34 H34            7.3193     1.6660     0.4562 H       
  35 H35            5.9378     0.5436     0.4630 H       
  36 H36            6.9058     6.3384    -2.0885 H       
  37 H37            7.3289     7.3820     0.0987 H       
  38 H38           -0.9367    -1.8078     0.5161 H       
  39 H39           -1.9926    -0.3749     0.5338 H       
  40 H40           -1.8426    -0.2340    -1.9373 H       
  41 H41           -0.7867    -1.6668    -1.9550 H       
  42 H42           -2.5931    -3.0108    -0.9161 H       
  43 H43           -3.6490    -1.5780    -0.8984 H       
  44 H44           -4.1360    -3.0183    -2.8572 H       
  45 H45           -3.4991    -1.4371    -3.3695 H       
  46 H46           -2.4432    -2.8699    -3.3872 H       
@<TRIPOS>BOND
   1    1    2 am
   2    1    9 1
   3    1   10 2
   4    2    3 1
   5    2   24 1
   6    3    4 1
   7    3   28 1
   8    3   29 1
   9    4    5 ar
  10    4    9 ar
  11    5    6 ar
  12    5   30 1
  13    6    7 ar
  14    6   11 1
  15    7    8 ar
  16    7   31 1
  17    8    9 ar
  18    8   32 1
  19   11   12 1
  20   11   14 1
  21   12   33 1
  22   12   34 1
  23   12   35 1
  24   13   14 ar
  25   13   18 ar
  26   13   23 1
  27   14   15 ar
  28   15   16 ar
  29   15   19 1
  30   16   17 ar
  31   16   36 1
  32   17   18 ar
  33   17   37 1
  34   19   20 1
  35   19   21 1
  36   19   22 1
  37   24   25 1
  38   24   38 1
  39   24   39 1
  40   25   26 1
  41   25   40 1
  42   25   41 1
  43   26   27 1
  44   26   42 1
  45   26   43 1
  46   27   44 1
  47   27   45 1
  48   27   46 1

#	End of record

