#	Name: ASD00069002
#	Creating user name:	WinNT
#	Creation time:	15. 06. 2019 18:29

#	Modifying user name:	WinNT
#	Modification time:	15. 06. 2019 18:29

#	Program:	/corina/corina34_cracker 3.40 0067  02.08.2006

@<TRIPOS>MOLECULE
ASD00069002
  55   60    0    0    0
SMALL
NO_CHARGES


@<TRIPOS>ATOM
   1 C1            -0.0108     1.3869     0.0187 C.ar    
   2 C2             0.0041    -0.0075     0.0076 C.ar    
   3 C3             1.2048    -0.6915    -0.0048 C.ar    
   4 C4             2.4035     0.0241    -0.0067 C.ar    
   5 C5             2.3785     1.4303     0.0040 C.ar    
   6 C6             1.1555     2.0967     0.0169 C.ar    
   7 C7             3.8194    -0.3635    -0.0187 C.2     
   8 N8             4.5313     0.7402    -0.0150 N.2     
   9 N9             3.6851     1.8533    -0.0012 N.pl3   
  10 C10            4.3467    -1.7420    -0.0320 C.2     
  11 N11            5.6742    -2.0776    -0.0431 N.pl3   
  12 C12            5.7462    -3.4598    -0.0526 C.ar    
  13 C13            4.4182    -3.9214    -0.0468 C.ar    
  14 N14            3.6142    -2.8304    -0.0293 N.2     
  15 C15            6.7970    -4.3662    -0.0656 C.ar    
  16 C16            6.5380    -5.7198    -0.0727 C.ar    
  17 C17            5.2247    -6.1867    -0.0669 C.ar    
  18 C18            4.1671    -5.2974    -0.0540 C.ar    
  19 N19            4.9759    -7.5636    -0.0747 N.3     
  20 C20            4.1201    -7.9379    -1.2100 C.3     
  21 C21            3.9228    -9.4561    -1.2145 C.3     
  22 O22            3.3680    -9.8634     0.0391 O.3     
  23 C23            4.1760    -9.5153     1.1666 C.3     
  24 C24            4.3759    -7.9977     1.1953 C.3     
  25 N25           -1.2032    -0.7179     0.0097 N.am    
  26 C26           -1.3022    -1.8804    -0.6652 C.2     
  27 C27           -2.5600    -2.7045    -0.5658 C.3     
  28 O28           -0.3790    -2.2632    -1.3524 O.2     
  29 C29           -2.6107    -4.0140    -1.3556 C.3     
  30 C30           -2.4706    -4.0442     0.1677 C.3     
  31 F31           -3.8429    -4.3935    -1.8986 F       
  32 F32           -1.4860    -4.3546    -2.1146 F       
  33 C33            3.4787    -9.9631     2.4527 C.3     
  34 H34           -0.9551     1.9110     0.0242 H       
  35 H35            1.2157    -1.7714    -0.0126 H       
  36 H36            1.1296     3.1764     0.0248 H       
  37 H37            3.9753     2.7788     0.0038 H       
  38 H38            6.4237    -1.4619    -0.0446 H       
  39 H39            7.8169    -4.0111    -0.0704 H       
  40 H40            7.3577    -6.4230    -0.0831 H       
  41 H41            3.1510    -5.6633    -0.0493 H       
  42 H42            3.1524    -7.4453    -1.1142 H       
  43 H43            4.5955    -7.6298    -2.1412 H       
  44 H44            3.2428    -9.7323    -2.0204 H       
  45 H45            4.8841    -9.9476    -1.3640 H       
  46 H46            5.1447   -10.0086     1.0863 H       
  47 H47            5.0381    -7.7333     2.0198 H       
  48 H48            3.4124    -7.5061     1.3295 H       
  49 H49           -1.9679    -0.3732     0.4967 H       
  50 H50           -3.4865    -2.1385    -0.4697 H       
  51 H51           -1.5021    -4.3295     0.5785 H       
  52 H52           -3.3385    -4.3598     0.7468 H       
  53 H53            3.3332   -11.0431     2.4300 H       
  54 H54            4.0950    -9.6976     3.3116 H       
  55 H55            2.5111    -9.4678     2.5328 H       
@<TRIPOS>BOND
   1    1    2 ar
   2    1    6 ar
   3    1   34 1
   4    2    3 ar
   5    2   25 1
   6    3    4 ar
   7    3   35 1
   8    4    5 ar
   9    4    7 1
  10    5    6 ar
  11    5    9 1
  12    6   36 1
  13    7    8 2
  14    7   10 1
  15    8    9 1
  16    9   37 1
  17   10   11 1
  18   10   14 2
  19   11   12 1
  20   11   38 1
  21   12   13 ar
  22   12   15 ar
  23   13   14 1
  24   13   18 ar
  25   15   16 ar
  26   15   39 1
  27   16   17 ar
  28   16   40 1
  29   17   18 ar
  30   17   19 1
  31   18   41 1
  32   19   20 1
  33   19   24 1
  34   20   21 1
  35   20   42 1
  36   20   43 1
  37   21   22 1
  38   21   44 1
  39   21   45 1
  40   22   23 1
  41   23   24 1
  42   23   33 1
  43   23   46 1
  44   24   47 1
  45   24   48 1
  46   25   26 am
  47   25   49 1
  48   26   27 1
  49   26   28 2
  50   27   29 1
  51   27   30 1
  52   27   50 1
  53   29   30 1
  54   29   31 1
  55   29   32 1
  56   30   51 1
  57   30   52 1
  58   33   53 1
  59   33   54 1
  60   33   55 1

#	End of record

