#	Name: ASD03080163
#	Creating user name:	WinNT
#	Creation time:	15. 06. 2019 20:26

#	Modifying user name:	WinNT
#	Modification time:	15. 06. 2019 20:26

#	Program:	/corina/corina34_cracker 3.40 0067  02.08.2006

@<TRIPOS>MOLECULE
ASD03080163
  29   32    0    0    0
SMALL
NO_CHARGES


@<TRIPOS>ATOM
   1 N1            -0.0178     1.4642     0.0101 N.3     
   2 C2             0.0021    -0.0041     0.0020 C.3     
   3 C3             0.8103    -0.4871    -1.2174 C.3     
   4 C4             2.2766    -0.0292    -0.9710 C.3     
   5 C5             2.1004     1.4965    -1.2193 C.3     
   6 C6             1.3326     2.0412     0.0003 C.3     
   7 C7             1.1446     1.5390    -2.4035 C.ar    
   8 C8             0.3832     0.3676    -2.4027 C.ar    
   9 C9            -0.5566     0.1452    -3.3612 C.ar    
  10 C10           -0.7697     1.1031    -4.3670 C.ar    
  11 C11            0.0024     2.2924    -4.3673 C.ar    
  12 C12            0.9652     2.4875    -3.3625 C.ar    
  13 N13           -0.1970     3.2088    -5.3210 N.ar    
  14 C14           -1.1041     2.9977    -6.2470 C.ar    
  15 C15           -1.8636     1.8255    -6.2476 C.ar    
  16 N16           -1.6872     0.9114    -5.3211 N.ar    
  17 H17           -0.5697     1.8226    -0.7548 H       
  18 H18            0.4698    -0.3676     0.9170 H       
  19 H19           -1.0181    -0.3824    -0.0633 H       
  20 H20            0.7191    -1.5592    -1.3915 H       
  21 H21            2.5920    -0.2334     0.0522 H       
  22 H22            2.9607    -0.4748    -1.6931 H       
  23 H23            3.0433     2.0143    -1.3951 H       
  24 H24            1.2650     3.1270    -0.0663 H       
  25 H25            1.8553     1.7620     0.9151 H       
  26 H26           -1.1370    -0.7655    -3.3493 H       
  27 H27            1.5611     3.3881    -3.3512 H       
  28 H28           -1.2642     3.7383    -7.0166 H       
  29 H29           -2.6048     1.6696    -7.0175 H       
@<TRIPOS>BOND
   1    1    2 1
   2    1    6 1
   3    1   17 1
   4    2    3 1
   5    2   18 1
   6    2   19 1
   7    3    4 1
   8    3    8 1
   9    3   20 1
  10    4    5 1
  11    4   21 1
  12    4   22 1
  13    5    6 1
  14    5    7 1
  15    5   23 1
  16    6   24 1
  17    6   25 1
  18    7    8 ar
  19    7   12 ar
  20    8    9 ar
  21    9   10 ar
  22    9   26 1
  23   10   11 ar
  24   10   16 ar
  25   11   12 ar
  26   11   13 ar
  27   12   27 1
  28   13   14 ar
  29   14   15 ar
  30   14   28 1
  31   15   16 ar
  32   15   29 1

#	End of record

