#	Name: ASD01840418
#	Creating user name:	WinNT
#	Creation time:	15. 06. 2019 19:37

#	Modifying user name:	WinNT
#	Modification time:	15. 06. 2019 19:37

#	Program:	/corina/corina34_cracker 3.40 0067  02.08.2006

@<TRIPOS>MOLECULE
ASD01840418
  49   52    0    0    0
SMALL
NO_CHARGES


@<TRIPOS>ATOM
   1 C1             1.4527     0.8612    -0.9689 C.ar    
   2 C2             1.6742    -0.3435    -1.5991 C.ar    
   3 N3             2.9084    -0.7729    -1.7990 N.ar    
   4 N4             3.9391    -0.1095    -1.4278 N.ar    
   5 C5             2.5770     1.6092    -0.5511 C.ar    
   6 C6             2.6507     2.8906     0.1262 C.2     
   7 C7             3.8443     1.0696    -0.8089 C.ar    
   8 S8             5.0930     2.1539    -0.2125 S.3     
   9 C9             3.9155     3.3117     0.3750 C.2     
  10 C10            0.0531     1.3697    -0.7372 C.3     
  11 C11            0.5056    -1.1751    -2.0618 C.3     
  12 N12            1.5263     3.6206     0.4870 N.pl3   
  13 C13            4.2527     4.5674     1.0440 C.2     
  14 O14            3.3673     5.3143     1.4189 O.2     
  15 N15            5.5436     4.8981     1.2457 N.am    
  16 C16            5.8814     6.1562     1.9159 C.3     
  17 C17            7.2753     6.0694     2.5919 C.3     
  18 C18            7.7405     7.5407     2.6149 C.3     
  19 N19            6.9903     8.2520     1.5696 N.am    
  20 C20            6.1054     7.2913     0.8859 C.3     
  21 C21            7.0938     9.5652     1.2842 C.2     
  22 O22            6.4735    10.0350     0.3499 O.2     
  23 C23            7.9598    10.4328     2.1058 C.ar    
  24 C24            7.4960    11.6796     2.5402 C.ar    
  25 C25            8.3126    12.4863     3.3090 C.ar    
  26 C26            9.5871    12.0624     3.6484 C.ar    
  27 C27           10.0508    10.8272     3.2199 C.ar    
  28 C28            9.2440    10.0106     2.4579 C.ar    
  29 F29            6.2535    12.0933     2.2084 F       
  30 F30           10.3819    12.8555     4.3997 F       
  31 H31           -0.2642     1.1127     0.2734 H       
  32 H32            0.0351     2.4526    -0.8594 H       
  33 H33           -0.6239     0.9114    -1.4581 H       
  34 H34            0.2429    -0.8965    -3.0823 H       
  35 H35            0.7761    -2.2305    -2.0314 H       
  36 H36           -0.3474    -0.9996    -1.4063 H       
  37 H37            0.6414     3.2470     0.3514 H       
  38 H38            1.6255     4.5042     0.8745 H       
  39 H39            6.2490     4.3030     0.9470 H       
  40 H40            5.1130     6.4299     2.6389 H       
  41 H41            7.1889     5.6764     3.6049 H       
  42 H42            7.9551     5.4593     1.9971 H       
  43 H43            7.5279     7.9815     3.5888 H       
  44 H44            8.8090     7.5949     2.4064 H       
  45 H45            6.5890     6.9010    -0.0096 H       
  46 H46            5.1572     7.7644     0.6305 H       
  47 H47            7.9570    13.4490     3.6455 H       
  48 H48           11.0455    10.5030     3.4878 H       
  49 H49            9.6057     9.0475     2.1292 H       
@<TRIPOS>BOND
   1    1    2 ar
   2    1    5 ar
   3    1   10 1
   4    2   11 1
   5    2    3 ar
   6    3    4 ar
   7    4    7 ar
   8    5    7 ar
   9    5    6 1
  10    6    9 2
  11    6   12 1
  12    7    8 1
  13    8    9 1
  14    9   13 1
  15   10   31 1
  16   10   32 1
  17   10   33 1
  18   11   34 1
  19   11   35 1
  20   11   36 1
  21   12   37 1
  22   12   38 1
  23   13   14 2
  24   13   15 am
  25   15   16 1
  26   15   39 1
  27   16   17 1
  28   16   20 1
  29   16   40 1
  30   17   18 1
  31   17   41 1
  32   17   42 1
  33   18   19 1
  34   18   43 1
  35   18   44 1
  36   19   20 1
  37   19   21 am
  38   20   45 1
  39   20   46 1
  40   21   22 2
  41   21   23 1
  42   23   24 ar
  43   23   28 ar
  44   24   25 ar
  45   24   29 1
  46   25   26 ar
  47   25   47 1
  48   26   27 ar
  49   26   30 1
  50   27   28 ar
  51   27   48 1
  52   28   49 1

#	End of record

