#	Name: ASD02590057
#	Creating user name:	WinNT
#	Creation time:	15. 06. 2019 20:25

#	Modifying user name:	WinNT
#	Modification time:	15. 06. 2019 20:25

#	Program:	/corina/corina34_cracker 3.40 0067  02.08.2006

@<TRIPOS>MOLECULE
ASD02590057
  90   95    0    0    0
SMALL
NO_CHARGES


@<TRIPOS>ATOM
   1 O1            -0.0163     1.3541     0.0095 O.3     
   2 C2             0.0021    -0.0041     0.0020 C.ar    
   3 C3            -1.1896    -0.7243     0.0095 C.ar    
   4 C4             1.2106    -0.6903    -0.0190 C.ar    
   5 N5             1.2388    -2.0055    -0.0267 N.ar    
   6 C6             0.1238    -2.7269    -0.0145 C.ar    
   7 C7            -1.1251    -2.1056     0.0015 C.ar    
   8 C8             0.2070    -4.2035    -0.0245 C.2     
   9 N9             1.3690    -4.9263    -0.0460 N.pl3   
  10 C10            1.0182    -6.2635    -0.0482 C.ar    
  11 C11           -0.3873    -6.2997    -0.0273 C.ar    
  12 N12           -0.8209    -5.0164    -0.0084 N.2     
  13 C13            1.7430    -7.4472    -0.0653 C.ar    
  14 C14            1.0836    -8.6572    -0.0617 C.ar    
  15 C15           -0.3081    -8.7018    -0.0411 C.ar    
  16 C16           -1.0445    -7.5350    -0.0244 C.ar    
  17 O17            3.8418    10.5549     8.5332 O.3     
  18 C18            3.2948    11.7057     9.0038 C.ar    
  19 C19            2.9451    11.8212    10.3466 C.ar    
  20 C20            2.3914    13.0107    10.7836 C.ar    
  21 C21            2.2032    14.0481     9.8701 C.ar    
  22 N22            2.5492    13.8998     8.5966 N.ar    
  23 C23            3.0833    12.7829     8.1514 C.ar    
  24 C24            1.6121    15.3254    10.3244 C.2     
  25 N25            1.2337    15.5865    11.5516 N.2     
  26 C26            0.7378    16.8455    11.6175 C.ar    
  27 C27            0.8218    17.3937    10.3254 C.ar    
  28 N28            1.3836    16.4144     9.5275 N.pl3   
  29 C29            0.2074    17.6149    12.6589 C.ar    
  30 C30           -0.2266    18.9004    12.4075 C.ar    
  31 C31           -0.1402    19.4356    11.1248 C.ar    
  32 C32            0.3805    18.6886    10.0905 C.ar    
  33 C33            4.1732    10.5148     7.1438 C.3     
  34 C34            4.7730     9.1495     6.8017 C.3     
  35 O35            3.7830     8.1352     6.9836 O.3     
  36 C36            4.2429     6.8146     6.6892 C.3     
  37 C37            3.1063     5.8161     6.9175 C.3     
  38 O38            2.0560     6.0679     5.9818 O.3     
  39 C39            0.9394     5.1853     6.1100 C.3     
  40 C40           -0.1179     5.5453     5.0643 C.3     
  41 O41            0.4051     5.3058     3.7562 O.3     
  42 C42           -0.5079     5.6115     2.7003 C.3     
  43 C43            0.1544     5.3186     1.3525 C.3     
  44 O44            0.4064     3.9165     1.2403 O.3     
  45 C45            1.0269     3.5340     0.0112 C.3     
  46 C46            1.2479     2.0201     0.0010 C.3     
  47 O47           -0.9455    -9.9029    -0.0384 O.3     
  48 C48           -0.1250   -11.0728    -0.0573 C.3     
  49 O49           -0.7423    19.6491    13.4186 O.3     
  50 C50           -1.1733    20.9718    13.0917 C.3     
  51 H51           -2.1423    -0.2158     0.0217 H       
  52 H52            2.1379    -0.1369    -0.0294 H       
  53 H53           -2.0296    -2.6957     0.0118 H       
  54 H54            2.2701    -4.5674    -0.0577 H       
  55 H55            2.8226    -7.4199    -0.0816 H       
  56 H56            1.6497    -9.5768    -0.0754 H       
  57 H57           -2.1236    -7.5750    -0.0081 H       
  58 H58            3.1023    11.0007    11.0310 H       
  59 H59            2.1082    13.1348    11.8184 H       
  60 H60            3.3524    12.6989     7.1089 H       
  61 H61            1.5746    16.4839     8.5790 H       
  62 H62            0.1376    17.2041    13.6553 H       
  63 H63           -0.4833    20.4428    10.9395 H       
  64 H64            0.4442    19.1098     9.0981 H       
  65 H65            3.2728    10.6750     6.5507 H       
  66 H66            4.8991    11.2967     6.9207 H       
  67 H67            5.1073     9.1491     5.7642 H       
  68 H68            5.6213     8.9508     7.4568 H       
  69 H69            4.5661     6.7658     5.6494 H       
  70 H70            5.0801     6.5675     7.3420 H       
  71 H71            3.4806     4.8017     6.7792 H       
  72 H72            2.7235     5.9269     7.9320 H       
  73 H73            1.2688     4.1579     5.9550 H       
  74 H74            0.5117     5.2831     7.1078 H       
  75 H75           -1.0053     4.9316     5.2188 H       
  76 H76           -0.3825     6.5981     5.1627 H       
  77 H77           -1.4035     4.9992     2.8057 H       
  78 H78           -0.7807     6.6657     2.7496 H       
  79 H79           -0.5074     5.6345     0.5461 H       
  80 H80            1.0959     5.8636     1.2844 H       
  81 H81            0.3832     3.8129    -0.8230 H       
  82 H82            1.9866     4.0419    -0.0848 H       
  83 H83            1.8173     1.7300     0.8840 H       
  84 H84            1.8003     1.7396    -0.8958 H       
  85 H85            0.4909   -11.0701    -0.9566 H       
  86 H86            0.5176   -11.0802     0.8232 H       
  87 H87           -0.7577   -11.9604    -0.0528 H       
  88 H88           -0.3298    21.5435    12.7046 H       
  89 H89           -1.9564    20.9222    12.3352 H       
  90 H90           -1.5623    21.4586    13.9860 H       
@<TRIPOS>BOND
   1    1    2 1
   2    1   46 1
   3    2    3 ar
   4    2    4 ar
   5    3    7 ar
   6    3   51 1
   7    4    5 ar
   8    4   52 1
   9    5    6 ar
  10    6    7 ar
  11    6    8 1
  12    7   53 1
  13    8    9 1
  14    8   12 2
  15    9   10 1
  16    9   54 1
  17   10   11 ar
  18   10   13 ar
  19   11   12 1
  20   11   16 ar
  21   13   14 ar
  22   13   55 1
  23   14   15 ar
  24   14   56 1
  25   15   16 ar
  26   15   47 1
  27   16   57 1
  28   17   18 1
  29   17   33 1
  30   18   19 ar
  31   18   23 ar
  32   19   20 ar
  33   19   58 1
  34   20   21 ar
  35   20   59 1
  36   21   22 ar
  37   21   24 1
  38   22   23 ar
  39   23   60 1
  40   24   25 2
  41   24   28 1
  42   25   26 1
  43   26   27 ar
  44   26   29 ar
  45   27   28 1
  46   27   32 ar
  47   28   61 1
  48   29   30 ar
  49   29   62 1
  50   30   31 ar
  51   30   49 1
  52   31   32 ar
  53   31   63 1
  54   32   64 1
  55   33   34 1
  56   33   65 1
  57   33   66 1
  58   34   35 1
  59   34   67 1
  60   34   68 1
  61   35   36 1
  62   36   37 1
  63   36   69 1
  64   36   70 1
  65   37   38 1
  66   37   71 1
  67   37   72 1
  68   38   39 1
  69   39   40 1
  70   39   73 1
  71   39   74 1
  72   40   41 1
  73   40   75 1
  74   40   76 1
  75   41   42 1
  76   42   43 1
  77   42   77 1
  78   42   78 1
  79   43   44 1
  80   43   79 1
  81   43   80 1
  82   44   45 1
  83   45   46 1
  84   45   81 1
  85   45   82 1
  86   46   83 1
  87   46   84 1
  88   47   48 1
  89   48   85 1
  90   48   86 1
  91   48   87 1
  92   49   50 1
  93   50   88 1
  94   50   89 1
  95   50   90 1

#	End of record

