#	Name: ASD01815909
#	Creating user name:	WinNT
#	Creation time:	15. 06. 2019 19:34

#	Modifying user name:	WinNT
#	Modification time:	15. 06. 2019 19:34

#	Program:	/corina/corina34_cracker 3.40 0067  02.08.2006

@<TRIPOS>MOLECULE
ASD01815909
  51   56    0    0    0
SMALL
NO_CHARGES


@<TRIPOS>ATOM
   1 C1            -0.0755     1.3135     0.1756 C.ar    
   2 C2            -0.0315    -0.0710     0.1637 C.ar    
   3 C3             1.1769    -0.7363     0.0945 C.ar    
   4 C4             2.3673    -0.0166     0.0359 C.ar    
   5 C5             2.3197     1.3868     0.0482 C.ar    
   6 C6             1.0945     2.0466     0.1182 C.ar    
   7 N7             3.5823    -0.6780    -0.0331 N.pl3   
   8 C8             4.7607    -0.0376    -0.0916 C.2     
   9 C9             4.8384     1.3331    -0.0863 C.2     
  10 C10            3.5924     2.1298    -0.0147 C.2     
  11 C11            5.9163     2.3159    -0.1371 C.2     
  12 N12            5.3225     3.5282    -0.0974 N.am    
  13 N13            3.9344     3.3864    -0.0245 N.2     
  14 C14            6.0045     4.7585    -0.1246 C.2     
  15 O15            7.1136     2.0879    -0.2022 O.2     
  16 C16            3.5815    -2.1430    -0.0422 C.3     
  17 C17            3.7093    -2.6541     1.3696 C.ar    
  18 C18            2.5851    -2.7680     2.1667 C.ar    
  19 C19            2.6992    -3.2358     3.4612 C.ar    
  20 C20            3.9441    -3.5922     3.9619 C.ar    
  21 C21            5.0710    -3.4772     3.1591 C.ar    
  22 C22            4.9498    -3.0137     1.8636 C.ar    
  23 N23            4.0632    -4.0669     5.2756 N.pl3   
  24 C24            5.2097    -4.4464     5.8838 C.2     
  25 F25            1.0506     3.3969     0.1304 F       
  26 F26            1.2039    -2.0870     0.0841 F       
  27 C27            4.8986    -4.8384     7.1410 C.2     
  28 C28            3.5168    -4.6942     7.3077 C.2     
  29 N29            3.0163    -4.2263     6.1926 N.2     
  30 C30            7.3949     4.9318    -0.1970 C.2     
  31 N31            7.6473     6.2154    -0.2011 N.2     
  32 C32            5.4342     5.9905    -0.0915 C.2     
  33 N33            6.4299     6.9044    -0.1317 N.pl3   
  34 C34            6.2641     8.3599    -0.1121 C.3     
  35 H35           -1.0273     1.8215     0.2255 H       
  36 H36           -0.9510    -0.6357     0.2092 H       
  37 H37            5.6714    -0.6158    -0.1439 H       
  38 H38            2.6485    -2.5030    -0.4759 H       
  39 H39            4.4212    -2.5031    -0.6365 H       
  40 H40            1.6169    -2.4906     1.7767 H       
  41 H41            1.8209    -3.3238     4.0835 H       
  42 H42            6.0407    -3.7534     3.5459 H       
  43 H43            5.8260    -2.9240     1.2386 H       
  44 H44            6.1965    -4.4386     5.4448 H       
  45 H45            5.5940    -5.1990     7.8845 H       
  46 H46            2.9599    -4.9250     8.2038 H       
  47 H47            8.1300     4.1418    -0.2413 H       
  48 H48            4.3764     6.2022    -0.0396 H       
  49 H49            6.1684     8.7285    -1.1334 H       
  50 H50            5.3673     8.6158     0.4521 H       
  51 H51            7.1333     8.8182     0.3597 H       
@<TRIPOS>BOND
   1    1    2 ar
   2    1    6 ar
   3    1   35 1
   4    2    3 ar
   5    2   36 1
   6    3    4 ar
   7    3   26 1
   8    4    5 ar
   9    4    7 1
  10    5    6 ar
  11    5   10 1
  12    6   25 1
  13    7    8 1
  14    7   16 1
  15    8    9 2
  16    8   37 1
  17    9   10 1
  18    9   11 1
  19   10   13 2
  20   11   12 am
  21   11   15 2
  22   12   13 1
  23   12   14 1
  24   14   30 1
  25   14   32 2
  26   16   17 1
  27   16   38 1
  28   16   39 1
  29   17   18 ar
  30   17   22 ar
  31   18   19 ar
  32   18   40 1
  33   19   20 ar
  34   19   41 1
  35   20   21 ar
  36   20   23 1
  37   21   22 ar
  38   21   42 1
  39   22   43 1
  40   23   24 1
  41   23   29 1
  42   24   27 2
  43   24   44 1
  44   27   28 1
  45   27   45 1
  46   28   29 2
  47   28   46 1
  48   30   31 2
  49   30   47 1
  50   31   33 1
  51   32   33 1
  52   32   48 1
  53   33   34 1
  54   34   49 1
  55   34   50 1
  56   34   51 1

#	End of record

