#	Name: ASD01911270
#	Creating user name:	WinNT
#	Creation time:	15. 06. 2019 19:57

#	Modifying user name:	WinNT
#	Modification time:	15. 06. 2019 19:57

#	Program:	/corina/corina34_cracker 3.40 0067  02.08.2006

@<TRIPOS>MOLECULE
ASD01911270
  44   47    0    0    0
SMALL
NO_CHARGES


@<TRIPOS>ATOM
   1 C1            -1.0339     1.1373    -1.0469 C.3     
   2 C2            -0.2825     0.1547    -0.1432 C.3     
   3 N3             0.7199    -0.5565    -0.9482 N.am    
   4 C4             1.6808     0.2287    -1.7348 C.3     
   5 C5             0.9074     1.2105    -2.6207 C.3     
   6 C6            -0.0268     2.0518    -1.7480 C.3     
   7 C7             0.7574    -1.9037    -0.9646 C.2     
   8 O8             1.5846    -2.4806    -1.6438 O.2     
   9 C9            -0.2054    -2.6785    -0.1582 C.ar    
  10 C10            2.5000    -0.6945    -2.5995 C.2     
  11 N11            3.7673    -0.9860    -2.4435 N.2     
  12 C12            4.0681    -1.8451    -3.4434 C.2     
  13 N13            2.9765    -2.0230    -4.1409 N.2     
  14 O14            2.0682    -1.3744    -3.6663 O.3     
  15 C15            5.3900    -2.4689    -3.7012 C.ar    
  16 C16            5.5538    -3.3404    -4.7756 C.ar    
  17 C17            6.7849    -3.9186    -5.0121 C.ar    
  18 C18            7.8558    -3.6347    -4.1849 C.ar    
  19 C19            7.6996    -2.7691    -3.1142 C.ar    
  20 C20            6.4724    -2.1803    -2.8730 C.ar    
  21 F21            8.7492    -2.4959    -2.3087 F       
  22 C22           -0.7033    -3.8953    -0.6363 C.ar    
  23 C23           -1.6043    -4.6155     0.1249 C.ar    
  24 C24           -2.0132    -4.1339     1.3573 C.ar    
  25 C25           -1.5219    -2.9274     1.8352 C.ar    
  26 C26           -0.6193    -2.2027     1.0888 C.ar    
  27 F27           -2.8946    -4.8417     2.0972 F       
  28 F28           -0.3047    -4.3648    -1.8387 F       
  29 H29           -1.6029     0.5829    -1.7932 H       
  30 H30           -1.7136     1.7393    -0.4439 H       
  31 H31            0.2139     0.7018     0.6583 H       
  32 H32           -0.9854    -0.5619     0.2816 H       
  33 H33            2.3373     0.7819    -1.0631 H       
  34 H34            1.6094     1.8646    -3.1378 H       
  35 H35            0.3201     0.6554    -3.3522 H       
  36 H36           -0.5603     2.7680    -2.3728 H       
  37 H37            0.5587     2.5875    -1.0008 H       
  38 H38            4.7185    -3.5638    -5.4227 H       
  39 H39            6.9117    -4.5946    -5.8448 H       
  40 H40            8.8170    -4.0894    -4.3736 H       
  41 H41            6.3506    -1.5056    -2.0385 H       
  42 H42           -1.9904    -5.5550    -0.2421 H       
  43 H43           -1.8449    -2.5577     2.7972 H       
  44 H44           -0.2382    -1.2640     1.4631 H       
@<TRIPOS>BOND
   1    1    2 1
   2    1    6 1
   3    1   29 1
   4    1   30 1
   5    2    3 1
   6    2   31 1
   7    2   32 1
   8    3    4 1
   9    3    7 am
  10    4    5 1
  11    4   10 1
  12    4   33 1
  13    5    6 1
  14    5   34 1
  15    5   35 1
  16    6   36 1
  17    6   37 1
  18    7    8 2
  19    7    9 1
  20    9   22 ar
  21    9   26 ar
  22   10   11 2
  23   10   14 1
  24   11   12 1
  25   12   13 2
  26   12   15 1
  27   13   14 1
  28   15   16 ar
  29   15   20 ar
  30   16   17 ar
  31   16   38 1
  32   17   18 ar
  33   17   39 1
  34   18   19 ar
  35   18   40 1
  36   19   20 ar
  37   19   21 1
  38   20   41 1
  39   22   23 ar
  40   22   28 1
  41   23   24 ar
  42   23   42 1
  43   24   25 ar
  44   24   27 1
  45   25   26 ar
  46   25   43 1
  47   26   44 1

#	End of record

