#	Name: ASD05590008
#	Creating user name:	WinNT
#	Creation time:	15. 06. 2019 21:01

#	Modifying user name:	WinNT
#	Modification time:	15. 06. 2019 21:01

#	Program:	/corina/corina34_cracker 3.40 0067  02.08.2006

@<TRIPOS>MOLECULE
ASD05590008
  30   30    0    0    0
SMALL
NO_CHARGES


@<TRIPOS>ATOM
   1 C1            -3.2150     0.8914     0.2689 C.2     
   2 C2            -2.4537    -0.1106    -0.5223 C.2     
   3 O3            -4.1679     1.4496    -0.2204 O.2     
   4 C4            -1.2648    -0.8070     0.0881 C.3     
   5 O5            -2.7879    -0.3666    -1.6544 O.2     
   6 C6            -1.0500    -2.1530    -0.6068 C.3     
   7 C7            -0.0183     0.0626    -0.0883 C.3     
   8 O8            -1.5021    -1.0224     1.4807 O.3     
   9 C9            -2.3233    -2.9940    -0.4943 C.3     
  10 C10           -2.1669    -4.2697    -1.3242 C.3     
  11 O11           -2.5460    -3.3402     0.8741 O.3     
  12 C12           -3.4632    -5.0381    -1.3134 C.2     
  13 C13           -4.5153    -4.8491    -2.1325 C.2     
  14 N14           -3.7953    -6.0663    -0.4730 N.pl3   
  15 C15           -5.0416    -6.4667    -0.8047 C.2     
  16 N16           -5.4659    -5.7343    -1.7980 N.2     
  17 H17           -2.9189     1.1171     1.2827 H       
  18 H18           -0.8167    -1.9859    -1.6583 H       
  19 H19           -0.2233    -2.6800    -0.1305 H       
  20 H20           -0.2025     1.0512     0.3324 H       
  21 H21            0.8235    -0.4003     0.4267 H       
  22 H22            0.2120     0.1565    -1.1495 H       
  23 H23           -2.2789    -1.5671     1.6677 H       
  24 H24           -3.1718    -2.4200    -0.8666 H       
  25 H25           -1.9091    -4.0065    -2.3501 H       
  26 H26           -1.3756    -4.8861    -0.8975 H       
  27 H27           -1.8292    -3.8532     1.2718 H       
  28 H28           -4.5821    -4.1135    -2.9203 H       
  29 H29           -3.2391    -6.4381     0.2294 H       
  30 H30           -5.5944    -7.2632    -0.3289 H       
@<TRIPOS>BOND
   1    1    2 1
   2    1    3 2
   3    1   17 1
   4    2    4 1
   5    2    5 2
   6    4    6 1
   7    4    7 1
   8    4    8 1
   9    6    9 1
  10    6   18 1
  11    6   19 1
  12    7   20 1
  13    7   21 1
  14    7   22 1
  15    8   23 1
  16    9   10 1
  17    9   11 1
  18    9   24 1
  19   10   12 1
  20   10   25 1
  21   10   26 1
  22   11   27 1
  23   12   13 2
  24   12   14 1
  25   13   16 1
  26   13   28 1
  27   14   15 1
  28   14   29 1
  29   15   16 2
  30   15   30 1

#	End of record

