#	Name: ASD01810736
#	Creating user name:	WinNT
#	Creation time:	15. 06. 2019 19:25

#	Modifying user name:	WinNT
#	Modification time:	15. 06. 2019 19:25

#	Program:	/corina/corina34_cracker 3.40 0067  02.08.2006

@<TRIPOS>MOLECULE
ASD01810736
  50   54    0    0    0
SMALL
NO_CHARGES


@<TRIPOS>ATOM
   1 N1            -0.0178     1.4642     0.0101 N.3     
   2 C2             0.0021    -0.0041     0.0020 C.3     
   3 C3             0.6797    -0.4993    -1.2777 C.3     
   4 C4             2.1079     0.0494    -1.3384 C.3     
   5 C5             2.0615     1.5788    -1.2797 C.3     
   6 C6             1.3439     2.0138     0.0000 C.3     
   7 C7             2.8809    -0.4635    -0.1956 C.1     
   8 N8             3.4775    -0.8594     0.6864 N.1     
   9 C9            -0.7829     1.9741     1.1559 C.3     
  10 C10           -0.5795     3.4626     1.2733 C.2     
  11 C11            0.5053     3.9366     1.9467 C.2     
  12 C12            0.6954     5.3236     2.0565 C.2     
  13 C13           -0.2814     6.2290     1.4419 C.2     
  14 N14           -1.3669     5.6890     0.7694 N.pl3   
  15 C15           -2.2793     6.5159     0.1953 C.2     
  16 C16           -3.3495     6.0166    -0.4674 C.2     
  17 C17           -3.5280     4.6318    -0.5685 C.2     
  18 C18           -2.6162     3.7936     0.0047 C.2     
  19 C19           -1.5089     4.3324     0.6816 C.2     
  20 N20            1.3064     7.4213     2.4235 N.am    
  21 N21            0.1200     7.4509     1.6839 N.2     
  22 C22            1.6674     6.1427     2.6569 C.2     
  23 O23            2.6538     5.7670     3.2751 O.2     
  24 C24            2.0138     8.5500     2.8569 C.ar    
  25 C25            2.4160     9.5154     1.9396 C.ar    
  26 C26            3.1141    10.6279     2.3719 C.ar    
  27 C27            3.4118    10.7804     3.7139 C.ar    
  28 C28            3.0134     9.8219     4.6271 C.ar    
  29 C29            2.3101     8.7106     4.2034 C.ar    
  30 F30            2.1255     9.3661     0.6287 F       
  31 F31            2.7135    -0.3545    -2.5331 F       
  32 H32            0.5557    -0.3645     0.8690 H       
  33 H33           -1.0198    -0.3814     0.0413 H       
  34 H34            0.7083    -1.5890    -1.2760 H       
  35 H35            0.1187    -0.1507    -2.1448 H       
  36 H36            3.0774     1.9739    -1.2795 H       
  37 H37            1.5223     1.9601    -2.1469 H       
  38 H38            1.2966     3.1021     0.0379 H       
  39 H39            1.8912     1.6439     0.8670 H       
  40 H40           -1.8420     1.7626     1.0087 H       
  41 H41           -0.4385     1.4872     2.0683 H       
  42 H42            1.2123     3.2523     2.3922 H       
  43 H43           -2.1496     7.5856     0.2688 H       
  44 H44           -4.0662     6.6873    -0.9180 H       
  45 H45           -4.3807     4.2300    -1.0956 H       
  46 H46           -2.7422     2.7233    -0.0656 H       
  47 H47            3.4274    11.3782     1.6610 H       
  48 H48            3.9572    11.6502     4.0493 H       
  49 H49            3.2484     9.9442     5.6741 H       
  50 H50            1.9951     7.9653     4.9187 H       
@<TRIPOS>BOND
   1    1    2 1
   2    1    6 1
   3    1    9 1
   4    2    3 1
   5    2   32 1
   6    2   33 1
   7    3    4 1
   8    3   34 1
   9    3   35 1
  10    4    5 1
  11    4    7 1
  12    4   31 1
  13    5    6 1
  14    5   36 1
  15    5   37 1
  16    6   38 1
  17    6   39 1
  18    7    8 3
  19    9   10 1
  20    9   40 1
  21    9   41 1
  22   10   11 1
  23   10   19 2
  24   11   12 2
  25   11   42 1
  26   12   13 1
  27   12   22 1
  28   13   14 1
  29   13   21 2
  30   14   15 1
  31   14   19 1
  32   15   16 2
  33   15   43 1
  34   16   17 1
  35   16   44 1
  36   17   18 2
  37   17   45 1
  38   18   19 1
  39   18   46 1
  40   20   21 1
  41   20   22 am
  42   20   24 1
  43   22   23 2
  44   24   25 ar
  45   24   29 ar
  46   25   26 ar
  47   25   30 1
  48   26   27 ar
  49   26   47 1
  50   27   28 ar
  51   27   48 1
  52   28   29 ar
  53   28   49 1
  54   29   50 1

#	End of record

