#	Name: ASD02508370
#	Creating user name:	WinNT
#	Creation time:	15. 06. 2019 20:24

#	Modifying user name:	WinNT
#	Modification time:	15. 06. 2019 20:24

#	Program:	/corina/corina34_cracker 3.40 0067  02.08.2006

@<TRIPOS>MOLECULE
ASD02508370
  36   37    0    0    0
SMALL
NO_CHARGES


@<TRIPOS>ATOM
   1 C1             0.4796     1.3596    -0.4133 C.2     
   2 C2             0.2951     0.0045    -0.0714 C.2     
   3 C3             1.5114    -0.5764    -0.0470 C.2     
   4 N4             2.4434     0.3719    -0.3620 N.pl3   
   5 C5             1.8019     1.5576    -0.5853 C.2     
   6 C6             3.8236     0.1638    -0.4419 C.ar    
   7 C7             4.6894     1.0194     0.2307 C.ar    
   8 N8             4.2937    -0.8483    -1.1521 N.ar    
   9 C9             5.5883    -1.0808    -1.2536 C.ar    
  10 C10            6.5060    -0.2689    -0.6166 C.ar    
  11 C11            6.0543     0.8013     0.1432 C.ar    
  12 S12            1.8422    -2.2662     0.3269 S.o2    
  13 O13            1.6677    -2.9869    -0.8852 O.2     
  14 O14            3.0510    -2.2826     1.0738 O.2     
  15 N15            0.6507    -2.7832     1.3541 N.am    
  16 C16           -0.7304    -2.8929     0.8778 C.3     
  17 C17           -1.5203    -3.8124     1.8114 C.3     
  18 C18           -2.9627    -3.9269     1.3139 C.3     
  19 Cl19           4.0680     2.3429     1.1666 Cl      
  20 C20            7.9823    -0.5453    -0.7405 C.3     
  21 F21            8.1798    -1.6710    -1.5474 F       
  22 F22            8.6167     0.5597    -1.3182 F       
  23 F23            8.5207    -0.7811     0.5290 F       
  24 H24           -0.2969     2.1024    -0.5220 H       
  25 H25           -0.6483    -0.4799     0.1335 H       
  26 H26            2.2729     2.4917    -0.8537 H       
  27 H27            5.9350    -1.9172    -1.8423 H       
  28 H28            6.7513     1.4512     0.6513 H       
  29 H29            0.8672    -3.0135     2.2712 H       
  30 H30           -1.1903    -1.9048     0.8664 H       
  31 H31           -0.7352    -3.3076    -0.1302 H       
  32 H32           -1.0604    -4.8005     1.8228 H       
  33 H33           -1.5155    -3.3977     2.8194 H       
  34 H34           -3.4226    -2.9388     1.3025 H       
  35 H35           -2.9675    -4.3416     0.3059 H       
  36 H36           -3.5254    -4.5819     1.9790 H       
@<TRIPOS>BOND
   1    1    2 1
   2    1    5 2
   3    1   24 1
   4    2    3 2
   5    2   25 1
   6    3    4 1
   7    3   12 1
   8    4    5 1
   9    4    6 1
  10    5   26 1
  11    6    7 ar
  12    6    8 ar
  13    7   19 1
  14    7   11 ar
  15    8    9 ar
  16    9   10 ar
  17    9   27 1
  18   10   11 ar
  19   10   20 1
  20   11   28 1
  21   12   13 2
  22   12   14 2
  23   12   15 am
  24   15   16 1
  25   15   29 1
  26   16   17 1
  27   16   30 1
  28   16   31 1
  29   17   18 1
  30   17   32 1
  31   17   33 1
  32   18   34 1
  33   18   35 1
  34   18   36 1
  35   20   21 1
  36   20   22 1
  37   20   23 1

#	End of record

