#	Name: ASD01410961
#	Creating user name:	WinNT
#	Creation time:	15. 06. 2019 19:19

#	Modifying user name:	WinNT
#	Modification time:	15. 06. 2019 19:19

#	Program:	/corina/corina34_cracker 3.40 0067  02.08.2006

@<TRIPOS>MOLECULE
ASD01410961
  56   58    0    0    0
SMALL
NO_CHARGES


@<TRIPOS>ATOM
   1 C1             0.3682     1.8451    -0.3359 C.ar    
   2 P2             0.2248     0.0476    -0.5344 P.3     
   3 N3             0.1628    -0.6622     0.9428 N.pl3   
   4 O4            -1.0102    -0.2688    -1.2860 O.2     
   5 C5             0.1500    -2.0503     1.0480 C.2     
   6 C6             0.2070    -2.7071     2.2556 C.2     
   7 S7             0.1684    -4.4438     1.9847 S.3     
   8 C8             0.0765    -4.2105     0.2449 C.2     
   9 C9             0.0734    -2.8802    -0.0463 C.2     
  10 C10            0.2847    -2.0821     3.5191 C.2     
  11 O11            0.3056    -0.8673     3.5971 O.2     
  12 O12            0.3358    -2.8315     4.6411 O.3     
  13 C13            0.0070    -5.2974    -0.7541 C.ar    
  14 C14           -0.0936    -6.6262    -0.3381 C.ar    
  15 C15           -0.1580    -7.6362    -1.2751 C.ar    
  16 C16           -0.1226    -7.3344    -2.6262 C.ar    
  17 C17           -0.0225    -6.0182    -3.0450 C.ar    
  18 C18            0.0360    -4.9991    -2.1175 C.ar    
  19 O19            1.5020    -0.5066    -1.3429 O.3     
  20 C20            1.8314    -0.0784    -2.6659 C.3     
  21 Cl21          -0.2036    -8.6112    -3.7996 Cl      
  22 C22            3.0975    -0.7984    -3.1345 C.3     
  23 C23           -0.7622     2.6391    -0.3924 C.ar    
  24 C24           -0.6530     4.0086    -0.2413 C.ar    
  25 C25            0.5866     4.5844    -0.0331 C.ar    
  26 C26            1.7165     3.7905     0.0243 C.ar    
  27 C27            1.6067     2.4202    -0.1226 C.ar    
  28 C28            2.8381     1.5540    -0.0547 C.3     
  29 C29            0.7058     6.0777     0.1307 C.3     
  30 C30            3.4501    -0.3399    -4.5510 C.3     
  31 C31            4.7162    -1.0599    -5.0197 C.3     
  32 H32            0.1350    -0.1149     1.7431 H       
  33 H33            0.0187    -2.5059    -1.0579 H       
  34 H34            0.3874    -2.3152     5.4570 H       
  35 H35           -0.1205    -6.8628     0.7153 H       
  36 H36           -0.2358    -8.6646    -0.9544 H       
  37 H37            0.0051    -5.7890    -4.1000 H       
  38 H38            0.1089    -3.9726    -2.4454 H       
  39 H39            1.0081    -0.3152    -3.3399 H       
  40 H40            2.0039     0.9978    -2.6671 H       
  41 H41            3.9207    -0.5616    -2.4605 H       
  42 H42            2.9250    -1.8746    -3.1333 H       
  43 H43           -1.7305     2.1893    -0.5550 H       
  44 H44           -1.5359     4.6289    -0.2861 H       
  45 H45            2.6849     4.2404     0.1865 H       
  46 H46            3.2041     1.3632    -1.0636 H       
  47 H47            3.6100     2.0643     0.5214 H       
  48 H48            2.5908     0.6081     0.4271 H       
  49 H49            0.6112     6.3363     1.1854 H       
  50 H50            1.6769     6.4074    -0.2385 H       
  51 H51           -0.0845     6.5697    -0.4363 H       
  52 H52            2.6269    -0.5767    -5.2250 H       
  53 H53            3.6226     0.7363    -4.5522 H       
  54 H54            5.5394    -0.8231    -4.3457 H       
  55 H55            4.5437    -2.1361    -5.0185 H       
  56 H56            4.9674    -0.7333    -6.0288 H       
@<TRIPOS>BOND
   1    1    2 1
   2    1   23 ar
   3    1   27 ar
   4    2    3 1
   5    2    4 2
   6    2   19 1
   7    3    5 1
   8    3   32 1
   9    5    6 2
  10    5    9 1
  11    6    7 1
  12    6   10 1
  13    7    8 1
  14    8    9 2
  15    8   13 1
  16    9   33 1
  17   10   11 2
  18   10   12 1
  19   12   34 1
  20   13   14 ar
  21   13   18 ar
  22   14   15 ar
  23   14   35 1
  24   15   16 ar
  25   15   36 1
  26   16   17 ar
  27   16   21 1
  28   17   18 ar
  29   17   37 1
  30   18   38 1
  31   19   20 1
  32   20   22 1
  33   20   39 1
  34   20   40 1
  35   22   30 1
  36   22   41 1
  37   22   42 1
  38   23   24 ar
  39   23   43 1
  40   24   25 ar
  41   24   44 1
  42   25   26 ar
  43   25   29 1
  44   26   27 ar
  45   26   45 1
  46   27   28 1
  47   28   46 1
  48   28   47 1
  49   28   48 1
  50   29   49 1
  51   29   50 1
  52   29   51 1
  53   30   31 1
  54   30   52 1
  55   30   53 1
  56   31   54 1
  57   31   55 1
  58   31   56 1

#	End of record

