#	Name: ASD08070168
#	Creating user name:	WinNT
#	Creation time:	15. 06. 2019 21:14

#	Modifying user name:	WinNT
#	Modification time:	15. 06. 2019 21:14

#	Program:	/corina/corina34_cracker 3.40 0067  02.08.2006

@<TRIPOS>MOLECULE
ASD08070168
  35   37    0    0    0
SMALL
NO_CHARGES


@<TRIPOS>ATOM
   1 C1            -0.0166     1.3694     0.0096 C.2     
   2 C2             0.0021    -0.0041     0.0020 C.2     
   3 N3             0.9843    -2.2425    -0.0196 N.am    
   4 C4             1.1669    -0.9072    -0.0143 C.2     
   5 C5             2.6690    -2.2507     2.2177 C.ar    
   6 C6             2.6244    -3.3541     1.3750 C.ar    
   7 C7             2.1420    -3.1401    -0.0358 C.3     
   8 C8             3.1078    -2.3797     3.5190 C.ar    
   9 C9             3.5088    -3.6168     3.9887 C.ar    
  10 C10            3.4642    -4.7139     3.1539 C.ar    
  11 C11            3.0184    -4.5868     1.8443 C.ar    
  12 C12            2.9806    -5.8285     0.9926 C.3     
  13 C13            2.8933    -5.4622    -0.4876 C.3     
  14 C14            1.7403    -4.4687    -0.6732 C.3     
  15 O15            2.2927    -0.4474    -0.0229 O.2     
  16 C16           -1.4273    -0.3512     0.0147 C.2     
  17 N17           -2.0572     0.7861     0.0272 N.2     
  18 O18           -1.3024     1.7275     0.0296 O.3     
  19 C19            1.1773     2.2890     0.0031 C.3     
  20 H20            0.0863    -2.6092    -0.0128 H       
  21 H21            2.3617    -1.2829     1.8496 H       
  22 H22            2.9401    -2.6867    -0.6237 H       
  23 H23            3.1384    -1.5175     4.1686 H       
  24 H24            3.8560    -3.7236     5.0058 H       
  25 H25            3.7787    -5.6795     3.5212 H       
  26 H26            3.8855    -6.4109     1.1659 H       
  27 H27            2.1113    -6.4261     1.2668 H       
  28 H28            3.8286    -5.0032    -0.8079 H       
  29 H29            2.7033    -6.3592    -1.0771 H       
  30 H30            0.8432    -4.8525    -0.1875 H       
  31 H31            1.5490    -4.3228    -1.7363 H       
  32 H32           -1.8612    -1.3402     0.0135 H       
  33 H33            1.4553     2.5163    -1.0260 H       
  34 H34            0.9269     3.2130     0.5243 H       
  35 H35            2.0131     1.8030     0.5064 H       
@<TRIPOS>BOND
   1    1    2 2
   2    1   19 1
   3    1   18 1
   4    2   16 1
   5    2    4 1
   6    3    4 am
   7    3    7 1
   8    3   20 1
   9    4   15 2
  10    5    6 ar
  11    5    8 ar
  12    5   21 1
  13    6    7 1
  14    6   11 ar
  15    7   14 1
  16    7   22 1
  17    8    9 ar
  18    8   23 1
  19    9   10 ar
  20    9   24 1
  21   10   11 ar
  22   10   25 1
  23   11   12 1
  24   12   13 1
  25   12   26 1
  26   12   27 1
  27   13   14 1
  28   13   28 1
  29   13   29 1
  30   14   30 1
  31   14   31 1
  32   16   17 2
  33   16   32 1
  34   17   18 1
  35   19   33 1
  36   19   34 1
  37   19   35 1

#	End of record

