#	Name: ASD02198458
#	Creating user name:	WinNT
#	Creation time:	15. 06. 2019 20:19

#	Modifying user name:	WinNT
#	Modification time:	15. 06. 2019 20:19

#	Program:	/corina/corina34_cracker 3.40 0067  02.08.2006

@<TRIPOS>MOLECULE
ASD02198458
  36   37    0    0    0
SMALL
NO_CHARGES


@<TRIPOS>ATOM
   1 N1            -0.0157     1.3042     0.0092 N.2     
   2 S2             1.7946     3.3431     0.0037 S.o2    
   3 N3             1.3089     1.7599    -0.0010 N.am    
   4 C4             1.9633     3.8319     1.6881 C.ar    
   5 O5             3.1019     3.3634    -0.5529 O.2     
   6 O6             0.7125     4.0963    -0.5263 O.2     
   7 C7             3.1750     3.6719     2.3349 C.ar    
   8 C8             0.0021    -0.0041     0.0020 C.2     
   9 C9             1.3365    -0.4229    -0.0130 C.2     
  10 C10            2.1193     0.6809    -0.0145 C.2     
  11 C11            3.3095     4.0561     3.6590 C.ar    
  12 C12            2.2228     4.6029     4.3355 C.ar    
  13 C13            1.0118     4.7604     3.6817 C.ar    
  14 C14            0.8858     4.3797     2.3583 C.ar    
  15 O15            4.5003     3.8989     4.2966 O.3     
  16 C16            5.5713     3.3307     3.5401 C.3     
  17 C17            3.6261     0.7015    -0.0292 C.3     
  18 C18           -1.2065    -0.9042     0.0092 C.3     
  19 O19            2.3497     4.9812     5.6356 O.3     
  20 C20            1.1928     5.5345     6.2661 C.3     
  21 H21            4.0165     3.2470     1.8078 H       
  22 H22            1.6812    -1.4463    -0.0212 H       
  23 H23            0.1670     5.1841     4.2045 H       
  24 H24           -0.0589     4.5031     1.8497 H       
  25 H25            5.7821     3.9628     2.6775 H       
  26 H26            6.4611     3.2612     4.1658 H       
  27 H27            5.2875     2.3348     3.2001 H       
  28 H28            3.9793     0.7118    -1.0604 H       
  29 H29            3.9823     1.5937     0.4857 H       
  30 H30            4.0066    -0.1860     0.4763 H       
  31 H31           -1.5078    -1.1161    -1.0167 H       
  32 H32           -0.9614    -1.8376     0.5160 H       
  33 H33           -2.0245    -0.4101     0.5334 H       
  34 H34            1.4302     5.7933     7.2980 H       
  35 H35            0.8801     6.4303     5.7296 H       
  36 H36            0.3858     4.8021     6.2516 H       
@<TRIPOS>BOND
   1    1    8 2
   2    1    3 1
   3    2    3 am
   4    2    5 2
   5    2    6 2
   6    2    4 1
   7    3   10 1
   8    4    7 ar
   9    4   14 ar
  10    7   11 ar
  11    7   21 1
  12    8    9 1
  13    8   18 1
  14    9   10 2
  15    9   22 1
  16   10   17 1
  17   11   12 ar
  18   11   15 1
  19   12   13 ar
  20   12   19 1
  21   13   14 ar
  22   13   23 1
  23   14   24 1
  24   15   16 1
  25   16   25 1
  26   16   26 1
  27   16   27 1
  28   17   28 1
  29   17   29 1
  30   17   30 1
  31   18   31 1
  32   18   32 1
  33   18   33 1
  34   19   20 1
  35   20   34 1
  36   20   35 1
  37   20   36 1

#	End of record

