#	Name: ASD07930806
#	Creating user name:	WinNT
#	Creation time:	15. 06. 2019 21:13

#	Modifying user name:	WinNT
#	Modification time:	15. 06. 2019 21:13

#	Program:	/corina/corina34_cracker 3.40 0067  02.08.2006

@<TRIPOS>MOLECULE
ASD07930806
  63   65    0    0    0
SMALL
NO_CHARGES


@<TRIPOS>ATOM
   1 C1            -0.0162     1.3436     0.0094 C.2     
   2 N2             0.0021    -0.0041     0.0020 N.am    
   3 C3            -1.1558    -0.6938     0.0094 C.2     
   4 O4             1.0272     1.9650     0.0028 O.2     
   5 O5            -1.1906     2.0005     0.0186 O.3     
   6 O6            -1.1394    -1.9081     0.0027 O.2     
   7 O7            -2.3302    -0.0368     0.0241 O.3     
   8 S8             2.7036     0.2556    -0.0224 S.3     
   9 C9             1.2124    -0.6811    -0.0132 C.2     
  10 N10            1.1996    -1.9551    -0.0195 N.2     
  11 C11            2.2835    -2.9077    -0.0450 C.3     
  12 C12            3.6808    -2.2831    -0.1633 C.3     
  13 C13            3.8270    -1.0039     0.6367 C.3     
  14 O14            3.1154    -3.1335    -2.2921 O.3     
  15 C15            2.1834    -3.7104    -1.3689 C.3     
  16 C16            3.7888    -2.0195    -1.6788 C.3     
  17 C17            5.2563    -1.9806    -2.1100 C.3     
  18 C18            2.1989    -3.8324     1.1419 C.ar    
  19 C19            3.1377    -4.8372     1.3052 C.ar    
  20 C20            3.0592    -5.6863     2.3958 C.ar    
  21 C21            2.0441    -5.5307     3.3207 C.ar    
  22 C22            1.1068    -4.5269     3.1569 C.ar    
  23 C23            1.1879    -3.6744     2.0703 C.ar    
  24 F24            4.1295    -4.9891     0.4005 F       
  25 Br25          -0.2821    -4.3152     4.4226 Br      
  26 C26           -1.1343     3.4514     0.0262 C.3     
  27 C27           -0.3998     3.9398    -1.2239 C.3     
  28 C28           -2.5560     4.0169     0.0360 C.3     
  29 C29           -0.3879     3.9263     1.2745 C.3     
  30 C30           -3.5371    -0.8441     0.0313 C.3     
  31 C31           -3.5481    -1.7339     1.2759 C.3     
  32 C32           -4.7629     0.0713     0.0479 C.3     
  33 C33           -3.5719    -1.7205    -1.2224 C.3     
  34 H34            4.4366    -3.0037     0.1491 H       
  35 H35            4.8544    -0.6468     0.5660 H       
  36 H36            3.5817    -1.1986     1.6808 H       
  37 H37            2.4388    -4.7546    -1.1889 H       
  38 H38            1.1724    -3.6386    -1.7699 H       
  39 H39            3.2909    -1.0852    -1.9383 H       
  40 H40            5.7276    -2.9364    -1.8814 H       
  41 H41            5.3151    -1.7937    -3.1822 H       
  42 H42            5.7715    -1.1839    -1.5735 H       
  43 H43            3.7909    -6.4704     2.5237 H       
  44 H44            1.9825    -6.1932     4.1714 H       
  45 H45            0.4585    -2.8878     1.9456 H       
  46 H46           -0.9315     3.6015    -2.1132 H       
  47 H47           -0.3575     5.0290    -1.2182 H       
  48 H48            0.6130     3.5370    -1.2309 H       
  49 H49           -3.0793     3.6689     0.9266 H       
  50 H50           -2.5137     5.1061     0.0417 H       
  51 H51           -3.0877     3.6786    -0.8533 H       
  52 H52            0.6249     3.5234     1.2675 H       
  53 H53           -0.3457     5.0154     1.2802 H       
  54 H54           -0.9112     3.5783     2.1651 H       
  55 H55           -3.5233    -1.1096     2.1691 H       
  56 H56           -4.4541    -2.3399     1.2813 H       
  57 H57           -2.6748    -2.3860     1.2641 H       
  58 H58           -4.7551     0.7051    -0.8388 H       
  59 H59           -5.6689    -0.5348     0.0533 H       
  60 H60           -4.7381     0.6956     0.9411 H       
  61 H61           -2.6986    -2.3726    -1.2342 H       
  62 H62           -4.4779    -2.3265    -1.2170 H       
  63 H63           -3.5641    -1.0866    -2.1091 H       
@<TRIPOS>BOND
   1    1    2 am
   2    1    4 2
   3    1    5 1
   4    2    3 am
   5    2    9 1
   6    3    6 2
   7    3    7 1
   8    5   26 1
   9    7   30 1
  10    8    9 1
  11    8   13 1
  12    9   10 2
  13   10   11 1
  14   11   15 1
  15   11   18 1
  16   11   12 1
  17   12   13 1
  18   12   16 1
  19   12   34 1
  20   13   35 1
  21   13   36 1
  22   14   15 1
  23   14   16 1
  24   15   37 1
  25   15   38 1
  26   16   17 1
  27   16   39 1
  28   17   40 1
  29   17   41 1
  30   17   42 1
  31   18   19 ar
  32   18   23 ar
  33   19   20 ar
  34   19   24 1
  35   20   21 ar
  36   20   43 1
  37   21   22 ar
  38   21   44 1
  39   22   23 ar
  40   22   25 1
  41   23   45 1
  42   26   27 1
  43   26   29 1
  44   26   28 1
  45   27   46 1
  46   27   47 1
  47   27   48 1
  48   28   49 1
  49   28   50 1
  50   28   51 1
  51   29   52 1
  52   29   53 1
  53   29   54 1
  54   30   31 1
  55   30   33 1
  56   30   32 1
  57   31   55 1
  58   31   56 1
  59   31   57 1
  60   32   58 1
  61   32   59 1
  62   32   60 1
  63   33   61 1
  64   33   62 1
  65   33   63 1

#	End of record

