#	Name: ASD01940070
#	Creating user name:	WinNT
#	Creation time:	15. 06. 2019 20:11

#	Modifying user name:	WinNT
#	Modification time:	15. 06. 2019 20:11

#	Program:	/corina/corina34_cracker 3.40 0067  02.08.2006

@<TRIPOS>MOLECULE
ASD01940070
  42   44    0    0    0
SMALL
NO_CHARGES


@<TRIPOS>ATOM
   1 C1            -0.5155     1.6995    -0.0568 C.3     
   2 C2            -0.5898     0.1629    -0.0265 C.3     
   3 C3             0.8378    -0.3417     0.2686 C.3     
   4 C4             1.5225     0.8509     0.9813 C.3     
   5 C5             0.9548     2.0751     0.2209 C.3     
   6 S6            -1.0162     2.3138    -1.6885 S.o2    
   7 O7            -0.1156     1.8604    -2.6899 O.2     
   8 O8            -2.4218     2.1914    -1.8576 O.2     
   9 N9            -0.7546     3.9472    -1.6133 N.am    
  10 C10            0.5517     4.4436    -1.5093 C.ar    
  11 C11            0.8093     5.5760    -0.7376 C.ar    
  12 C12            2.1054     6.0630    -0.6378 C.ar    
  13 C13            3.1383     5.4230    -1.3048 C.ar    
  14 C14            2.8799     4.2994    -2.0705 C.ar    
  15 C15            1.5913     3.8063    -2.1690 C.ar    
  16 N16           -0.2376     6.2210    -0.0648 N.pl3   
  17 C17           -0.0635     7.5232     0.4143 C.ar    
  18 C18           -0.0677     8.5978    -0.4697 C.ar    
  19 C19            0.1043     9.8835     0.0081 C.ar    
  20 C20            0.2807    10.1012     1.3633 C.ar    
  21 C21            0.2856     9.0345     2.2435 C.ar    
  22 C22            0.1081     7.7473     1.7735 C.ar    
  23 I23            0.5416    12.0512     2.0832 I       
  24 F24           -0.2390     8.3850    -1.7927 F       
  25 F25            4.3996     5.8971    -1.2076 F       
  26 F26            2.3597     7.1601     0.1084 F       
  27 H27           -1.1604     2.1198     0.7149 H       
  28 H28           -1.2708    -0.1625     0.7599 H       
  29 H29           -0.9268    -0.2138    -0.9922 H       
  30 H30            0.8070    -1.2116     0.9247 H       
  31 H31            1.3573    -0.5809    -0.6594 H       
  32 H32            1.2409     0.8853     2.0337 H       
  33 H33            2.6056     0.7963     0.8716 H       
  34 H34            1.4932     2.2263    -0.7148 H       
  35 H35            1.0094     2.9690     0.8422 H       
  36 H36           -1.5057     4.5605    -1.6411 H       
  37 H37            3.6872     3.8040    -2.5893 H       
  38 H38            1.3943     2.9265    -2.7636 H       
  39 H39           -1.0828     5.7641     0.0684 H       
  40 H40            0.1013    10.7186    -0.6767 H       
  41 H41            0.4242     9.2082     3.3003 H       
  42 H42            0.1077     6.9156     2.4626 H       
@<TRIPOS>BOND
   1    1    2 1
   2    1    5 1
   3    1    6 1
   4    1   27 1
   5    2    3 1
   6    2   28 1
   7    2   29 1
   8    3    4 1
   9    3   30 1
  10    3   31 1
  11    4    5 1
  12    4   32 1
  13    4   33 1
  14    5   34 1
  15    5   35 1
  16    6    7 2
  17    6    8 2
  18    6    9 am
  19    9   10 1
  20    9   36 1
  21   10   11 ar
  22   10   15 ar
  23   11   12 ar
  24   11   16 1
  25   12   13 ar
  26   12   26 1
  27   13   14 ar
  28   13   25 1
  29   14   15 ar
  30   14   37 1
  31   15   38 1
  32   16   17 1
  33   16   39 1
  34   17   18 ar
  35   17   22 ar
  36   18   19 ar
  37   18   24 1
  38   19   20 ar
  39   19   40 1
  40   20   21 ar
  41   20   23 1
  42   21   22 ar
  43   21   41 1
  44   22   42 1

#	End of record

