#	Name: ASD01580003
#	Creating user name:	WinNT
#	Creation time:	15. 06. 2019 19:22

#	Modifying user name:	WinNT
#	Modification time:	15. 06. 2019 19:22

#	Program:	/corina/corina34_cracker 3.40 0067  02.08.2006

@<TRIPOS>MOLECULE
ASD01580003
  19   19    0    0    0
SMALL
NO_CHARGES


@<TRIPOS>ATOM
   1 C1            -0.0184     1.5028     0.0103 C.2     
   2 C2             0.0021    -0.0041     0.0020 C.3     
   3 C3            -0.6130    -0.5153    -1.3023 C.3     
   4 O4             1.0197     2.1211     0.0037 O.2     
   5 O5            -1.1898     2.1580     0.0194 O.3     
   6 C6            -0.2646    -4.1478    -1.5125 C.2     
   7 N7            -1.4037    -4.0442    -0.8843 N.2     
   8 C8            -1.6991    -2.7468    -0.7149 C.2     
   9 C9            -0.7052    -2.0188    -1.2588 C.2     
  10 N10            0.2051    -2.9071    -1.7649 N.pl3   
  11 O11            1.3516    -0.4627     0.1041 O.3     
  12 H12           -0.5743    -0.3799     0.8474 H       
  13 H13           -1.6108    -0.0935    -1.4233 H       
  14 H14            0.0132    -0.2138    -2.1420 H       
  15 H15           -1.1523     3.1243     0.0245 H       
  16 H16            0.2238    -5.0726    -1.7818 H       
  17 H17           -2.5797    -2.3547    -0.2280 H       
  18 H18            1.0329    -2.6865    -2.2199 H       
  19 H19            1.9236    -0.1656    -0.6168 H       
@<TRIPOS>BOND
   1    1    2 1
   2    1    4 2
   3    1    5 1
   4    2    3 1
   5    2   11 1
   6    2   12 1
   7    3    9 1
   8    3   13 1
   9    3   14 1
  10    5   15 1
  11    6    7 2
  12    6   10 1
  13    6   16 1
  14    7    8 1
  15    8    9 2
  16    8   17 1
  17    9   10 1
  18   10   18 1
  19   11   19 1

#	End of record

