#	Name: ASD03091332
#	Creating user name:	WinNT
#	Creation time:	15. 06. 2019 20:30

#	Modifying user name:	WinNT
#	Modification time:	15. 06. 2019 20:30

#	Program:	/corina/corina34_cracker 3.40 0067  02.08.2006

@<TRIPOS>MOLECULE
ASD03091332
  65   69    0    0    0
SMALL
NO_CHARGES


@<TRIPOS>ATOM
   1 N1            -0.1334     1.2328    -0.1067 N.am    
   2 C2            -0.2439    -0.1172     0.0916 C.2     
   3 N3            -1.3876    -0.7515     0.0636 N.2     
   4 C4            -2.5498    -0.1070    -0.1654 C.ar    
   5 C5            -2.5319     1.2900    -0.3808 C.ar    
   6 C6            -1.2355     1.9829    -0.3403 C.2     
   7 C7             0.9860    -0.8941     0.3488 C.ar    
   8 O8            -1.1558     3.1846    -0.5178 O.2     
   9 C9            -3.7694    -0.7906    -0.1946 C.ar    
  10 C10           -4.9276    -0.1072    -0.4297 C.ar    
  11 C11           -4.9151     1.2713    -0.6433 C.ar    
  12 C12           -3.7220     1.9735    -0.6195 C.ar    
  13 N13           -6.1145     1.9479    -0.8823 N.3     
  14 C14           -6.3875     2.0430    -2.3236 C.3     
  15 C15            1.8394    -0.5301     1.3924 C.ar    
  16 C16            2.9859    -1.2586     1.6280 C.ar    
  17 C17            3.2922    -2.3507     0.8309 C.ar    
  18 C18            2.4489    -2.7162    -0.2069 C.ar    
  19 C19            1.2966    -1.9985    -0.4473 C.ar    
  20 C20            1.1848     1.8703    -0.0599 C.3     
  21 C21            1.7538     1.9696    -1.4767 C.3     
  22 C22            3.1625     2.5639    -1.4200 C.3     
  23 O23            3.6940     2.6568    -2.7432 O.3     
  24 C24            1.8138     0.5742    -2.1013 C.3     
  25 C25            0.8542     2.8701    -2.3256 C.3     
  26 C26           -6.0969     3.2815    -0.2707 C.3     
  27 C27           -7.4491     3.9709    -0.3068 C.3     
  28 C28           -7.8910     4.2251    -1.7516 C.3     
  29 C29           -6.7639     4.5091    -2.7113 C.3     
  30 C30           -5.8127     3.3363    -2.8608 C.3     
  31 F31            4.4170    -3.0612     1.0660 F       
  32 C32           -7.8697     1.8514    -2.6011 C.3     
  33 C33           -8.7318     3.0335    -2.2181 C.3     
  34 H34           -3.7950    -1.8579    -0.0318 H       
  35 H35           -5.8661    -0.6411    -0.4509 H       
  36 H36           -3.7141     3.0407    -0.7851 H       
  37 H37           -5.8513     1.2306    -2.8140 H       
  38 H38            1.6018     0.3207     2.0138 H       
  39 H39            3.6468    -0.9778     2.4347 H       
  40 H40            2.6926    -3.5674    -0.8252 H       
  41 H41            0.6402    -2.2841    -1.2561 H       
  42 H42            1.0902     2.8697     0.3645 H       
  43 H43            1.8548     1.2743     0.5597 H       
  44 H44            3.1198     3.5581    -0.9750 H       
  45 H45            3.8034     1.9224    -0.8152 H       
  46 H46            4.5868     3.0260    -2.7835 H       
  47 H47            0.8046     0.1719    -2.1894 H       
  48 H48            2.2671     0.6380    -3.0904 H       
  49 H49            2.4123    -0.0815    -1.4689 H       
  50 H50            0.8115     3.8642    -1.8807 H       
  51 H51            1.2596     2.9409    -3.3350 H       
  52 H52           -0.1494     2.4467    -2.3661 H       
  53 H53           -5.7793     3.1868     0.7677 H       
  54 H54           -5.3734     3.9008    -0.8009 H       
  55 H55           -8.1870     3.3397     0.1883 H       
  56 H56           -7.3808     4.9227     0.2202 H       
  57 H57           -8.5502     5.0932    -1.7479 H       
  58 H58           -7.1850     4.7474    -3.6881 H       
  59 H59           -6.2043     5.3724    -2.3515 H       
  60 H60           -4.8907     3.5608    -2.3246 H       
  61 H61           -5.5794     3.2052    -3.9174 H       
  62 H62           -8.0004     1.6580    -3.6658 H       
  63 H63           -8.2152     0.9775    -2.0489 H       
  64 H64           -9.4039     2.7365    -1.4131 H       
  65 H65           -9.3254     3.3343    -3.0813 H       
@<TRIPOS>BOND
   1    1    2 1
   2    1   20 1
   3    1    6 am
   4    2    3 2
   5    2    7 1
   6    3    4 1
   7    4    5 ar
   8    4    9 ar
   9    5    6 1
  10    5   12 ar
  11    6    8 2
  12    7   15 ar
  13    7   19 ar
  14    9   10 ar
  15    9   34 1
  16   10   11 ar
  17   10   35 1
  18   11   12 ar
  19   11   13 1
  20   12   36 1
  21   13   26 1
  22   13   14 1
  23   14   32 1
  24   14   30 1
  25   14   37 1
  26   15   16 ar
  27   15   38 1
  28   16   17 ar
  29   16   39 1
  30   17   18 ar
  31   17   31 1
  32   18   19 ar
  33   18   40 1
  34   19   41 1
  35   20   21 1
  36   20   42 1
  37   20   43 1
  38   21   22 1
  39   21   24 1
  40   21   25 1
  41   22   23 1
  42   22   44 1
  43   22   45 1
  44   23   46 1
  45   24   47 1
  46   24   48 1
  47   24   49 1
  48   25   50 1
  49   25   51 1
  50   25   52 1
  51   26   27 1
  52   26   53 1
  53   26   54 1
  54   27   28 1
  55   27   55 1
  56   27   56 1
  57   28   29 1
  58   28   33 1
  59   28   57 1
  60   29   30 1
  61   29   58 1
  62   29   59 1
  63   30   60 1
  64   30   61 1
  65   32   33 1
  66   32   62 1
  67   32   63 1
  68   33   64 1
  69   33   65 1

#	End of record

