#	Name: ASD05310009
#	Creating user name:	WinNT
#	Creation time:	15. 06. 2019 20:58

#	Modifying user name:	WinNT
#	Modification time:	15. 06. 2019 20:58

#	Program:	/corina/corina34_cracker 3.40 0067  02.08.2006

@<TRIPOS>MOLECULE
ASD05310009
  36   37    0    0    0
SMALL
NO_CHARGES


@<TRIPOS>ATOM
   1 C1            -0.0167     1.3784     0.0096 C.ar    
   2 C2             0.0021    -0.0041     0.0020 C.ar    
   3 C3             1.2080    -0.6793    -0.0132 C.ar    
   4 C4             2.3961     0.0272    -0.0208 C.ar    
   5 C5             2.3780     1.4104    -0.0132 C.ar    
   6 C6             1.1704     2.0859     0.0021 C.ar    
   7 C7             3.7108    -0.7092    -0.0368 C.3     
   8 N8             4.2668    -0.7454     1.3181 N.am    
   9 C9             5.4460    -1.3568     1.5465 C.2     
  10 C10            6.0179    -1.3941     2.9402 C.3     
  11 O11            6.0468    -1.8770     0.6303 O.2     
  12 C12            5.3371    -2.5067     3.7679 C.3     
  13 C13            6.3031    -3.6949     3.5537 C.3     
  14 C14            7.6289    -3.0417     3.2307 C.2     
  15 N15            7.4402    -1.7536     2.8961 N.am    
  16 C16            8.5160    -0.8275     2.5339 C.3     
  17 O17            8.7054    -3.5990     3.2689 O.2     
  18 C18            1.1498     3.5927     0.0104 C.3     
  19 Cl19           3.8696     2.2984    -0.0221 Cl      
  20 F20           -0.1754     4.0409     0.0255 F       
  21 F21            1.8137     4.0619     1.1490 F       
  22 F22            1.7919     4.0742    -1.1355 F       
  23 H23           -0.9593     1.9055     0.0170 H       
  24 H24           -0.9259    -0.5565     0.0083 H       
  25 H25            1.2220    -1.7592    -0.0187 H       
  26 H26            3.5526    -1.7275    -0.3920 H       
  27 H27            4.4063    -0.1966    -0.7014 H       
  28 H28            3.7863    -0.3294     2.0508 H       
  29 H29            5.8867    -0.4278     3.4272 H       
  30 H30            5.2841    -2.2321     4.8214 H       
  31 H31            4.3461    -2.7340     3.3752 H       
  32 H32            6.3828    -4.2905     4.4631 H       
  33 H33            5.9691    -4.3126     2.7200 H       
  34 H34            9.4734    -1.3465     2.5807 H       
  35 H35            8.3521    -0.4582     1.5216 H       
  36 H36            8.5231     0.0113     3.2299 H       
@<TRIPOS>BOND
   1    1    2 ar
   2    1    6 ar
   3    1   23 1
   4    2    3 ar
   5    2   24 1
   6    3    4 ar
   7    3   25 1
   8    4    5 ar
   9    4    7 1
  10    5    6 ar
  11    5   19 1
  12    6   18 1
  13    7    8 1
  14    7   26 1
  15    7   27 1
  16    8    9 am
  17    8   28 1
  18    9   10 1
  19    9   11 2
  20   10   12 1
  21   10   15 1
  22   10   29 1
  23   12   13 1
  24   12   30 1
  25   12   31 1
  26   13   14 1
  27   13   32 1
  28   13   33 1
  29   14   15 am
  30   14   17 2
  31   15   16 1
  32   16   34 1
  33   16   35 1
  34   16   36 1
  35   18   20 1
  36   18   21 1
  37   18   22 1

#	End of record

