#	Name: ASD01890018
#	Creating user name:	WinNT
#	Creation time:	15. 06. 2019 19:50

#	Modifying user name:	WinNT
#	Modification time:	15. 06. 2019 19:50

#	Program:	/corina/corina34_cracker 3.40 0067  02.08.2006

@<TRIPOS>MOLECULE
ASD01890018
  30   32    0    0    0
SMALL
NO_CHARGES


@<TRIPOS>ATOM
   1 C1            -0.0184     1.5084     0.0103 C.2     
   2 C2             0.0021    -0.0041     0.0020 C.3     
   3 C3            -0.8921    -0.5103     1.1413 C.3     
   4 C4            -2.2769     0.1358     1.0043 C.3     
   5 C5            -2.1019     1.6363     0.9266 C.2     
   6 O6             1.0093     2.1435     0.0039 O.2     
   7 O7            -2.7304     2.3731     1.6490 O.2     
   8 O8            -1.2209     2.1304     0.0195 O.3     
   9 C9            -0.6038    -2.7806     2.0938 C.ar    
  10 C10           -1.0227    -2.0090     1.0535 C.ar    
  11 C11           -1.5709    -2.5842    -0.0911 C.ar    
  12 C12           -1.7031    -3.9345    -0.2025 C.ar    
  13 C13           -1.2814    -4.7634     0.8506 C.ar    
  14 C14           -1.4022    -6.1615     0.7724 C.ar    
  15 C15           -0.9833    -6.9328     1.8124 C.ar    
  16 C16           -0.4353    -6.3574     2.9575 C.ar    
  17 C17           -0.3031    -5.0075     3.0689 C.ar    
  18 C18           -0.7237    -4.1783     2.0150 C.ar    
  19 H19           -0.3778    -0.3701    -0.9518 H       
  20 H20            1.0222    -0.3572     0.1528 H       
  21 H21           -0.4534    -0.2348     2.1003 H       
  22 H22           -2.7604    -0.2239     0.0960 H       
  23 H23           -2.8864    -0.1173     1.8717 H       
  24 H24           -0.1771    -2.3211     2.9730 H       
  25 H25           -1.8961    -1.9492    -0.9019 H       
  26 H26           -2.1301    -4.3662    -1.0956 H       
  27 H27           -1.8256    -6.6213    -0.1084 H       
  28 H28           -1.0773    -8.0069     1.7497 H       
  29 H29           -0.1110    -6.9923     3.7687 H       
  30 H30            0.1228    -4.5757     3.9626 H       
@<TRIPOS>BOND
   1    1    2 1
   2    1    6 2
   3    1    8 1
   4    2    3 1
   5    2   19 1
   6    2   20 1
   7    3    4 1
   8    3   10 1
   9    3   21 1
  10    4    5 1
  11    4   22 1
  12    4   23 1
  13    5    7 2
  14    5    8 1
  15    9   10 ar
  16    9   18 ar
  17    9   24 1
  18   10   11 ar
  19   11   12 ar
  20   11   25 1
  21   12   13 ar
  22   12   26 1
  23   13   14 ar
  24   13   18 ar
  25   14   15 ar
  26   14   27 1
  27   15   16 ar
  28   15   28 1
  29   16   17 ar
  30   16   29 1
  31   17   18 ar
  32   17   30 1

#	End of record

