#	Name: ASD03090399
#	Creating user name:	WinNT
#	Creation time:	15. 06. 2019 20:28

#	Modifying user name:	WinNT
#	Modification time:	15. 06. 2019 20:28

#	Program:	/corina/corina34_cracker 3.40 0067  02.08.2006

@<TRIPOS>MOLECULE
ASD03090399
  43   45    0    0    0
SMALL
NO_CHARGES


@<TRIPOS>ATOM
   1 C1            -0.0179     1.4718     0.0101 C.2     
   2 C2             0.0021    -0.0041     0.0020 C.ar    
   3 C3             1.2205    -0.6880    -0.0133 C.ar    
   4 C4             1.2349    -2.0650    -0.0209 C.ar    
   5 C5             0.0396    -2.7744    -0.0138 C.ar    
   6 C6            -1.1744    -2.0978     0.0010 C.ar    
   7 C7            -1.1973    -0.7210     0.0154 C.ar    
   8 O8             1.0266     2.0940     0.0035 O.2     
   9 N9            -1.1942     2.1298     0.0193 N.am    
  10 O10            0.0580    -4.1314    -0.0217 O.3     
  11 C11           -1.2062    -4.7974    -0.0137 C.3     
  12 C12           -0.9852    -6.3113    -0.0245 C.3     
  13 C13           -2.3389    -7.0244    -0.0159 C.3     
  14 C14           -1.2140     3.5946     0.0273 C.3     
  15 N15           -6.5411     5.3986     0.3357 N.pl3   
  16 C16           -6.6944     5.4451     1.6946 C.2     
  17 C17           -5.5590     5.0573     2.2967 C.2     
  18 C18           -4.6003     4.7362     1.2367 C.ar    
  19 C19           -3.2778     4.2883     1.2273 C.ar    
  20 C20           -2.6415     4.0776     0.0367 C.ar    
  21 C21           -3.2993     4.3052    -1.1644 C.ar    
  22 C22           -4.6038     4.7476    -1.1782 C.ar    
  23 C23           -5.2711     4.9688     0.0224 C.ar    
  24 H24            2.1496    -0.1375    -0.0195 H       
  25 H25            2.1762    -2.5943    -0.0327 H       
  26 H26           -2.1010    -2.6526     0.0061 H       
  27 H27           -2.1409    -0.1960     0.0317 H       
  28 H28           -2.0275     1.6334     0.0205 H       
  29 H29           -1.7588    -4.5172     0.8831 H       
  30 H30           -1.7754    -4.5070    -0.8968 H       
  31 H31           -0.4326    -6.5915    -0.9213 H       
  32 H32           -0.4160    -6.6017     0.8586 H       
  33 H33           -2.9081    -6.7340    -0.8990 H       
  34 H34           -2.1814    -8.1029    -0.0236 H       
  35 H35           -2.8915    -6.7442     0.8809 H       
  36 H36           -0.7010     3.9600     0.9169 H       
  37 H37           -0.7094     3.9697    -0.8630 H       
  38 H38           -7.2264     5.6300    -0.3107 H       
  39 H39           -7.5952     5.7492     2.2068 H       
  40 H40           -5.3854     4.9941     3.3608 H       
  41 H41           -2.7594     4.1099     2.1578 H       
  42 H42           -2.7830     4.1341    -2.0975 H       
  43 H43           -5.1068     4.9222    -2.1178 H       
@<TRIPOS>BOND
   1    1    2 1
   2    1    8 2
   3    1    9 am
   4    2    3 ar
   5    2    7 ar
   6    3    4 ar
   7    3   24 1
   8    4    5 ar
   9    4   25 1
  10    5    6 ar
  11    5   10 1
  12    6    7 ar
  13    6   26 1
  14    7   27 1
  15    9   14 1
  16    9   28 1
  17   10   11 1
  18   11   12 1
  19   11   29 1
  20   11   30 1
  21   12   13 1
  22   12   31 1
  23   12   32 1
  24   13   33 1
  25   13   34 1
  26   13   35 1
  27   14   20 1
  28   14   36 1
  29   14   37 1
  30   15   16 1
  31   15   23 1
  32   15   38 1
  33   16   17 2
  34   16   39 1
  35   17   18 1
  36   17   40 1
  37   18   19 ar
  38   18   23 ar
  39   19   20 ar
  40   19   41 1
  41   20   21 ar
  42   21   22 ar
  43   21   42 1
  44   22   23 ar
  45   22   43 1

#	End of record

