#	Name: ASD01140512
#	Creating user name:	WinNT
#	Creation time:	15. 06. 2019 19:01

#	Modifying user name:	WinNT
#	Modification time:	15. 06. 2019 19:01

#	Program:	/corina/corina34_cracker 3.40 0067  02.08.2006

@<TRIPOS>MOLECULE
ASD01140512
  55   56    0    0    0
SMALL
NO_CHARGES


@<TRIPOS>ATOM
   1 C1            -0.0285     1.3530     0.0666 C.ar    
   2 C2            -0.0008    -0.0272     0.0700 C.ar    
   3 C3             1.2065    -0.7007     0.0360 C.ar    
   4 C4             2.4002     0.0062    -0.0018 C.ar    
   5 C5             2.3836     1.3973    -0.0056 C.ar    
   6 C6             1.1630     2.0750     0.0288 C.ar    
   7 C7             1.1348     3.5580     0.0250 C.ar    
   8 C8             1.9241     4.2739     0.9239 C.ar    
   9 C9             1.8957     5.6525     0.9180 C.ar    
  10 C10            1.0817     6.3277     0.0184 C.ar    
  11 C11            0.2947     5.6178    -0.8778 C.ar    
  12 C12            0.3234     4.2387    -0.8809 C.ar    
  13 O13            3.5503     2.0938    -0.0421 O.3     
  14 O14            1.0552     7.6863     0.0156 O.3     
  15 C15           -1.2919    -0.8033     0.1114 C.3     
  16 C16           -1.7724    -1.0704    -1.3164 C.3     
  17 C17           -3.0832    -1.8584    -1.2744 C.3     
  18 C18            2.7486     6.4271     1.8893 C.3     
  19 C19            1.9207     6.7791     3.1269 C.3     
  20 C20            2.7867     7.5655     4.1131 C.3     
  21 N21            3.6213    -0.6807    -0.0356 N.am    
  22 C22            3.6775    -1.9310    -0.5358 C.2     
  23 C23            5.0043    -2.6355    -0.6559 C.3     
  24 O24            2.6603    -2.4891    -0.8892 O.2     
  25 C25            0.1955     8.3164    -0.9362 C.3     
  26 C26            0.2992     9.8359    -0.7896 C.3     
  27 H27           -0.9745     1.8737     0.0887 H       
  28 H28            1.2204    -1.7806     0.0393 H       
  29 H29            2.5570     3.7492     1.6244 H       
  30 H30           -0.3378     6.1457    -1.5761 H       
  31 H31           -0.2858     3.6869    -1.5815 H       
  32 H32            3.8619     2.2926    -0.9356 H       
  33 H33           -1.1295    -1.7517     0.6235 H       
  34 H34           -2.0459    -0.2260     0.6465 H       
  35 H35           -1.9349    -0.1220    -1.8285 H       
  36 H36           -1.0185    -1.6478    -1.8515 H       
  37 H37           -2.9208    -2.8068    -0.7623 H       
  38 H38           -3.8372    -1.2811    -0.7393 H       
  39 H39           -3.4256    -2.0487    -2.2916 H       
  40 H40            3.6045     5.8205     2.1852 H       
  41 H41            3.0995     7.3433     1.4143 H       
  42 H42            1.0648     7.3857     2.8310 H       
  43 H43            1.5699     5.8629     3.6019 H       
  44 H44            2.1969     7.8162     4.9948 H       
  45 H45            3.6426     6.9589     4.4090 H       
  46 H46            3.1376     8.4817     3.6381 H       
  47 H47            4.4260    -0.2563     0.3009 H       
  48 H48            5.7970    -1.9820    -0.2917 H       
  49 H49            4.9854    -3.5494    -0.0621 H       
  50 H50            5.1900    -2.8848    -1.7006 H       
  51 H51            0.4949     8.0273    -1.9436 H       
  52 H52           -0.8336     8.0038    -0.7592 H       
  53 H53           -0.0002    10.1250     0.2178 H       
  54 H54            1.3283    10.1485    -0.9667 H       
  55 H55           -0.3566    10.3165    -1.5156 H       
@<TRIPOS>BOND
   1    1    2 ar
   2    1    6 ar
   3    1   27 1
   4    2    3 ar
   5    2   15 1
   6    3    4 ar
   7    3   28 1
   8    4    5 ar
   9    4   21 1
  10    5    6 ar
  11    5   13 1
  12    6    7 1
  13    7    8 ar
  14    7   12 ar
  15    8    9 ar
  16    8   29 1
  17    9   10 ar
  18    9   18 1
  19   10   11 ar
  20   10   14 1
  21   11   12 ar
  22   11   30 1
  23   12   31 1
  24   13   32 1
  25   14   25 1
  26   15   16 1
  27   15   33 1
  28   15   34 1
  29   16   17 1
  30   16   35 1
  31   16   36 1
  32   17   37 1
  33   17   38 1
  34   17   39 1
  35   18   19 1
  36   18   40 1
  37   18   41 1
  38   19   20 1
  39   19   42 1
  40   19   43 1
  41   20   44 1
  42   20   45 1
  43   20   46 1
  44   21   22 am
  45   21   47 1
  46   22   23 1
  47   22   24 2
  48   23   48 1
  49   23   49 1
  50   23   50 1
  51   25   26 1
  52   25   51 1
  53   25   52 1
  54   26   53 1
  55   26   54 1
  56   26   55 1

#	End of record

