#	Name: ASD01910776
#	Creating user name:	WinNT
#	Creation time:	15. 06. 2019 19:56

#	Modifying user name:	WinNT
#	Modification time:	15. 06. 2019 19:56

#	Program:	/corina/corina34_cracker 3.40 0067  02.08.2006

@<TRIPOS>MOLECULE
ASD01910776
  51   54    0    0    0
SMALL
NO_CHARGES


@<TRIPOS>ATOM
   1 C1             0.7326     3.1759    -1.9025 C.ar    
   2 C2             0.4084     1.8316    -2.0256 C.ar    
   3 C3             1.3821     0.8893    -1.7464 C.ar    
   4 C4             2.6457     1.3182    -1.3541 C.ar    
   5 N5             2.9160     2.6103    -1.2480 N.ar    
   6 C6             2.0073     3.5308    -1.5082 C.ar    
   7 N7             3.6336     0.3823    -1.0706 N.3     
   8 C8             4.8861     1.0415    -0.6775 C.3     
   9 C9             5.8881    -0.0155    -0.2009 C.3     
  10 N10            6.0254    -1.0361    -1.2511 N.am    
  11 C11            4.8015    -1.6449    -1.7940 C.3     
  12 C12            3.8424    -0.5238    -2.2078 C.3     
  13 C13            7.2405    -1.4040    -1.7035 C.2     
  14 C14            7.3649    -2.5232    -2.6618 C.ar    
  15 O15            8.2341    -0.8157    -1.3238 O.2     
  16 C16            6.4089    -3.5414    -2.6763 C.ar    
  17 C17            6.5231    -4.5883    -3.5701 C.ar    
  18 C18            7.5812    -4.6368    -4.4549 C.ar    
  19 C19            8.5459    -3.6243    -4.4517 C.ar    
  20 C20            8.4327    -2.5613    -3.5557 C.ar    
  21 C21            9.6439    -3.6759    -5.3694 C.1     
  22 C22           10.5442    -3.7182    -6.1218 C.1     
  23 C23           11.6422    -3.7698    -7.0395 C.ar    
  24 N24           12.5556    -2.8037    -7.0309 N.ar    
  25 C25           13.5798    -2.8155    -7.8590 C.ar    
  26 C26           13.7429    -3.8400    -8.7734 C.ar    
  27 C27           12.8126    -4.8700    -8.8175 C.ar    
  28 C28           11.7492    -4.8381    -7.9340 C.ar    
  29 C29            7.2452     0.6422     0.0572 C.3     
  30 H30           -0.0035     3.9365    -2.1174 H       
  31 H31           -0.5818     1.5282    -2.3320 H       
  32 H32            1.1639    -0.1650    -1.8316 H       
  33 H33            2.2637     4.5754    -1.4108 H       
  34 H34            5.3000     1.5756    -1.5328 H       
  35 H35            4.6884     1.7458     0.1306 H       
  36 H36            5.5227    -0.4796     0.7152 H       
  37 H37            5.0500    -2.2537    -2.6634 H       
  38 H38            4.3318    -2.2656    -1.0311 H       
  39 H39            2.8877    -0.9547    -2.5096 H       
  40 H40            4.2708     0.0321    -3.0418 H       
  41 H41            5.5784    -3.5103    -1.9866 H       
  42 H42            5.7809    -5.3729    -3.5763 H       
  43 H43            7.6645    -5.4585    -5.1508 H       
  44 H44            9.1745    -1.7764    -3.5485 H       
  45 H45           14.3022    -2.0135    -7.8237 H       
  46 H46           14.5864    -3.8389    -9.4478 H       
  47 H47           12.9194    -5.6803    -9.5235 H       
  48 H48           11.0076    -5.6232    -7.9408 H       
  49 H49            7.1210     1.4691     0.7564 H       
  50 H50            7.9301    -0.0923     0.4809 H       
  51 H51            7.6512     1.0182    -0.8819 H       
@<TRIPOS>BOND
   1    1    2 ar
   2    1    6 ar
   3    1   30 1
   4    2    3 ar
   5    2   31 1
   6    3    4 ar
   7    3   32 1
   8    4    5 ar
   9    4    7 1
  10    5    6 ar
  11    6   33 1
  12    7    8 1
  13    7   12 1
  14    8    9 1
  15    8   34 1
  16    8   35 1
  17    9   10 1
  18    9   29 1
  19    9   36 1
  20   10   11 1
  21   10   13 am
  22   11   12 1
  23   11   37 1
  24   11   38 1
  25   12   39 1
  26   12   40 1
  27   13   14 1
  28   13   15 2
  29   14   16 ar
  30   14   20 ar
  31   16   17 ar
  32   16   41 1
  33   17   18 ar
  34   17   42 1
  35   18   19 ar
  36   18   43 1
  37   19   20 ar
  38   19   21 1
  39   20   44 1
  40   21   22 3
  41   22   23 1
  42   23   24 ar
  43   23   28 ar
  44   24   25 ar
  45   25   26 ar
  46   25   45 1
  47   26   27 ar
  48   26   46 1
  49   27   28 ar
  50   27   47 1
  51   28   48 1
  52   29   49 1
  53   29   50 1
  54   29   51 1

#	End of record

