#	Name: ASD04590813
#	Creating user name:	WinNT
#	Creation time:	15. 06. 2019 20:51

#	Modifying user name:	WinNT
#	Modification time:	15. 06. 2019 20:51

#	Program:	/corina/corina34_cracker 3.40 0067  02.08.2006

@<TRIPOS>MOLECULE
ASD04590813
  71   76    0    0    0
SMALL
NO_CHARGES


@<TRIPOS>ATOM
   1 N1            -2.3786    -2.7062     0.0206 N.ar    
   2 C2            -1.2121    -2.0743     0.0041 C.ar    
   3 N3            -0.0578    -2.7207    -0.0182 N.ar    
   4 C4            -0.0263    -4.0500    -0.0245 C.ar    
   5 C5            -1.2491    -4.7509    -0.0068 C.ar    
   6 C6            -2.4374    -4.0278     0.0159 C.ar    
   7 N7             0.9975    -4.9643    -0.0450 N.pl3   
   8 C8             0.4945    -6.2539    -0.0415 C.ar    
   9 C9            -0.9097    -6.1796    -0.0179 C.ar    
  10 C10            1.0910    -7.5080    -0.0558 C.ar    
  11 N11            0.3547    -8.6005    -0.0478 N.ar    
  12 C12           -0.9660    -8.5652    -0.0257 C.ar    
  13 C13           -1.6441    -7.3649    -0.0098 C.ar    
  14 N14           -1.2023    -0.6889     0.0098 N.pl3   
  15 C15           -2.3984     0.0155    -0.0799 C.ar    
  16 N16           -3.5313    -0.6431    -0.2720 N.ar    
  17 C17           -4.6889    -0.0204    -0.3633 C.ar    
  18 C18           -4.7593     1.3679    -0.2593 C.ar    
  19 C19           -3.5789     2.0957    -0.0558 C.ar    
  20 C20           -2.3890     1.4026     0.0391 C.ar    
  21 C21           -6.0595     2.0623    -0.3626 C.2     
  22 C22           -6.7867     1.9948    -1.6727 C.3     
  23 C23           -8.2666     2.3360    -1.4800 C.3     
  24 N24           -8.3490     3.5339    -0.6267 N.am    
  25 C25           -7.8130     3.4286     0.7380 C.3     
  26 C26           -6.5030     2.6920     0.6989 C.2     
  27 C27            2.4221    -4.6232    -0.0678 C.3     
  28 C28            2.7451    -3.7926    -1.3222 C.3     
  29 C29            3.2818    -2.4344    -0.8252 C.3     
  30 C30            3.8147    -2.7343     0.5979 C.3     
  31 C31            2.7737    -3.7408     1.1477 C.3     
  32 C32           -8.8938     4.6806    -1.0792 C.2     
  33 O33           -9.3293     4.7408    -2.2119 O.2     
  34 O34           -8.9553     5.7595    -0.2761 O.3     
  35 C35           -9.5551     6.9602    -0.8299 C.3     
  36 C36          -11.0007     6.6673    -1.2365 C.3     
  37 C37           -9.5362     8.0714     0.2216 C.3     
  38 C38           -8.7604     7.4071    -2.0586 C.3     
  39 H39           -3.3903    -4.5359     0.0295 H       
  40 H40            2.1678    -7.5884    -0.0740 H       
  41 H41           -1.5227    -9.4907    -0.0200 H       
  42 H42           -2.7237    -7.3431     0.0085 H       
  43 H43           -0.3613    -0.2101     0.0765 H       
  44 H44           -5.5922    -0.5913    -0.5205 H       
  45 H45           -3.6004     3.1721     0.0289 H       
  46 H46           -1.4602     1.9310     0.1962 H       
  47 H47           -6.3409     2.7045    -2.3695 H       
  48 H48           -6.6991     0.9884    -2.0822 H       
  49 H49           -8.7268     2.5397    -2.4468 H       
  50 H50           -8.7769     1.5030    -0.9964 H       
  51 H51           -7.6605     4.4271     1.1475 H       
  52 H52           -8.5166     2.8804     1.3644 H       
  53 H53           -5.8918     2.6871     1.5893 H       
  54 H54            3.0236    -5.5322    -0.0567 H       
  55 H55            3.5041    -4.2980    -1.9194 H       
  56 H56            1.8420    -3.6433    -1.9139 H       
  57 H57            4.0888    -2.0844    -1.4688 H       
  58 H58            2.4786    -1.6986    -0.7845 H       
  59 H59            4.8045    -3.1886     0.5520 H       
  60 H60            3.8324    -1.8277     1.2028 H       
  61 H61            1.8885    -3.2160     1.5069 H       
  62 H62            3.2099    -4.3442     1.9438 H       
  63 H63          -11.5669     6.3489    -0.3612 H       
  64 H64          -11.4510     7.5687    -1.6523 H       
  65 H65          -11.0142     5.8757    -1.9857 H       
  66 H66           -8.5063     8.2801     0.5112 H       
  67 H67           -9.9865     8.9728    -0.1942 H       
  68 H68          -10.1024     7.7530     1.0969 H       
  69 H69           -8.7738     6.6155    -2.8077 H       
  70 H70           -9.2106     8.3085    -2.4744 H       
  71 H71           -7.7305     7.6158    -1.7689 H       
@<TRIPOS>BOND
   1    1    2 ar
   2    1    6 ar
   3    2    3 ar
   4    2   14 1
   5    3    4 ar
   6    4    5 ar
   7    4    7 1
   8    5    6 ar
   9    5    9 1
  10    6   39 1
  11    7    8 1
  12    7   27 1
  13    8    9 ar
  14    8   10 ar
  15    9   13 ar
  16   10   11 ar
  17   10   40 1
  18   11   12 ar
  19   12   13 ar
  20   12   41 1
  21   13   42 1
  22   14   15 1
  23   14   43 1
  24   15   16 ar
  25   15   20 ar
  26   16   17 ar
  27   17   18 ar
  28   17   44 1
  29   18   19 ar
  30   18   21 1
  31   19   20 ar
  32   19   45 1
  33   20   46 1
  34   21   22 1
  35   21   26 2
  36   22   23 1
  37   22   47 1
  38   22   48 1
  39   23   24 1
  40   23   49 1
  41   23   50 1
  42   24   25 1
  43   24   32 am
  44   25   26 1
  45   25   51 1
  46   25   52 1
  47   26   53 1
  48   27   28 1
  49   27   31 1
  50   27   54 1
  51   28   29 1
  52   28   55 1
  53   28   56 1
  54   29   30 1
  55   29   57 1
  56   29   58 1
  57   30   31 1
  58   30   59 1
  59   30   60 1
  60   31   61 1
  61   31   62 1
  62   32   33 2
  63   32   34 1
  64   34   35 1
  65   35   36 1
  66   35   37 1
  67   35   38 1
  68   36   63 1
  69   36   64 1
  70   36   65 1
  71   37   66 1
  72   37   67 1
  73   37   68 1
  74   38   69 1
  75   38   70 1
  76   38   71 1

#	End of record

