#	Name: ASD02198824
#	Creating user name:	WinNT
#	Creation time:	15. 06. 2019 20:20

#	Modifying user name:	WinNT
#	Modification time:	15. 06. 2019 20:20

#	Program:	/corina/corina34_cracker 3.40 0067  02.08.2006

@<TRIPOS>MOLECULE
ASD02198824
  48   52    0    0    0
SMALL
NO_CHARGES


@<TRIPOS>ATOM
   1 C1            -0.0433     1.5016    -0.1143 C.2     
   2 C2            -0.0730     0.1618     0.0972 C.2     
   3 N3             1.0716    -0.5400     0.2591 N.pl3   
   4 N4             2.2360    -0.0052     0.2256 N.2     
   5 C5             2.4076     1.2842     0.0280 C.2     
   6 C6             1.2217     2.1356    -0.1596 C.2     
   7 C7             0.9801    -1.9189     0.4746 C.ar    
   8 C8             1.5799    -2.4892     1.5906 C.ar    
   9 C9             1.4895    -3.8497     1.8028 C.ar    
  10 C10            0.7991    -4.6490     0.9010 C.ar    
  11 C11            0.1992    -4.0792    -0.2149 C.ar    
  12 C12            0.2843    -2.7183    -0.4247 C.ar    
  13 C13            3.7646     1.8665    -0.0041 C.2     
  14 N14            4.3070     2.6063    -1.0171 N.pl3   
  15 N15            5.6087     2.9580    -0.6387 N.2     
  16 C16            5.8519     2.4587     0.5469 C.2     
  17 C17            4.7198     1.7711     0.9841 C.2     
  18 C18            3.6747     2.9503    -2.2186 C.ar    
  19 C19            3.8086     4.2334    -2.7327 C.ar    
  20 C20            3.1838     4.5695    -3.9177 C.ar    
  21 C21            2.4256     3.6301    -4.5921 C.ar    
  22 C22            2.2900     2.3517    -4.0824 C.ar    
  23 C23            2.9173     2.0075    -2.9011 C.ar    
  24 O24            1.3247     3.3387    -0.3469 O.2     
  25 N25            0.7079    -6.0310     1.1166 N.pl3   
  26 N26            1.2614    -6.7357     2.1934 N.2     
  27 C27            0.9647    -8.0023     2.0492 C.2     
  28 C28            0.2136    -8.1457     0.8775 C.2     
  29 C29            0.0650    -6.9192     0.3252 C.2     
  30 C30            2.3296    -1.6221     2.5690 C.3     
  31 F31            2.8402    -2.4171     3.6006 F       
  32 F32            3.3833    -0.9794     1.9103 F       
  33 F33            1.4611    -0.6647     3.1042 F       
  34 H34           -0.9547     2.0654    -0.2481 H       
  35 H35           -1.0228    -0.3507     0.1370 H       
  36 H36            1.9560    -4.2931     2.6701 H       
  37 H37           -0.3376    -4.7010    -0.9160 H       
  38 H38           -0.1820    -2.2754    -1.2923 H       
  39 H39            6.7751     2.5652     1.0972 H       
  40 H40            4.6134     1.2520     1.9252 H       
  41 H41            4.4003     4.9677    -2.2064 H       
  42 H42            3.2872     5.5673    -4.3179 H       
  43 H43            1.9380     3.8954    -5.5185 H       
  44 H44            1.6966     1.6204    -4.6111 H       
  45 H45            2.8110     1.0090    -2.5036 H       
  46 H46            1.2510    -8.7997     2.7191 H       
  47 H47           -0.1814    -9.0712     0.4853 H       
  48 H48           -0.4663    -6.6915    -0.5871 H       
@<TRIPOS>BOND
   1    1    2 2
   2    1    6 1
   3    1   34 1
   4    2    3 1
   5    2   35 1
   6    3    4 1
   7    3    7 1
   8    4    5 2
   9    5    6 1
  10    5   13 1
  11    6   24 2
  12    7    8 ar
  13    7   12 ar
  14    8    9 ar
  15    8   30 1
  16    9   10 ar
  17    9   36 1
  18   10   11 ar
  19   10   25 1
  20   11   12 ar
  21   11   37 1
  22   12   38 1
  23   13   14 1
  24   13   17 2
  25   14   15 1
  26   14   18 1
  27   15   16 2
  28   16   17 1
  29   16   39 1
  30   17   40 1
  31   18   19 ar
  32   18   23 ar
  33   19   20 ar
  34   19   41 1
  35   20   21 ar
  36   20   42 1
  37   21   22 ar
  38   21   43 1
  39   22   23 ar
  40   22   44 1
  41   23   45 1
  42   25   26 1
  43   25   29 1
  44   26   27 2
  45   27   28 1
  46   27   46 1
  47   28   29 2
  48   28   47 1
  49   29   48 1
  50   30   31 1
  51   30   32 1
  52   30   33 1

#	End of record

