#	Name: ASD01910958
#	Creating user name:	WinNT
#	Creation time:	15. 06. 2019 19:56

#	Modifying user name:	WinNT
#	Modification time:	15. 06. 2019 19:56

#	Program:	/corina/corina34_cracker 3.40 0067  02.08.2006

@<TRIPOS>MOLECULE
ASD01910958
  52   55    0    0    0
SMALL
NO_CHARGES


@<TRIPOS>ATOM
   1 N1             0.3331     1.5108     0.2410 N.3     
   2 C2             0.0960     0.0711     0.4110 C.3     
   3 C3            -1.3643    -0.1585     0.8148 C.3     
   4 N4            -2.2315     0.5023    -0.1725 N.am    
   5 C5            -1.9670     1.9120    -0.4980 C.3     
   6 C6            -0.4829     2.0601    -0.8501 C.3     
   7 C7            -3.2414    -0.1664    -0.7635 C.2     
   8 C8            -4.1723     0.5461    -1.6649 C.ar    
   9 C9            -4.6322    -0.0747    -2.8284 C.ar    
  10 C10           -5.5017     0.5886    -3.6721 C.ar    
  11 C11           -5.9225     1.8686    -3.3727 C.ar    
  12 C12           -5.4698     2.5027    -2.2115 C.ar    
  13 C13           -4.5966     1.8357    -1.3524 C.ar    
  14 C14           -5.9065     3.8309    -1.9020 C.1     
  15 O15           -3.3872    -1.3550    -0.5556 O.2     
  16 C16           -6.2646     4.9198    -1.6482 C.1     
  17 C17           -6.7013     6.2480    -1.3387 C.ar    
  18 C18           -6.2555     6.8911    -0.1814 C.ar    
  19 N19           -6.6576     8.1124     0.1026 N.ar    
  20 C20           -7.4872     8.7731    -0.6819 C.ar    
  21 C21           -7.9748     8.2063    -1.8462 C.ar    
  22 C22           -7.5789     6.9275    -2.1945 C.ar    
  23 C23            1.7592     1.7873     0.0224 C.3     
  24 C24            1.9510     3.2585    -0.2416 C.ar    
  25 C25            2.2173     3.7015    -1.5233 C.ar    
  26 C26            2.3929     5.0510    -1.7663 C.ar    
  27 C27            2.3021     5.9589    -0.7265 C.ar    
  28 C28            2.0354     5.5161     0.5569 C.ar    
  29 C29            1.8546     4.1663     0.7984 C.ar    
  30 Cl30           1.5195     3.6097     2.4083 Cl      
  31 Cl31           2.5232     7.6535    -1.0317 Cl      
  32 H32            0.2991    -0.4443    -0.5277 H       
  33 H33            0.7537    -0.3165     1.1890 H       
  34 H34           -1.5761    -1.2276     0.8307 H       
  35 H35           -1.5426     0.2677     1.8021 H       
  36 H36           -2.5771     2.2118    -1.3500 H       
  37 H37           -2.2031     2.5372     0.3631 H       
  38 H38           -0.2450     3.1150    -0.9866 H       
  39 H39           -0.2717     1.5170    -1.7712 H       
  40 H40           -4.3069    -1.0759    -3.0693 H       
  41 H41           -5.8537     0.1036    -4.5705 H       
  42 H42           -6.6024     2.3815    -4.0368 H       
  43 H43           -4.2436     2.3203    -0.4541 H       
  44 H44           -5.5758     6.3822     0.4861 H       
  45 H45           -7.7912     9.7733    -0.4107 H       
  46 H46           -8.6540     8.7584    -2.4789 H       
  47 H47           -7.9441     6.4612    -3.0976 H       
  48 H48            2.3249     1.5004     0.9088 H       
  49 H49            2.1129     1.2151    -0.8353 H       
  50 H50            2.2887     2.9931    -2.3353 H       
  51 H51            2.6014     5.3966    -2.7681 H       
  52 H52            1.9647     6.2245     1.3690 H       
@<TRIPOS>BOND
   1    1    2 1
   2    1   23 1
   3    1    6 1
   4    2    3 1
   5    2   32 1
   6    2   33 1
   7    3    4 1
   8    3   34 1
   9    3   35 1
  10    4    5 1
  11    4    7 am
  12    5    6 1
  13    5   36 1
  14    5   37 1
  15    6   38 1
  16    6   39 1
  17    7    8 1
  18    7   15 2
  19    8    9 ar
  20    8   13 ar
  21    9   10 ar
  22    9   40 1
  23   10   11 ar
  24   10   41 1
  25   11   12 ar
  26   11   42 1
  27   12   13 ar
  28   12   14 1
  29   13   43 1
  30   14   16 3
  31   16   17 1
  32   17   18 ar
  33   17   22 ar
  34   18   19 ar
  35   18   44 1
  36   19   20 ar
  37   20   21 ar
  38   20   45 1
  39   21   22 ar
  40   21   46 1
  41   22   47 1
  42   23   24 1
  43   23   48 1
  44   23   49 1
  45   24   25 ar
  46   24   29 ar
  47   25   26 ar
  48   25   50 1
  49   26   27 ar
  50   26   51 1
  51   27   28 ar
  52   27   31 1
  53   28   29 ar
  54   28   52 1
  55   29   30 1

#	End of record

