#	Name: ASD02508482
#	Creating user name:	WinNT
#	Creation time:	15. 06. 2019 20:24

#	Modifying user name:	WinNT
#	Modification time:	15. 06. 2019 20:24

#	Program:	/corina/corina34_cracker 3.40 0067  02.08.2006

@<TRIPOS>MOLECULE
ASD02508482
  32   34    0    0    0
SMALL
NO_CHARGES


@<TRIPOS>ATOM
   1 N1            -0.0239     1.3263    -0.0177 N.2     
   2 C2             0.0136    -0.0123    -0.1004 C.2     
   3 C3             1.3009    -0.4016    -0.0482 C.2     
   4 N4             2.0561     0.7383     0.0692 N.pl3   
   5 C5             1.1917     1.7883     0.0842 C.2     
   6 C6             3.4463     0.8070     0.1573 C.ar    
   7 N7             4.0729     0.0695     1.0599 N.ar    
   8 N8             4.1064     1.6038    -0.6672 N.ar    
   9 C9             5.4255     1.6936    -0.6115 C.ar    
  10 C10            6.1149     0.9406     0.3243 C.ar    
  11 C11            5.3914     0.1108     1.1702 C.ar    
  12 S12            1.9012    -2.0568    -0.1169 S.o2    
  13 N13            1.9202    -2.5056    -1.7108 N.am    
  14 C14            2.7742    -1.8586    -2.6091 C.ar    
  15 C15            2.8835    -0.4741    -2.5902 C.ar    
  16 O16            3.2579    -2.0093     0.3029 O.2     
  17 O17            0.9197    -2.8662     0.5162 O.2     
  18 C18            3.5185    -2.5996    -3.5174 C.ar    
  19 C19            4.3619    -1.9587    -4.4044 C.ar    
  20 C20            4.4660    -0.5787    -4.3882 C.ar    
  21 C21            3.7283     0.1632    -3.4791 C.ar    
  22 F22            5.2920     0.0457    -5.2560 F       
  23 Cl23           3.8609     1.8940    -3.4612 Cl      
  24 Cl24           6.2047    -0.8545     2.3620 Cl      
  25 H25           -0.8418    -0.6651    -0.1926 H       
  26 H26            1.4658     2.8297     0.1663 H       
  27 H27            5.9580     2.3458    -1.2879 H       
  28 H28            7.1915     0.9942     0.3915 H       
  29 H29            1.3390    -3.2174    -2.0212 H       
  30 H30            2.3087     0.1039    -1.8818 H       
  31 H31            3.4384    -3.6766    -3.5302 H       
  32 H32            4.9407    -2.5352    -5.1108 H       
@<TRIPOS>BOND
   1    1    2 1
   2    1    5 2
   3    2    3 2
   4    2   25 1
   5    3    4 1
   6    3   12 1
   7    4    5 1
   8    4    6 1
   9    5   26 1
  10    6    7 ar
  11    6    8 ar
  12    7   11 ar
  13    8    9 ar
  14    9   10 ar
  15    9   27 1
  16   10   11 ar
  17   10   28 1
  18   11   24 1
  19   12   13 am
  20   12   16 2
  21   12   17 2
  22   13   14 1
  23   13   29 1
  24   14   18 ar
  25   14   15 ar
  26   15   21 ar
  27   15   30 1
  28   18   19 ar
  29   18   31 1
  30   19   20 ar
  31   19   32 1
  32   20   21 ar
  33   20   22 1
  34   21   23 1

#	End of record

