#	Name: ASD07300173
#	Creating user name:	WinNT
#	Creation time:	15. 06. 2019 21:09

#	Modifying user name:	WinNT
#	Modification time:	15. 06. 2019 21:09

#	Program:	/corina/corina34_cracker 3.40 0067  02.08.2006

@<TRIPOS>MOLECULE
ASD07300173
  48   52    0    0    0
SMALL
NO_CHARGES


@<TRIPOS>ATOM
   1 C1            -0.4814     1.2589     1.2020 C.ar    
   2 C2            -0.5430    -0.1373     1.2503 C.ar    
   3 C3             0.5802    -0.8545     1.6340 C.ar    
   4 C4             1.7303    -0.1491     1.9575 C.ar    
   5 C5             1.7203     1.2312     1.8877 C.ar    
   6 N6             0.6377     1.8887     1.5195 N.ar    
   7 C7            -2.5249     0.6242     0.6068 C.2     
   8 N8            -1.7363     1.6983     0.7966 N.am    
   9 N9            -1.8309    -0.5000     0.8675 N.am    
  10 O10           -3.6874     0.6630     0.2493 O.2     
  11 C11           -2.1172     3.0374     0.6160 C.ar    
  12 C12           -2.6583     3.7559     1.6766 C.ar    
  13 C13           -3.0325     5.0744     1.4973 C.ar    
  14 C14           -2.8679     5.6799     0.2596 C.ar    
  15 C15           -2.3285     4.9625    -0.7980 C.ar    
  16 C16           -1.9488     3.6464    -0.6190 C.ar    
  17 O17           -3.2359     6.9768     0.0834 O.3     
  18 C18           -2.4273     7.9398     0.5821 C.2     
  19 N19           -1.2646     7.7281     1.1419 N.2     
  20 C20           -0.7219     8.9123     1.5288 C.ar    
  21 C21           -1.6338     9.9198     1.1722 C.ar    
  22 N22           -2.7015     9.2761     0.5703 N.pl3   
  23 C23            0.4747     9.2599     2.1598 C.ar    
  24 C24            0.7484    10.5831     2.4255 C.ar    
  25 C25           -0.1551    11.5737     2.0714 C.ar    
  26 C26           -1.3418    11.2469     1.4478 C.ar    
  27 C27           -3.9034     9.9115     0.0246 C.3     
  28 F28           -2.8186     3.1655     2.8812 F       
  29 C29           -2.3456    -1.8684     0.7736 C.3     
  30 C30           -2.9526    -2.2783     2.1169 C.3     
  31 H31            0.5601    -1.9333     1.6803 H       
  32 H32            2.6244    -0.6734     2.2611 H       
  33 H33            2.6150     1.7814     2.1392 H       
  34 H34           -3.4531     5.6332     2.3202 H       
  35 H35           -2.2015     5.4346    -1.7611 H       
  36 H36           -1.5245     3.0902    -1.4419 H       
  37 H37            1.1828     8.4936     2.4387 H       
  38 H38            1.6737    10.8514     2.9138 H       
  39 H39            0.0712    12.6078     2.2856 H       
  40 H40           -2.0414    12.0231     1.1748 H       
  41 H41           -4.6622     9.9831     0.8037 H       
  42 H42           -3.6553    10.9106    -0.3338 H       
  43 H43           -4.2868     9.3138    -0.8023 H       
  44 H44           -3.1113    -1.9162    -0.0008 H       
  45 H45           -1.5306    -2.5467     0.5210 H       
  46 H46           -3.7676    -1.6001     2.3695 H       
  47 H47           -3.3356    -3.2964     2.0470 H       
  48 H48           -2.1869    -2.2305     2.8912 H       
@<TRIPOS>BOND
   1    1    2 ar
   2    1    6 ar
   3    1    8 1
   4    2    3 ar
   5    2    9 1
   6    3    4 ar
   7    3   31 1
   8    4    5 ar
   9    4   32 1
  10    5    6 ar
  11    5   33 1
  12    7    8 am
  13    7    9 am
  14    7   10 2
  15    8   11 1
  16    9   29 1
  17   11   12 ar
  18   11   16 ar
  19   12   13 ar
  20   12   28 1
  21   13   14 ar
  22   13   34 1
  23   14   15 ar
  24   14   17 1
  25   15   16 ar
  26   15   35 1
  27   16   36 1
  28   17   18 1
  29   18   19 2
  30   18   22 1
  31   19   20 1
  32   20   21 ar
  33   20   23 ar
  34   21   22 1
  35   21   26 ar
  36   22   27 1
  37   23   24 ar
  38   23   37 1
  39   24   25 ar
  40   24   38 1
  41   25   26 ar
  42   25   39 1
  43   26   40 1
  44   27   41 1
  45   27   42 1
  46   27   43 1
  47   29   30 1
  48   29   44 1
  49   29   45 1
  50   30   46 1
  51   30   47 1
  52   30   48 1

#	End of record

