#	Name: ASD03330327
#	Creating user name:	WinNT
#	Creation time:	15. 06. 2019 20:37

#	Modifying user name:	WinNT
#	Modification time:	15. 06. 2019 20:37

#	Program:	/corina/corina34_cracker 3.40 0067  02.08.2006

@<TRIPOS>MOLECULE
ASD03330327
  56   59    0    0    0
SMALL
NO_CHARGES


@<TRIPOS>ATOM
   1 C1            -0.1749     1.6156    -0.2735 C.3     
   2 N2            -0.2170     0.1455    -0.2903 N.am    
   3 C3             0.4182    -0.5528    -1.4242 C.3     
   4 C4             1.7332     0.1396    -1.6859 C.2     
   5 N5             2.0980     1.3180    -1.1210 N.pl3   
   6 C6             1.2825     2.0792    -0.1718 C.3     
   7 C7             2.7504    -0.2573    -2.4924 C.2     
   8 N8             3.7210     0.6812    -2.4187 N.2     
   9 C9             3.3352     1.6314    -1.5984 C.2     
  10 C10            4.1135     2.8408    -1.2511 C.ar    
  11 C11            5.2134     3.2120    -2.0249 C.ar    
  12 C12            2.7900    -1.4885    -3.3011 C.2     
  13 O13            1.8491    -2.2589    -3.2824 O.2     
  14 N14            3.9506    -2.9489    -4.7307 N.3     
  15 N15            3.8689    -1.7608    -4.0615 N.am    
  16 S16           -0.9549    -0.7005     0.9271 S.o2    
  17 O17           -0.8778     0.1647     2.0517 O.2     
  18 C18           -2.6744    -0.8782     0.3773 C.3     
  19 O19           -0.2982    -1.9607     0.9260 O.2     
  20 C20           -3.4691    -1.6528     1.4305 C.3     
  21 C21            5.1848    -3.6648    -4.3834 C.3     
  22 C22            5.9349     4.3412    -1.6961 C.ar    
  23 C23            5.5697     5.1047    -0.6017 C.ar    
  24 C24            4.4801     4.7418     0.1697 C.ar    
  25 C25            3.7472     3.6179    -0.1518 C.ar    
  26 C26            3.8457    -2.7443    -6.1811 C.3     
  27 C27            3.7946    -4.1013    -6.8867 C.3     
  28 C28            5.0631    -4.8919    -6.5544 C.3     
  29 C29            5.1737    -5.0493    -5.0353 C.3     
  30 H30           -0.6167     2.0028    -1.1917 H       
  31 H31           -0.7353     1.9859     0.5849 H       
  32 H32            0.5926    -1.5977    -1.1672 H       
  33 H33           -0.2190    -0.4868    -2.3060 H       
  34 H34            1.3441     3.1414    -0.4088 H       
  35 H35            1.6487     1.9095     0.8407 H       
  36 H36            5.4997     2.6167    -2.8793 H       
  37 H37            4.5874    -1.1132    -4.1336 H       
  38 H38           -3.1164     0.1089     0.2419 H       
  39 H39           -2.6994    -1.4203    -0.5680 H       
  40 H40           -4.5024    -1.7596     1.1001 H       
  41 H41           -3.0271    -2.6399     1.5659 H       
  42 H42           -3.4441    -1.1107     2.3758 H       
  43 H43            6.0453    -3.1008    -4.7432 H       
  44 H44            5.2490    -3.7737    -3.3007 H       
  45 H45            6.7868     4.6295    -2.2941 H       
  46 H46            6.1379     5.9875    -0.3482 H       
  47 H47            4.2000     5.3419     1.0228 H       
  48 H48            2.8968     3.3356     0.4511 H       
  49 H49            2.9374    -2.1845    -6.4041 H       
  50 H50            4.7125    -2.1846    -6.5325 H       
  51 H51            2.9204    -4.6560    -6.5460 H       
  52 H52            3.7325    -3.9491    -7.9642 H       
  53 H53            5.0112    -5.8762    -7.0197 H       
  54 H54            5.9350    -4.3561    -6.9295 H       
  55 H55            6.0968    -5.5744    -4.7901 H       
  56 H56            4.3211    -5.6189    -4.6654 H       
@<TRIPOS>BOND
   1    1    2 1
   2    1    6 1
   3    1   30 1
   4    1   31 1
   5    2    3 1
   6    2   16 am
   7    3    4 1
   8    3   32 1
   9    3   33 1
  10    4    5 1
  11    4    7 2
  12    5    6 1
  13    5    9 1
  14    6   34 1
  15    6   35 1
  16    7    8 1
  17    7   12 1
  18    8    9 2
  19    9   10 1
  20   10   11 ar
  21   10   25 ar
  22   11   22 ar
  23   11   36 1
  24   12   13 2
  25   12   15 am
  26   14   21 1
  27   14   26 1
  28   14   15 1
  29   15   37 1
  30   16   17 2
  31   16   18 1
  32   16   19 2
  33   18   20 1
  34   18   38 1
  35   18   39 1
  36   20   40 1
  37   20   41 1
  38   20   42 1
  39   21   29 1
  40   21   43 1
  41   21   44 1
  42   22   23 ar
  43   22   45 1
  44   23   24 ar
  45   23   46 1
  46   24   25 ar
  47   24   47 1
  48   25   48 1
  49   26   27 1
  50   26   49 1
  51   26   50 1
  52   27   28 1
  53   27   51 1
  54   27   52 1
  55   28   29 1
  56   28   53 1
  57   28   54 1
  58   29   55 1
  59   29   56 1

#	End of record

