#	Name: ASD01885465
#	Creating user name:	WinNT
#	Creation time:	15. 06. 2019 19:49

#	Modifying user name:	WinNT
#	Modification time:	15. 06. 2019 19:49

#	Program:	/corina/corina34_cracker 3.40 0067  02.08.2006

@<TRIPOS>MOLECULE
ASD01885465
  46   49    0    0    0
SMALL
NO_CHARGES


@<TRIPOS>ATOM
   1 C1             0.4133     0.8342    -0.4344 C.ar    
   2 C2             0.6599    -0.5320    -0.5699 C.ar    
   3 N3            -0.3151    -1.4658    -0.7098 N.2     
   4 C4            -1.3675    -1.3635    -1.4366 C.2     
   5 C5            -1.6669    -0.1163    -2.2262 C.3     
   6 C6            -1.8504     1.0222    -1.2548 C.2     
   7 N7            -0.8585     1.3918    -0.4455 N.am    
   8 C8             1.4864     1.7117    -0.2837 C.ar    
   9 C9             2.7884     1.2411    -0.2725 C.ar    
  10 C10            3.0357    -0.1209    -0.4131 C.ar    
  11 C11            1.9875    -0.9965    -0.5600 C.ar    
  12 C12           -2.3073    -2.4955    -1.5007 C.ar    
  13 O13           -2.9112     1.6087    -1.2112 O.2     
  14 C14           -3.5242    -2.3607    -2.1752 C.ar    
  15 C15           -4.3993    -3.4252    -2.2317 C.ar    
  16 C16           -4.0757    -4.6247    -1.6229 C.ar    
  17 C17           -2.8720    -4.7664    -0.9527 C.ar    
  18 C18           -1.9841    -3.7120    -0.8923 C.ar    
  19 N19            3.8538     2.1337    -0.1205 N.am    
  20 C20            4.9657     1.7501     0.5376 C.2     
  21 Br21          -2.4412    -6.4110    -0.1246 Br      
  22 O22            5.0055     0.6637     1.0822 O.2     
  23 N23            6.0335     2.5707     0.5920 N.am    
  24 C24            7.2207     2.1353     1.1912 C.ar    
  25 C25            8.4471     2.5291     0.6723 C.ar    
  26 C26            9.6171     2.0980     1.2664 C.ar    
  27 C27            9.5682     1.2748     2.3764 C.ar    
  28 C28            8.3485     0.8806     2.8952 C.ar    
  29 C29            7.1749     1.3132     2.3095 C.ar    
  30 H30           -0.8362     0.1027    -2.8970 H       
  31 H31           -2.5801    -0.2573    -2.8044 H       
  32 H32           -1.0390     2.1042     0.1875 H       
  33 H33            1.2999     2.7699    -0.1749 H       
  34 H34            4.0509    -0.4893    -0.4071 H       
  35 H35            2.1848    -2.0528    -0.6686 H       
  36 H36           -3.7787    -1.4250    -2.6507 H       
  37 H37           -5.3400    -3.3221    -2.7522 H       
  38 H38           -4.7652    -5.4546    -1.6703 H       
  39 H39           -1.0456    -3.8236    -0.3697 H       
  40 H40            3.7927     3.0291    -0.4886 H       
  41 H41            5.9790     3.4631     0.2158 H       
  42 H42            8.4860     3.1714    -0.1950 H       
  43 H43           10.5712     2.4039     0.8633 H       
  44 H44           10.4844     0.9388     2.8389 H       
  45 H45            8.3136     0.2371     3.7618 H       
  46 H46            6.2226     1.0053     2.7154 H       
@<TRIPOS>BOND
   1    1    2 ar
   2    1    8 ar
   3    1    7 1
   4    2    3 1
   5    2   11 ar
   6    3    4 2
   7    4    5 1
   8    4   12 1
   9    5    6 1
  10    5   30 1
  11    5   31 1
  12    6    7 am
  13    6   13 2
  14    7   32 1
  15    8    9 ar
  16    8   33 1
  17    9   10 ar
  18    9   19 1
  19   10   11 ar
  20   10   34 1
  21   11   35 1
  22   12   14 ar
  23   12   18 ar
  24   14   15 ar
  25   14   36 1
  26   15   16 ar
  27   15   37 1
  28   16   17 ar
  29   16   38 1
  30   17   18 ar
  31   17   21 1
  32   18   39 1
  33   19   20 am
  34   19   40 1
  35   20   22 2
  36   20   23 am
  37   23   24 1
  38   23   41 1
  39   24   25 ar
  40   24   29 ar
  41   25   26 ar
  42   25   42 1
  43   26   27 ar
  44   26   43 1
  45   27   28 ar
  46   27   44 1
  47   28   29 ar
  48   28   45 1
  49   29   46 1

#	End of record

