#	Name: ASD01917112
#	Creating user name:	WinNT
#	Creation time:	15. 06. 2019 20:08

#	Modifying user name:	WinNT
#	Modification time:	15. 06. 2019 20:08

#	Program:	/corina/corina34_cracker 3.40 0067  02.08.2006

@<TRIPOS>MOLECULE
ASD01917112
  43   46    0    0    0
SMALL
NO_CHARGES


@<TRIPOS>ATOM
   1 C1            -0.0156     1.4198    -0.0040 C.ar    
   2 C2             0.0074     0.0060    -0.0143 C.ar    
   3 C3            -1.1857    -0.7158    -0.0039 C.ar    
   4 C4            -2.3785    -0.0514     0.0162 C.ar    
   5 C5            -2.4149     1.3441     0.0263 C.ar    
   6 C6            -1.2428     2.0814     0.0110 C.ar    
   7 N7             1.1581     2.0995    -0.0145 N.2     
   8 C8             2.3047     1.4900    -0.0335 C.2     
   9 N9             2.4132     0.1268    -0.0406 N.am    
  10 C10            1.3173    -0.6588    -0.0355 C.2     
  11 N11           -3.6441     2.0023     0.0462 N.am    
  12 O12            1.4099    -1.8727    -0.0477 O.2     
  13 C13           -3.7776     3.1601     0.7230 C.2     
  14 C14           -5.0472     3.9196     0.6480 C.ar    
  15 C15           -5.1770     5.1188     1.3454 C.ar    
  16 C16            3.5843     2.2976    -0.0510 C.3     
  17 C17            4.2117     2.2101    -1.4400 C.3     
  18 C18            5.1277     1.0043    -1.5533 C.3     
  19 C19            4.3677    -0.3061    -1.4390 C.3     
  20 C20            3.7558    -0.4672    -0.0488 C.3     
  21 N21           -6.0497     3.4547    -0.0872 N.ar    
  22 C22           -7.1929     4.0983    -0.1808 C.ar    
  23 C23           -7.3934     5.2942     0.4896 C.ar    
  24 C24           -6.3707     5.8182     1.2652 C.ar    
  25 F25            5.7802     1.0443    -2.7902 F       
  26 F26            6.0853     1.0641    -0.5352 F       
  27 O27           -2.8566     3.5811     1.3946 O.2     
  28 H28           -1.1664    -1.7956    -0.0121 H       
  29 H29           -3.3023    -0.6108     0.0239 H       
  30 H30           -1.2789     3.1608     0.0190 H       
  31 H31           -4.4030     1.6268    -0.4271 H       
  32 H32           -4.3592     5.4977     1.9403 H       
  33 H33            3.3614     3.3386     0.1832 H       
  34 H34            4.2781     1.8972     0.6882 H       
  35 H35            3.4203     2.1290    -2.1851 H       
  36 H36            4.7880     3.1157    -1.6294 H       
  37 H37            3.5723    -0.3244    -2.1841 H       
  38 H38            5.0516    -1.1338    -1.6268 H       
  39 H39            4.3824     0.0387     0.6857 H       
  40 H40            3.6868    -1.5266     0.1981 H       
  41 H41           -7.9862     3.6891    -0.7888 H       
  42 H42           -8.3358     5.8150     0.4058 H       
  43 H43           -6.5026     6.7485     1.7977 H       
@<TRIPOS>BOND
   1    1    2 ar
   2    1    7 1
   3    1    6 ar
   4    2    3 ar
   5    2   10 1
   6    3    4 ar
   7    3   28 1
   8    4    5 ar
   9    4   29 1
  10    5    6 ar
  11    5   11 1
  12    6   30 1
  13    7    8 2
  14    8    9 1
  15    8   16 1
  16    9   10 am
  17    9   20 1
  18   10   12 2
  19   11   13 am
  20   11   31 1
  21   13   14 1
  22   13   27 2
  23   14   21 ar
  24   14   15 ar
  25   15   24 ar
  26   15   32 1
  27   16   17 1
  28   16   33 1
  29   16   34 1
  30   17   18 1
  31   17   35 1
  32   17   36 1
  33   18   19 1
  34   18   25 1
  35   18   26 1
  36   19   20 1
  37   19   37 1
  38   19   38 1
  39   20   39 1
  40   20   40 1
  41   21   22 ar
  42   22   23 ar
  43   22   41 1
  44   23   24 ar
  45   23   42 1
  46   24   43 1

#	End of record

