#	Name: ASD04880418
#	Creating user name:	WinNT
#	Creation time:	15. 06. 2019 20:53

#	Modifying user name:	WinNT
#	Modification time:	15. 06. 2019 20:53

#	Program:	/corina/corina34_cracker 3.40 0067  02.08.2006

@<TRIPOS>MOLECULE
ASD04880418
  41   43    0    0    0
SMALL
NO_CHARGES


@<TRIPOS>ATOM
   1 C1            -0.0054     1.3682     0.3070 C.ar    
   2 C2             0.0099    -0.0230     0.2729 C.ar    
   3 C3            -1.1736    -0.7251     0.2236 C.ar    
   4 C4            -2.3915    -0.0389     0.2084 C.ar    
   5 C5            -2.4033     1.3587     0.2433 C.ar    
   6 C6            -1.2161     2.0544     0.2978 C.ar    
   7 C7            -3.6600    -0.7869     0.1552 C.2     
   8 N8            -3.7653    -2.0710     0.1201 N.2     
   9 N9            -5.0790    -2.5331     0.0729 N.am    
  10 C10           -5.9903    -1.3778     0.0772 C.3     
  11 C11           -5.0388    -0.1666     0.1401 C.3     
  12 C12           -5.4538    -3.8270     0.0298 C.2     
  13 C13           -4.4329    -4.8883    -0.0969 C.ar    
  14 O14           -6.6318    -4.1213     0.0951 O.2     
  15 C15           -3.0989    -4.5513    -0.3162 C.ar    
  16 C16           -2.1429    -5.5580    -0.4339 C.ar    
  17 C17           -2.5269    -6.8969    -0.3315 C.ar    
  18 C18           -3.8509    -7.2242    -0.1146 C.ar    
  19 C19           -4.8025    -6.2317     0.0088 C.ar    
  20 C20           -0.7250    -5.2096    -0.6672 C.2     
  21 S21            1.5114     2.2627     0.3695 S.3     
  22 C22            0.9644     3.9920     0.3980 C.3     
  23 O23           -0.3923    -4.0439    -0.7565 O.2     
  24 N24            0.1986    -6.1846    -0.7808 N.am    
  25 H25            0.9512    -0.5524     0.2846 H       
  26 H26           -1.1609    -1.8047     0.1964 H       
  27 H27           -3.3424     1.8919     0.2317 H       
  28 H28           -1.2245     3.1340     0.3252 H       
  29 H29           -6.5859    -1.3556    -0.8354 H       
  30 H30           -6.6344    -1.4007     0.9563 H       
  31 H31           -5.2145     0.4109     1.0476 H       
  32 H32           -5.1598     0.4609    -0.7430 H       
  33 H33           -2.8073    -3.5144    -0.3949 H       
  34 H34           -1.7867    -7.6782    -0.4226 H       
  35 H35           -4.1426    -8.2612    -0.0369 H       
  36 H36           -5.8362    -6.4944     0.1787 H       
  37 H37            0.3887     4.2059    -0.5025 H       
  38 H38            0.3416     4.1617     1.2762 H       
  39 H39            1.8343     4.6476     0.4373 H       
  40 H40           -0.0668    -7.1148    -0.7096 H       
  41 H41            1.1288    -5.9560    -0.9339 H       
@<TRIPOS>BOND
   1    1    2 ar
   2    1   21 1
   3    1    6 ar
   4    2    3 ar
   5    2   25 1
   6    3    4 ar
   7    3   26 1
   8    4    5 ar
   9    4    7 1
  10    5    6 ar
  11    5   27 1
  12    6   28 1
  13    7    8 2
  14    7   11 1
  15    8    9 1
  16    9   10 1
  17    9   12 am
  18   10   11 1
  19   10   29 1
  20   10   30 1
  21   11   31 1
  22   11   32 1
  23   12   13 1
  24   12   14 2
  25   13   15 ar
  26   13   19 ar
  27   15   16 ar
  28   15   33 1
  29   16   17 ar
  30   16   20 1
  31   17   18 ar
  32   17   34 1
  33   18   19 ar
  34   18   35 1
  35   19   36 1
  36   20   23 2
  37   20   24 am
  38   21   22 1
  39   22   37 1
  40   22   38 1
  41   22   39 1
  42   24   40 1
  43   24   41 1

#	End of record

