#	Name: ASD01840355
#	Creating user name:	WinNT
#	Creation time:	15. 06. 2019 19:37

#	Modifying user name:	WinNT
#	Modification time:	15. 06. 2019 19:37

#	Program:	/corina/corina34_cracker 3.40 0067  02.08.2006

@<TRIPOS>MOLECULE
ASD01840355
  48   49    0    0    0
SMALL
NO_CHARGES


@<TRIPOS>ATOM
   1 C1             0.2611     1.7552    -0.9980 C.ar    
   2 C2             0.3841     0.5320    -1.6195 C.ar    
   3 N3             1.4990    -0.1677    -1.4965 N.ar    
   4 N4             2.4999     0.2427    -0.8111 N.ar    
   5 C5             1.3546     2.2267    -0.2364 C.ar    
   6 C6             1.5104     3.4570     0.5171 C.2     
   7 C7             2.4928     1.4121    -0.1670 C.ar    
   8 S8             3.7250     2.1824     0.8223 S.3     
   9 C9             2.7118     3.5783     1.1344 C.2     
  10 C10           -0.9999     2.5697    -1.1313 C.3     
  11 C11           -0.7562    -0.0106    -2.4419 C.3     
  12 N12            0.5179     4.4243     0.5985 N.pl3   
  13 C13            3.1102     4.7236     1.9514 C.2     
  14 O14            2.3404     5.6527     2.1138 O.2     
  15 N15            4.3297     4.7507     2.5248 N.am    
  16 C16            4.7288     5.8982     3.3434 C.3     
  17 C17            6.1479     5.6788     3.8716 C.3     
  18 C18            6.5183     6.8158     4.8260 C.3     
  19 Cl19           8.1906     6.5573     5.4485 Cl      
  20 N20            6.2110     4.4014     4.5860 N.am    
  21 C21            7.3855     3.7502     4.6997 C.2     
  22 O22            7.4435     2.5762     5.3563 O.3     
  23 C23            8.7416     1.9309     5.4396 C.3     
  24 C24            8.6102     0.6192     6.2162 C.3     
  25 C25            9.9780    -0.0608     6.3039 C.3     
  26 O26            8.3921     4.2226     4.2097 O.2     
  27 H27           -1.6441     2.3852    -0.2716 H       
  28 H28           -0.7456     3.6287    -1.1742 H       
  29 H29           -1.5220     2.2841    -2.0445 H       
  30 H30           -0.6493     0.3210    -3.4747 H       
  31 H31           -0.7433    -1.1000    -2.4068 H       
  32 H32           -1.7008     0.3547    -2.0389 H       
  33 H33           -0.4028     4.1923     0.4002 H       
  34 H34            0.7452     5.3322     0.8537 H       
  35 H35            4.9430     4.0104     2.3954 H       
  36 H36            4.7027     6.8036     2.7371 H       
  37 H37            4.0410     6.0027     4.1824 H       
  38 H38            6.8481     5.6629     3.0364 H       
  39 H39            6.4713     7.7662     4.2945 H       
  40 H40            5.8181     6.8317     5.6613 H       
  41 H41            5.4075     4.0243     4.9773 H       
  42 H42            9.1090     1.7229     4.4347 H       
  43 H43            9.4422     2.5889     5.9537 H       
  44 H44            8.2428     0.8272     7.2211 H       
  45 H45            7.9096    -0.0388     5.7021 H       
  46 H46            9.8844    -0.9952     6.8572 H       
  47 H47           10.3454    -0.2688     5.2990 H       
  48 H48           10.6786     0.5972     6.8180 H       
@<TRIPOS>BOND
   1    1    2 ar
   2    1    5 ar
   3    1   10 1
   4    2   11 1
   5    2    3 ar
   6    3    4 ar
   7    4    7 ar
   8    5    7 ar
   9    5    6 1
  10    6    9 2
  11    6   12 1
  12    7    8 1
  13    8    9 1
  14    9   13 1
  15   10   27 1
  16   10   28 1
  17   10   29 1
  18   11   30 1
  19   11   31 1
  20   11   32 1
  21   12   33 1
  22   12   34 1
  23   13   14 2
  24   13   15 am
  25   15   16 1
  26   15   35 1
  27   16   17 1
  28   16   36 1
  29   16   37 1
  30   17   18 1
  31   17   20 1
  32   17   38 1
  33   18   19 1
  34   18   39 1
  35   18   40 1
  36   20   21 am
  37   20   41 1
  38   21   22 1
  39   21   26 2
  40   22   23 1
  41   23   24 1
  42   23   42 1
  43   23   43 1
  44   24   25 1
  45   24   44 1
  46   24   45 1
  47   25   46 1
  48   25   47 1
  49   25   48 1

#	End of record

