#	Name: ASD08170561
#	Creating user name:	WinNT
#	Creation time:	15. 06. 2019 21:17

#	Modifying user name:	WinNT
#	Modification time:	15. 06. 2019 21:17

#	Program:	/corina/corina34_cracker 3.40 0067  02.08.2006

@<TRIPOS>MOLECULE
ASD08170561
  85   88    0    0    0
SMALL
NO_CHARGES


@<TRIPOS>ATOM
   1 N1            -0.0159     1.3150     0.0224 N.ar    
   2 C2             0.0017    -0.0034     0.0124 C.ar    
   3 C3            -1.2931    -0.7743     0.0243 C.3     
   4 C4            -4.2984    -0.6746     2.4294 C.3     
   5 C5            -5.5932    -1.4455     2.4412 C.2     
   6 N6            -5.8033    -2.5767     3.0361 N.2     
   7 N7            -6.9625    -3.0651     2.9277 N.2     
   8 C8            -7.8359    -2.3975     2.2358 C.2     
   9 S9            -7.0970    -0.9657     1.6538 S.3     
  10 N10           -9.1540    -2.7791     2.0098 N.am    
  11 C11           -3.4530    -1.1158     1.2328 C.3     
  12 C12           -2.1384    -0.3331     1.2208 C.3     
  13 C13            1.2122    -0.6808    -0.0095 C.ar    
  14 C14            2.3785     0.0690    -0.0202 C.ar    
  15 C15            2.2616     1.4575    -0.0083 C.ar    
  16 N16            1.0600     2.0148     0.0126 N.ar    
  17 N17            3.4043     2.2567    -0.0179 N.am    
  18 C18           -9.6205    -3.9317     2.5297 C.2     
  19 O19           -8.8908    -4.6361     3.1947 O.2     
  20 C20          -11.0488    -4.3451     2.2847 C.3     
  21 C21          -11.2494    -4.6124     0.8152 C.ar    
  22 C22          -11.7433    -3.6172    -0.0072 C.ar    
  23 C23            3.2889     3.5963    -0.1113 C.2     
  24 C24            4.5141     4.4673    -0.0047 C.3     
  25 O25            2.1992     4.1007    -0.2812 O.2     
  26 C26            4.1152     5.9141    -0.1410 C.ar    
  27 C27          -11.9274    -3.8624    -1.3551 C.ar    
  28 C28          -11.6171    -5.1027    -1.8807 C.ar    
  29 C29          -11.1223    -6.0977    -1.0584 C.ar    
  30 C30          -10.9342    -5.8511     0.2887 C.ar    
  31 O31          -11.3355    -5.5314     3.0281 O.3     
  32 C32          -12.7007    -5.6471     3.4342 C.3     
  33 C33            3.7798     6.6471     0.9817 C.ar    
  34 C34            3.4138     7.9745     0.8567 C.ar    
  35 C35            3.3838     8.5686    -0.3909 C.ar    
  36 C36            3.7202     7.8356    -1.5138 C.ar    
  37 C37            4.0903     6.5098    -1.3884 C.ar    
  38 C38            3.6871     8.4832    -2.8742 C.3     
  39 N39            4.9963     9.0719    -3.1668 N.am    
  40 C40            5.2025     9.7088    -4.3365 C.2     
  41 O41            4.3025     9.7948    -5.1484 O.2     
  42 O42            6.4057    10.2498    -4.6054 O.3     
  43 C43            6.5559    10.9206    -5.8844 C.3     
  44 C44            5.5563    12.0754    -5.9751 C.3     
  45 C45            7.9794    11.4672    -6.0097 C.3     
  46 C46            6.2901     9.9260    -7.0163 C.3     
  47 H47           -1.8401    -0.5802    -0.8983 H       
  48 H48           -1.0805    -1.8405     0.1031 H       
  49 H49           -4.5110     0.3916     2.3505 H       
  50 H50           -3.7514    -0.8687     3.3520 H       
  51 H51           -9.7376    -2.2157     1.4779 H       
  52 H52           -3.2404    -2.1820     1.3116 H       
  53 H53           -4.0000    -0.9216     0.3102 H       
  54 H54           -1.5915    -0.5273     2.1434 H       
  55 H55           -2.3511     0.7331     1.1420 H       
  56 H56            1.2451    -1.7603    -0.0176 H       
  57 H57            3.3472    -0.4082    -0.0369 H       
  58 H58            4.2821     1.8485     0.0427 H       
  59 H59          -11.7182    -3.5460     2.6033 H       
  60 H60          -11.9858    -2.6482     0.4034 H       
  61 H61            4.9880     4.3107     0.9643 H       
  62 H62            5.2148     4.2073    -0.7981 H       
  63 H63          -12.3139    -3.0851    -1.9976 H       
  64 H64          -11.7615    -5.2945    -2.9337 H       
  65 H65          -10.8802    -7.0668    -1.4690 H       
  66 H66          -10.5476    -6.6284     0.9311 H       
  67 H67          -12.9648    -4.7995     4.0666 H       
  68 H68          -13.3423    -5.6568     2.5531 H       
  69 H69          -12.8364    -6.5733     3.9927 H       
  70 H70            3.8032     6.1829     1.9566 H       
  71 H71            3.1510     8.5471     1.7339 H       
  72 H72            3.0972     9.6053    -0.4886 H       
  73 H73            4.3531     5.9372    -2.2656 H       
  74 H74            3.4494     7.7327    -3.6281 H       
  75 H75            2.9267     9.2640    -2.8864 H       
  76 H76            5.7147     9.0032    -2.5187 H       
  77 H77            5.7457    12.7840    -5.1688 H       
  78 H78            5.6690    12.5789    -6.9353 H       
  79 H79            4.5422    11.6860    -5.8859 H       
  80 H80            8.6915    10.6445    -5.9450 H       
  81 H81            8.0921    11.9707    -6.9698 H       
  82 H82            8.1687    12.1758    -5.2033 H       
  83 H83            5.2759     9.5366    -6.9271 H       
  84 H84            6.4028    10.4295    -7.9764 H       
  85 H85            7.0022     9.1033    -6.9516 H       
@<TRIPOS>BOND
   1    1    2 ar
   2    1   16 ar
   3    2    3 1
   4    2   13 ar
   5    3   12 1
   6    3   47 1
   7    3   48 1
   8    4    5 1
   9    4   11 1
  10    4   49 1
  11    4   50 1
  12    5    6 2
  13    5    9 1
  14    6    7 1
  15    7    8 2
  16    8    9 1
  17    8   10 1
  18   10   18 am
  19   10   51 1
  20   11   12 1
  21   11   52 1
  22   11   53 1
  23   12   54 1
  24   12   55 1
  25   13   14 ar
  26   13   56 1
  27   14   15 ar
  28   14   57 1
  29   15   16 ar
  30   15   17 1
  31   17   23 am
  32   17   58 1
  33   18   19 2
  34   18   20 1
  35   20   21 1
  36   20   31 1
  37   20   59 1
  38   21   22 ar
  39   21   30 ar
  40   22   27 ar
  41   22   60 1
  42   23   24 1
  43   23   25 2
  44   24   26 1
  45   24   61 1
  46   24   62 1
  47   26   33 ar
  48   26   37 ar
  49   27   28 ar
  50   27   63 1
  51   28   29 ar
  52   28   64 1
  53   29   30 ar
  54   29   65 1
  55   30   66 1
  56   31   32 1
  57   32   67 1
  58   32   68 1
  59   32   69 1
  60   33   34 ar
  61   33   70 1
  62   34   35 ar
  63   34   71 1
  64   35   36 ar
  65   35   72 1
  66   36   37 ar
  67   36   38 1
  68   37   73 1
  69   38   39 1
  70   38   74 1
  71   38   75 1
  72   39   40 am
  73   39   76 1
  74   40   41 2
  75   40   42 1
  76   42   43 1
  77   43   44 1
  78   43   45 1
  79   43   46 1
  80   44   77 1
  81   44   78 1
  82   44   79 1
  83   45   80 1
  84   45   81 1
  85   45   82 1
  86   46   83 1
  87   46   84 1
  88   46   85 1

#	End of record

