#	Name: ASD01884881
#	Creating user name:	WinNT
#	Creation time:	15. 06. 2019 19:49

#	Modifying user name:	WinNT
#	Modification time:	15. 06. 2019 19:49

#	Program:	/corina/corina34_cracker 3.40 0067  02.08.2006

@<TRIPOS>MOLECULE
ASD01884881
  35   39    0    0    0
SMALL
NO_CHARGES


@<TRIPOS>ATOM
   1 C1            -0.0166     1.3719     0.0096 C.ar    
   2 C2             0.0021    -0.0041     0.0020 C.ar    
   3 C3            -1.1944    -0.7314     0.0095 C.ar    
   4 C4            -2.4134    -0.0670     0.0252 C.ar    
   5 C5            -2.4375     1.3278     0.0334 C.ar    
   6 C6            -1.2328     2.0540     0.0307 C.ar    
   7 C7            -3.5115     2.3248     0.0491 C.2     
   8 C8            -2.9256     3.5324     0.0500 C.2     
   9 N9            -1.5651     3.3910     0.0399 N.pl3   
  10 C10           -1.1595    -2.2128     0.0002 C.2     
  11 C11           -0.6279    -2.9056     1.0728 C.2     
  12 C12           -1.6754    -2.9333    -1.1043 C.2     
  13 C13           -1.6432    -4.2789    -1.1107 C.2     
  14 N14           -1.1161    -4.9716    -0.0585 N.pl3   
  15 C15           -0.6095    -4.3113     1.0345 C.2     
  16 Cl16           0.0073    -2.0530     2.4451 Cl      
  17 C17           -0.9555    -6.2984     0.2016 C.2     
  18 N18           -0.3851    -6.4039     1.3741 N.2     
  19 N19           -0.1765    -5.2376     1.8759 N.2     
  20 C20           -1.3610    -7.4379    -0.6974 C.3     
  21 H21           -0.9288     4.1231     0.0390 H       
  22 C22           -0.2605    -8.3882    -1.1734 C.3     
  23 C23           -1.2734    -8.8544    -0.1258 C.3     
  24 F24            1.1445     2.0627     0.0022 F       
  25 H25            0.9469    -0.5270    -0.0102 H       
  26 H26           -3.3372    -0.6265     0.0307 H       
  27 H27           -4.5730     2.1257     0.0582 H       
  28 H28           -3.4507     4.4762     0.0598 H       
  29 H29           -2.0965    -2.4012    -1.9445 H       
  30 H30           -2.0397    -4.8177    -1.9587 H       
  31 H31           -2.1752    -7.2237    -1.3897 H       
  32 H32           -0.3508    -8.7995    -2.1788 H       
  33 H33            0.7568    -8.1892    -0.8364 H       
  34 H34           -0.9224    -8.9621     0.9006 H       
  35 H35           -2.0301    -9.5724    -0.4419 H       
@<TRIPOS>BOND
   1    1    2 ar
   2    1   24 1
   3    1    6 ar
   4    2    3 ar
   5    2   25 1
   6    3    4 ar
   7    3   10 1
   8    4    5 ar
   9    4   26 1
  10    5    6 ar
  11    5    7 1
  12    6    9 1
  13    7    8 2
  14    7   27 1
  15    8    9 1
  16    8   28 1
  17    9   21 1
  18   10   11 2
  19   10   12 1
  20   11   16 1
  21   11   15 1
  22   12   13 2
  23   12   29 1
  24   13   14 1
  25   13   30 1
  26   14   15 1
  27   14   17 1
  28   15   19 2
  29   17   18 2
  30   17   20 1
  31   18   19 1
  32   20   22 1
  33   20   23 1
  34   20   31 1
  35   22   23 1
  36   22   32 1
  37   22   33 1
  38   23   34 1
  39   23   35 1

#	End of record

