#	Name: ASD04370065
#	Creating user name:	WinNT
#	Creation time:	15. 06. 2019 20:49

#	Modifying user name:	WinNT
#	Modification time:	15. 06. 2019 20:49

#	Program:	/corina/corina34_cracker 3.40 0067  02.08.2006

@<TRIPOS>MOLECULE
ASD04370065
  60   60    0    0    0
SMALL
NO_CHARGES


@<TRIPOS>ATOM
   1 C1            -0.6309     1.0722     0.4056 C.2     
   2 C2            -0.4028    -0.4162     0.3442 C.3     
   3 C3             1.0876    -0.6958     0.1405 C.3     
   4 C4             1.3036    -2.1988    -0.0465 C.3     
   5 O5             0.3027     1.8314     0.2975 O.2     
   6 O6            -1.8721     1.5545     0.5748 O.3     
   7 N7             1.8353    -0.2372     1.3139 N.am    
   8 C8             3.1538     0.0231     1.2133 C.2     
   9 C9             3.9454     0.3894     2.4423 C.3     
  10 C10            5.4054     0.6326     2.0547 C.3     
  11 C11            6.2091     1.0045     3.3024 C.3     
  12 C12            7.6691     1.2477     2.9149 C.3     
  13 C13            8.4728     1.6195     4.1625 C.3     
  14 C14            9.9328     1.8627     3.7750 C.3     
  15 C15           10.7365     2.2346     5.0227 C.3     
  16 C16           12.1965     2.4778     4.6351 C.3     
  17 C17           13.0001     2.8497     5.8828 C.3     
  18 O18            3.7033    -0.0375     0.1338 O.2     
  19 C19           14.8949     4.2902     5.1428 C.2     
  20 C20           14.4382     3.0892     5.5011 C.2     
  21 C21           15.3853     2.0798     5.4962 C.2     
  22 C22           16.6112     2.4609     5.1339 C.2     
  23 S23           16.6106     4.1819     4.7711 S.3     
  24 N24            0.6331    -2.6406    -1.2766 N.3     
  25 C25            1.3969    -2.2397    -2.4656 C.3     
  26 C26            0.4071    -4.0921    -1.2608 C.3     
  27 H27           -0.7341    -0.8733     1.2766 H       
  28 H28           -0.9683    -0.8364    -0.4875 H       
  29 H29            1.4391    -0.1653    -0.7444 H       
  30 H30            2.3712    -2.4061    -0.1201 H       
  31 H31            0.8875    -2.7346     0.8067 H       
  32 H32           -1.9687     2.5161     0.6080 H       
  33 H33            1.3813    -0.1209     2.1632 H       
  34 H34            3.5312     1.2954     2.8846 H       
  35 H35            3.8921    -0.4249     3.1649 H       
  36 H36            5.8197    -0.2734     1.6124 H       
  37 H37            5.4587     1.4469     1.3321 H       
  38 H38            5.7949     1.9105     3.7448 H       
  39 H39            6.1558     0.1902     4.0250 H       
  40 H40            8.0834     0.3417     2.4725 H       
  41 H41            7.7224     2.0620     2.1923 H       
  42 H42            8.0585     2.5255     4.6049 H       
  43 H43            8.4195     0.8052     4.8851 H       
  44 H44           10.3470     0.9568     3.3327 H       
  45 H45            9.9861     2.6771     3.0524 H       
  46 H46           10.3222     3.1406     5.4650 H       
  47 H47           10.6832     1.4203     5.7453 H       
  48 H48           12.6107     1.5718     4.1928 H       
  49 H49           12.2498     3.2921     3.9125 H       
  50 H50           12.5859     3.7557     6.3252 H       
  51 H51           12.9468     2.0354     6.6054 H       
  52 H52           14.3010     5.1904     5.0852 H       
  53 H53           15.1497     1.0608     5.7657 H       
  54 H54           17.4724     1.8121     5.0733 H       
  55 H55            2.3617    -2.7469    -2.4658 H       
  56 H56            0.8423    -2.5135    -3.3631 H       
  57 H57            1.5535    -1.1611    -2.4502 H       
  58 H58           -0.2197    -4.3530    -0.4081 H       
  59 H59           -0.0905    -4.3924    -2.1829 H       
  60 H60            1.3639    -4.6079    -1.1797 H       
@<TRIPOS>BOND
   1    1    2 1
   2    1    5 2
   3    1    6 1
   4    2    3 1
   5    2   27 1
   6    2   28 1
   7    3    4 1
   8    3    7 1
   9    3   29 1
  10    4   24 1
  11    4   30 1
  12    4   31 1
  13    6   32 1
  14    7    8 am
  15    7   33 1
  16    8    9 1
  17    8   18 2
  18    9   10 1
  19    9   34 1
  20    9   35 1
  21   10   11 1
  22   10   36 1
  23   10   37 1
  24   11   12 1
  25   11   38 1
  26   11   39 1
  27   12   13 1
  28   12   40 1
  29   12   41 1
  30   13   14 1
  31   13   42 1
  32   13   43 1
  33   14   15 1
  34   14   44 1
  35   14   45 1
  36   15   16 1
  37   15   46 1
  38   15   47 1
  39   16   17 1
  40   16   48 1
  41   16   49 1
  42   17   20 1
  43   17   50 1
  44   17   51 1
  45   19   20 2
  46   19   23 1
  47   19   52 1
  48   20   21 1
  49   21   22 2
  50   21   53 1
  51   22   23 1
  52   22   54 1
  53   24   25 1
  54   24   26 1
  55   25   55 1
  56   25   56 1
  57   25   57 1
  58   26   58 1
  59   26   59 1
  60   26   60 1

#	End of record

