#	Name: ASD01150429
#	Creating user name:	WinNT
#	Creation time:	15. 06. 2019 19:04

#	Modifying user name:	WinNT
#	Modification time:	15. 06. 2019 19:04

#	Program:	/corina/corina34_cracker 3.40 0067  02.08.2006

@<TRIPOS>MOLECULE
ASD01150429
  44   46    0    0    0
SMALL
NO_CHARGES


@<TRIPOS>ATOM
   1 C1             1.9996     1.1586     0.9721 C.ar    
   2 N2             2.0151    -0.1374     0.7339 N.ar    
   3 C3             1.2495    -0.6847    -0.1893 C.ar    
   4 C4             0.3889     0.0932    -0.9532 C.ar    
   5 C5             0.3424     1.4663    -0.7328 C.ar    
   6 C6             1.1663     2.0050     0.2507 C.ar    
   7 N7             1.1555     3.3801     0.5102 N.am    
   8 C8            -0.0186     4.0141     0.6759 C.2     
   9 N9            -0.0659     5.3356     0.9272 N.am    
  10 C10            1.0765     6.0478     1.0169 C.2     
  11 C11            2.3641     5.3602     0.8366 C.2     
  12 N12            2.3676     4.0750     0.5993 N.2     
  13 O13            1.0420     7.2429     1.2434 O.2     
  14 C14           -1.3590     6.0013     1.1031 C.3     
  15 O15           -1.0552     3.3830     0.5970 O.2     
  16 C16           -1.7483     5.9662     2.5585 C.ar    
  17 C17           -1.3658     6.9934     3.4010 C.ar    
  18 C18           -1.7225     6.9618     4.7359 C.ar    
  19 C19           -2.4625     5.9019     5.2290 C.ar    
  20 C20           -2.8450     4.8742     4.3854 C.ar    
  21 C21           -2.4925     4.9097     3.0494 C.ar    
  22 N22           -0.4201    -0.4960    -1.9315 N.am    
  23 C23           -0.6929     0.1700    -3.0710 C.2     
  24 O24           -0.3099     1.3121    -3.2125 O.2     
  25 O25            3.5318     6.0494     0.9205 O.3     
  26 C26            4.7383     5.3068     0.7331 C.3     
  27 Cl27          -2.9104     5.8612     6.9057 Cl      
  28 C28           -1.4740    -0.5043    -4.1693 C.3     
  29 H29            2.6391     1.5673     1.7405 H       
  30 H30            1.2923    -1.7512    -0.3539 H       
  31 H31           -0.3164     2.0979    -1.3104 H       
  32 H32           -1.2824     7.0371     0.7723 H       
  33 H33           -2.1162     5.4862     0.5119 H       
  34 H34           -0.7879     7.8206     3.0160 H       
  35 H35           -1.4234     7.7641     5.3940 H       
  36 H36           -3.4226     4.0465     4.7697 H       
  37 H37           -2.7910     4.1075     2.3907 H       
  38 H38           -0.7844    -1.3837    -1.7894 H       
  39 H39            5.5944     5.9752     0.8252 H       
  40 H40            4.8048     4.5248     1.4894 H       
  41 H41            4.7360     4.8540    -0.2585 H       
  42 H42           -2.4548    -0.7941    -3.7923 H       
  43 H43           -1.5950     0.1850    -5.0049 H       
  44 H44           -0.9371    -1.3915    -4.5049 H       
@<TRIPOS>BOND
   1    1    2 ar
   2    1    6 ar
   3    1   29 1
   4    2    3 ar
   5    3    4 ar
   6    3   30 1
   7    4    5 ar
   8    4   22 1
   9    5    6 ar
  10    5   31 1
  11    6    7 1
  12    7    8 am
  13    7   12 1
  14    8    9 am
  15    8   15 2
  16    9   10 am
  17    9   14 1
  18   10   11 1
  19   10   13 2
  20   11   12 2
  21   11   25 1
  22   14   16 1
  23   14   32 1
  24   14   33 1
  25   16   17 ar
  26   16   21 ar
  27   17   18 ar
  28   17   34 1
  29   18   19 ar
  30   18   35 1
  31   19   20 ar
  32   19   27 1
  33   20   21 ar
  34   20   36 1
  35   21   37 1
  36   22   23 am
  37   22   38 1
  38   23   24 2
  39   23   28 1
  40   25   26 1
  41   26   39 1
  42   26   40 1
  43   26   41 1
  44   28   42 1
  45   28   43 1
  46   28   44 1

#	End of record

