#	Name: ASD05060043
#	Creating user name:	WinNT
#	Creation time:	15. 06. 2019 20:56

#	Modifying user name:	WinNT
#	Modification time:	15. 06. 2019 20:56

#	Program:	/corina/corina34_cracker 3.40 0067  02.08.2006

@<TRIPOS>MOLECULE
ASD05060043
  28   29    0    0    0
SMALL
NO_CHARGES


@<TRIPOS>ATOM
   1 C1            -0.0775     1.2882    -0.0493 C.2     
   2 N2            -0.0359    -0.0153     0.0058 N.2     
   3 C3             1.2209    -0.4337    -0.2157 C.2     
   4 C4             2.0008     0.6976    -0.4205 C.2     
   5 N5             1.1521     1.7706    -0.3092 N.pl3   
   6 C6             3.4445     0.7375    -0.6998 C.2     
   7 O7             4.0785    -0.2970    -0.7713 O.2     
   8 O8             4.0645     1.9216    -0.8765 O.3     
   9 C9             1.6874    -1.8365    -0.2371 C.2     
  10 N10            0.8146    -2.8403    -0.0206 N.am    
  11 O11            2.8584    -2.0844    -0.4500 O.2     
  12 C12            1.2350    -4.1710    -0.1370 C.ar    
  13 C13            2.5176    -4.5309     0.2557 C.ar    
  14 C14            2.9323    -5.8427     0.1405 C.ar    
  15 C15            2.0666    -6.8026    -0.3678 C.ar    
  16 C16            0.7837    -6.4426    -0.7601 C.ar    
  17 C17            0.3674    -5.1318    -0.6400 C.ar    
  18 N18            2.4868    -8.1316    -0.4850 N.pl3   
  19 H19           -0.9647     1.8884     0.0882 H       
  20 H20            1.3939     2.7055    -0.4013 H       
  21 H21            5.0140     1.8973    -1.0577 H       
  22 H22           -0.1048    -2.6411     0.2159 H       
  23 H23            3.1907    -3.7845     0.6509 H       
  24 H24            3.9299    -6.1224     0.4453 H       
  25 H25            0.1105    -7.1889    -1.1554 H       
  26 H26           -0.6316    -4.8528    -0.9410 H       
  27 H27            3.3828    -8.3829    -0.2112 H       
  28 H28            1.8822    -8.8020    -0.8399 H       
@<TRIPOS>BOND
   1    1    2 2
   2    1    5 1
   3    1   19 1
   4    2    3 1
   5    3    4 2
   6    3    9 1
   7    4    5 1
   8    4    6 1
   9    5   20 1
  10    6    7 2
  11    6    8 1
  12    8   21 1
  13    9   10 am
  14    9   11 2
  15   10   12 1
  16   10   22 1
  17   12   13 ar
  18   12   17 ar
  19   13   14 ar
  20   13   23 1
  21   14   15 ar
  22   14   24 1
  23   15   16 ar
  24   15   18 1
  25   16   17 ar
  26   16   25 1
  27   17   26 1
  28   18   27 1
  29   18   28 1

#	End of record

