#	Name: ASD01410682
#	Creating user name:	WinNT
#	Creation time:	15. 06. 2019 19:18

#	Modifying user name:	WinNT
#	Modification time:	15. 06. 2019 19:18

#	Program:	/corina/corina34_cracker 3.40 0067  02.08.2006

@<TRIPOS>MOLECULE
ASD01410682
  64   67    0    0    0
SMALL
NO_CHARGES


@<TRIPOS>ATOM
   1 C1             0.1032    -1.6731    -1.4657 C.ar    
   2 C2             0.3732    -2.2959    -0.2551 C.ar    
   3 C3             1.6845    -2.4358     0.1551 C.ar    
   4 N4             2.6771    -1.9854    -0.5880 N.ar    
   5 C5             2.4599    -1.3864    -1.7475 C.ar    
   6 C6             1.1664    -1.2118    -2.2224 C.ar    
   7 O7             3.5106    -0.9384    -2.4795 O.3     
   8 C8             4.7550    -1.0456    -1.9421 C.ar    
   9 C9             5.3519    -2.2948    -1.8213 C.ar    
  10 C10            6.6147    -2.4150    -1.2778 C.ar    
  11 C11            7.2985    -1.2863    -0.8471 C.ar    
  12 C12            6.7011    -0.0219    -0.9662 C.ar    
  13 C13            5.4246     0.0895    -1.5227 C.ar    
  14 N14            8.5730    -1.4082    -0.2980 N.am    
  15 C15            9.6288    -1.6641    -1.0957 C.2     
  16 C16            8.7657    -1.2583     1.1465 C.3     
  17 O17           10.7216    -1.8776    -0.6079 O.2     
  18 C18            9.4579    -1.6851    -2.5633 C.ar    
  19 C19           10.2528    -2.5214    -3.3496 C.ar    
  20 C20           10.0883    -2.5369    -4.7187 C.ar    
  21 C21            9.1371    -1.7252    -5.3138 C.ar    
  22 C22            8.3457    -0.8936    -4.5394 C.ar    
  23 C23            8.4970    -0.8730    -3.1688 C.ar    
  24 C24            9.8494    -0.2111     1.4105 C.3     
  25 C25            9.1954    -2.5990     1.7456 C.3     
  26 C26           -0.7524    -2.8136     0.6028 C.3     
  27 O27            8.1193    -3.5336     1.6423 O.3     
  28 C28            8.4180    -4.8252     2.1758 C.3     
  29 N29           -1.0465    -4.2015     0.2372 N.pl3   
  30 Br30           8.9185    -1.7522    -7.1920 Br      
  31 N31           -1.8907    -4.5560    -0.6658 N.2     
  32 N32           -0.4916    -5.2311     0.7719 N.2     
  33 C33           -0.9838    -6.3133     0.2128 C.2     
  34 C34           -1.9071    -5.8678    -0.7359 C.2     
  35 C35            7.4187     1.1824    -0.5114 C.2     
  36 O36            8.5692     1.0963    -0.1299 O.2     
  37 O37            6.7990     2.3790    -0.5186 O.3     
  38 C38            0.9237    -0.5290    -3.5437 C.3     
  39 F39           -0.4513    -0.4767    -3.7961 F       
  40 F40            1.4393     0.7708    -3.4985 F       
  41 F41            1.5580    -1.2470    -4.5632 F       
  42 H42           -0.9132    -1.5551    -1.8114 H       
  43 H43            1.9000    -2.9197     1.0962 H       
  44 H44            4.8245    -3.1765    -2.1544 H       
  45 H45            7.0718    -3.3893    -1.1869 H       
  46 H46            4.9585     1.0590    -1.6181 H       
  47 H47            7.8309    -0.9378     1.6064 H       
  48 H48           10.9952    -3.1546    -2.8866 H       
  49 H49           10.7027    -3.1830    -5.3280 H       
  50 H50            7.6056    -0.2629    -5.0094 H       
  51 H51            7.8790    -0.2243    -2.5658 H       
  52 H52            9.4111     0.7857     1.3616 H       
  53 H53           10.2767    -0.3719     2.4003 H       
  54 H54           10.6326    -0.3009     0.6577 H       
  55 H55           10.0603    -2.9793     1.2020 H       
  56 H56            9.4574    -2.4610     2.7946 H       
  57 H57           -0.4601    -2.7684     1.6519 H       
  58 H58           -1.6401    -2.2008     0.4461 H       
  59 H59            9.2668    -5.2517     1.6412 H       
  60 H60            8.6639    -4.7333     3.2337 H       
  61 H61            7.5513    -5.4757     2.0594 H       
  62 H62           -0.7251    -7.3374     0.4382 H       
  63 H63           -2.5112    -6.4769    -1.3920 H       
  64 H64            7.3103     3.1400    -0.2112 H       
@<TRIPOS>BOND
   1    1    2 ar
   2    1    6 ar
   3    1   42 1
   4    2    3 ar
   5    2   26 1
   6    3    4 ar
   7    3   43 1
   8    4    5 ar
   9    5    6 ar
  10    5    7 1
  11    6   38 1
  12    7    8 1
  13    8    9 ar
  14    8   13 ar
  15    9   10 ar
  16    9   44 1
  17   10   11 ar
  18   10   45 1
  19   11   12 ar
  20   11   14 1
  21   12   13 ar
  22   12   35 1
  23   13   46 1
  24   14   15 am
  25   14   16 1
  26   15   17 2
  27   15   18 1
  28   16   24 1
  29   16   25 1
  30   16   47 1
  31   18   19 ar
  32   18   23 ar
  33   19   20 ar
  34   19   48 1
  35   20   21 ar
  36   20   49 1
  37   21   22 ar
  38   21   30 1
  39   22   23 ar
  40   22   50 1
  41   23   51 1
  42   24   52 1
  43   24   53 1
  44   24   54 1
  45   25   27 1
  46   25   55 1
  47   25   56 1
  48   26   29 1
  49   26   57 1
  50   26   58 1
  51   27   28 1
  52   28   59 1
  53   28   60 1
  54   28   61 1
  55   29   32 1
  56   29   31 1
  57   31   34 2
  58   32   33 2
  59   33   34 1
  60   33   62 1
  61   34   63 1
  62   35   36 2
  63   35   37 1
  64   37   64 1
  65   38   39 1
  66   38   40 1
  67   38   41 1

#	End of record

