#	Name: ASD01700010
#	Creating user name:	WinNT
#	Creation time:	15. 06. 2019 19:22

#	Modifying user name:	WinNT
#	Modification time:	15. 06. 2019 19:22

#	Program:	/corina/corina34_cracker 3.40 0067  02.08.2006

@<TRIPOS>MOLECULE
ASD01700010
  78   83    0    0    0
SMALL
NO_CHARGES


@<TRIPOS>ATOM
   1 C1             0.7303    -0.1224     1.5949 C.2     
   2 N2             1.5666    -1.0089     1.0195 N.am    
   3 C3             1.7595    -2.3561     1.5814 C.3     
   4 C4             2.3167    -0.6728    -0.1952 C.3     
   5 C5             2.2497    -1.8233    -1.1689 C.ar    
   6 C6             1.7654    -3.0634    -0.8109 C.ar    
   7 C7             1.2420    -3.3685     0.5609 C.3     
   8 C8             2.6994    -1.5981    -2.4640 C.ar    
   9 C9             2.6745    -2.6059    -3.4039 C.ar    
  10 C10            2.1926    -3.8682    -3.0478 C.ar    
  11 C11            1.7403    -4.0879    -1.7472 C.ar    
  12 Cl12           1.1406    -5.6533    -1.2961 Cl      
  13 Cl13           3.2375    -2.3089    -5.0190 Cl      
  14 C14            2.1620    -4.9608    -4.0412 C.2     
  15 N15            1.0372    -5.2018    -4.7434 N.am    
  16 O16            3.1515    -5.6427    -4.2254 O.2     
  17 C17            0.9706    -6.3524    -5.6477 C.3     
  18 C18            1.6533    -6.0103    -6.9469 C.2     
  19 C19           -0.4935    -6.7045    -5.9183 C.3     
  20 C20           -1.1392    -7.1822    -4.6431 C.ar    
  21 C21           -1.8433    -6.2954    -3.8507 C.ar    
  22 C22           -1.0319    -8.5089    -4.2689 C.ar    
  23 C23           -1.6240    -8.9470    -3.0994 C.ar    
  24 C24           -2.3232    -8.0586    -2.3036 C.ar    
  25 C25           -2.4356    -6.7337    -2.6808 C.ar    
  26 O26            2.1450    -4.9175    -7.1016 O.2     
  27 O27            1.7152    -6.9197    -7.9324 O.3     
  28 C28            2.3879    -6.5211    -9.1558 C.3     
  29 C29            2.3587    -7.6622   -10.1398 C.ar    
  30 C30            1.3077    -7.7808   -11.0297 C.ar    
  31 C31            1.2809    -8.8275   -11.9322 C.ar    
  32 C32            2.3054    -9.7554   -11.9451 C.ar    
  33 C33            3.3569    -9.6364   -11.0557 C.ar    
  34 C34            3.3859    -8.5872   -10.1561 C.ar    
  35 C35            0.6517     1.2591     1.0810 C.ar    
  36 O36            0.0369    -0.4620     2.5342 O.2     
  37 C37           -0.5757     1.9355     1.0853 C.ar    
  38 C38           -0.6586     3.2117     0.6133 C.ar    
  39 C39            0.4838     3.8487     0.1231 C.ar    
  40 C40            1.7220     3.1806     0.1133 C.ar    
  41 C41            1.7995     1.8857     0.5995 C.ar    
  42 C42            0.7505     5.1744    -0.4427 C.2     
  43 C43            2.0601     5.2010    -0.7342 C.2     
  44 O44            2.6312     4.0298    -0.4077 O.3     
  45 S45           -1.4883   -10.6380    -2.6230 S.o2    
  46 O46           -2.6359   -10.8682    -1.8172 O.2     
  47 O47           -1.3020   -11.3333    -3.8482 O.2     
  48 C48            0.0198   -10.7052    -1.6172 C.3     
  49 H49            2.8193    -2.5296     1.7682 H       
  50 H50            1.1998    -2.4513     2.5118 H       
  51 H51            1.8843     0.2164    -0.6540 H       
  52 H52            3.3572    -0.4768     0.0637 H       
  53 H53            1.5696    -4.3653     0.8560 H       
  54 H54            0.1525    -3.3407     0.5432 H       
  55 H55            3.0724    -0.6221    -2.7375 H       
  56 H56            0.2717    -4.6134    -4.6500 H       
  57 H57            1.4704    -7.2051    -5.1882 H       
  58 H58           -1.0183    -5.8213    -6.2824 H       
  59 H59           -0.5449    -7.4930    -6.6691 H       
  60 H60           -1.9305    -5.2600    -4.1451 H       
  61 H61           -0.4857    -9.2029    -4.8905 H       
  62 H62           -2.7862    -8.4011    -1.3899 H       
  63 H63           -2.9818    -6.0397    -2.0591 H       
  64 H64            1.8795    -5.6579    -9.5854 H       
  65 H65            3.4224    -6.2598    -8.9331 H       
  66 H66            0.5072    -7.0558   -11.0197 H       
  67 H67            0.4593    -8.9205   -12.6271 H       
  68 H68            2.2841   -10.5736   -12.6497 H       
  69 H69            4.1572   -10.3615   -11.0655 H       
  70 H70            4.2075    -8.4942    -9.4613 H       
  71 H71           -1.4595     1.4436     1.4638 H       
  72 H72           -1.6064     3.7295     0.6180 H       
  73 H73            2.7436     1.3613     0.5979 H       
  74 H74            0.0362     5.9700    -0.5947 H       
  75 H75            2.5796     6.0420    -1.1691 H       
  76 H76           -0.0888   -10.0471    -0.7551 H       
  77 H77            0.1834   -11.7273    -1.2756 H       
  78 H78            0.8709   -10.3817    -2.2164 H       
@<TRIPOS>BOND
   1    1    2 am
   2    1   35 1
   3    1   36 2
   4    2    3 1
   5    2    4 1
   6    3    7 1
   7    3   49 1
   8    3   50 1
   9    4    5 1
  10    4   51 1
  11    4   52 1
  12    5    6 ar
  13    5    8 ar
  14    6    7 1
  15    6   11 ar
  16    7   53 1
  17    7   54 1
  18    8    9 ar
  19    8   55 1
  20    9   10 ar
  21    9   13 1
  22   10   11 ar
  23   10   14 1
  24   11   12 1
  25   14   15 am
  26   14   16 2
  27   15   17 1
  28   15   56 1
  29   17   18 1
  30   17   19 1
  31   17   57 1
  32   18   26 2
  33   18   27 1
  34   19   20 1
  35   19   58 1
  36   19   59 1
  37   20   21 ar
  38   20   22 ar
  39   21   25 ar
  40   21   60 1
  41   22   23 ar
  42   22   61 1
  43   23   24 ar
  44   23   45 1
  45   24   25 ar
  46   24   62 1
  47   25   63 1
  48   27   28 1
  49   28   29 1
  50   28   64 1
  51   28   65 1
  52   29   30 ar
  53   29   34 ar
  54   30   31 ar
  55   30   66 1
  56   31   32 ar
  57   31   67 1
  58   32   33 ar
  59   32   68 1
  60   33   34 ar
  61   33   69 1
  62   34   70 1
  63   35   37 ar
  64   35   41 ar
  65   37   38 ar
  66   37   71 1
  67   38   39 ar
  68   38   72 1
  69   39   40 ar
  70   39   42 1
  71   40   41 ar
  72   40   44 1
  73   41   73 1
  74   42   43 2
  75   42   74 1
  76   43   44 1
  77   43   75 1
  78   45   46 2
  79   45   47 2
  80   45   48 1
  81   48   76 1
  82   48   77 1
  83   48   78 1

#	End of record

