#	Name: ASD01918221
#	Creating user name:	WinNT
#	Creation time:	15. 06. 2019 20:11

#	Modifying user name:	WinNT
#	Modification time:	15. 06. 2019 20:11

#	Program:	/corina/corina34_cracker 3.40 0067  02.08.2006

@<TRIPOS>MOLECULE
ASD01918221
  40   43    0    0    0
SMALL
NO_CHARGES


@<TRIPOS>ATOM
   1 C1             0.0749     1.3608    -0.0281 C.ar    
   2 C2             0.1753    -0.0318    -0.2743 C.ar    
   3 C3             1.4359    -0.6621    -0.1356 C.ar    
   4 N4             2.5062     0.0555     0.2227 N.ar    
   5 C5             2.4277     1.3442     0.4540 C.ar    
   6 C6             1.2297     2.0390     0.3396 C.ar    
   7 C7            -1.2179     2.0701    -0.1646 C.ar    
   8 C8            -2.2212     1.8862     0.7871 C.ar    
   9 C9            -3.4235     2.5495     0.6550 C.ar    
  10 C10           -3.6354     3.3965    -0.4198 C.ar    
  11 C11           -2.6431     3.5825    -1.3676 C.ar    
  12 C12           -1.4347     2.9291    -1.2421 C.ar    
  13 C13           -0.9430    -0.7882    -0.6489 C.ar    
  14 C14           -0.8077    -2.1245    -0.8767 C.ar    
  15 C15            0.4318    -2.7500    -0.7415 C.ar    
  16 C16            1.5395    -2.0421    -0.3788 C.ar    
  17 S17            1.1759     3.7708     0.6599 S.o2    
  18 C18            0.1956     4.0037     2.1054 C.ar    
  19 O19            2.4991     4.1561     1.0060 O.2     
  20 O20            0.4521     4.3552    -0.4143 O.2     
  21 C21           -1.1387     4.3447     1.9876 C.ar    
  22 C22            0.7598     3.8398     3.3565 C.ar    
  23 C23           -0.0097     4.0216     4.4919 C.ar    
  24 C24           -1.3438     4.3680     4.3748 C.ar    
  25 C25           -1.9089     4.5277     3.1223 C.ar    
  26 Cl26          -3.5845     4.9571     2.9743 Cl      
  27 Cl27          -5.1509     4.2281    -0.5798 Cl      
  28 Cl28           0.6988     3.8146     6.0631 Cl      
  29 F29            0.5366    -4.0768    -0.9738 F       
  30 H30            3.3199     1.8809     0.7409 H       
  31 H31           -2.0570     1.2255     1.6255 H       
  32 H32           -4.2010     2.4075     1.3909 H       
  33 H33           -2.8139     4.2440    -2.2041 H       
  34 H34           -0.6597     3.0785    -1.9793 H       
  35 H35           -1.9075    -0.3143    -0.7561 H       
  36 H36           -1.6704    -2.7067    -1.1650 H       
  37 H37            2.4925    -2.5402    -0.2785 H       
  38 H38           -1.5800     4.4686     1.0097 H       
  39 H39            1.8014     3.5693     3.4478 H       
  40 H40           -1.9449     4.5097     5.2608 H       
@<TRIPOS>BOND
   1    1    2 ar
   2    1    6 ar
   3    1    7 1
   4    2    3 ar
   5    2   13 ar
   6    3    4 ar
   7    3   16 ar
   8    4    5 ar
   9    5    6 ar
  10    5   30 1
  11    6   17 1
  12    7    8 ar
  13    7   12 ar
  14    8    9 ar
  15    8   31 1
  16    9   10 ar
  17    9   32 1
  18   10   11 ar
  19   10   27 1
  20   11   12 ar
  21   11   33 1
  22   12   34 1
  23   13   14 ar
  24   13   35 1
  25   14   15 ar
  26   14   36 1
  27   15   16 ar
  28   15   29 1
  29   16   37 1
  30   17   18 1
  31   17   19 2
  32   17   20 2
  33   18   22 ar
  34   18   21 ar
  35   21   25 ar
  36   21   38 1
  37   22   23 ar
  38   22   39 1
  39   23   24 ar
  40   23   28 1
  41   24   25 ar
  42   24   40 1
  43   25   26 1

#	End of record

