#	Name: ASD01209092
#	Creating user name:	WinNT
#	Creation time:	15. 06. 2019 19:10

#	Modifying user name:	WinNT
#	Modification time:	15. 06. 2019 19:10

#	Program:	/corina/corina34_cracker 3.40 0067  02.08.2006

@<TRIPOS>MOLECULE
ASD01209092
  67   69    0    0    0
SMALL
NO_CHARGES


@<TRIPOS>ATOM
   1 C1            -1.7247    -0.8652    -0.0566 C.3     
   2 C2             1.6611    -1.8781    -3.9797 C.ar    
   3 S3            -1.1968    -2.5346    -0.5311 S.o2    
   4 O4            -0.3906    -3.1110     0.4873 O.2     
   5 O5            -2.2786    -3.2555    -1.1048 O.2     
   6 C6             2.6125    -1.6596    -5.1277 C.3     
   7 C7             2.2176    -0.4132    -5.8771 C.2     
   8 N8             3.0039     0.0562    -6.8660 N.am    
   9 O9             1.1922     0.1675    -5.5903 O.2     
  10 C10            2.5566    -2.8619    -6.0724 C.3     
  11 C11            3.0205    -4.1163    -5.3293 C.3     
  12 C12            2.8119    -5.3592    -6.2121 C.3     
  13 C13            4.2052    -5.9849    -6.4286 C.3     
  14 C14            5.0386    -5.4827    -5.2235 C.3     
  15 C15            4.5334    -4.0300    -5.0403 C.3     
  16 C16            2.1383    -1.9080    -2.6826 C.ar    
  17 C17            1.2656    -2.1089    -1.6296 C.ar    
  18 C18           -0.0844    -2.2791    -1.8734 C.ar    
  19 C19           -0.5616    -2.2492    -3.1705 C.ar    
  20 C20            0.3104    -2.0431    -4.2231 C.ar    
  21 C21            2.6234     1.1917    -7.5796 C.ar    
  22 C22            1.6941     2.0691    -7.0331 C.ar    
  23 P23            3.5751     2.7507   -11.1066 P.3     
  24 O24            2.7476     2.1004   -12.1472 O.2     
  25 O25            5.0535     2.1132   -11.1206 O.3     
  26 O26            3.6690     4.3300   -11.4049 O.3     
  27 C27            5.8695     2.0656   -12.2927 C.3     
  28 C28            7.2051     1.3987   -11.9575 C.3     
  29 C29            4.1237     4.8611   -12.6512 C.3     
  30 C30            4.0881     6.3897   -12.5976 C.3     
  31 C31            1.3251     3.1927    -7.7522 C.ar    
  32 C32            1.9010     3.4002    -8.9978 C.ar    
  33 C33            2.8181     2.4866    -9.4794 C.ar    
  34 N34            3.1545     1.4273    -8.7690 N.ar    
  35 H35           -0.8547    -0.2801     0.2416 H       
  36 H36           -2.2131    -0.3841    -0.9039 H       
  37 H37           -2.4233    -0.9285     0.7776 H       
  38 H38            3.6261    -1.5465    -4.7432 H       
  39 H39            3.8346    -0.3961    -7.0812 H       
  40 H40            1.5333    -3.0033    -6.4203 H       
  41 H41            3.2095    -2.6833    -6.9268 H       
  42 H42            2.4670    -4.2236    -4.3965 H       
  43 H43            2.1577    -6.0701    -5.7073 H       
  44 H44            2.3800    -5.0688    -7.1698 H       
  45 H45            4.1402    -7.0730    -6.4206 H       
  46 H46            4.6393    -5.6347    -7.3651 H       
  47 H47            4.8309    -6.0789    -4.3349 H       
  48 H48            6.1030    -5.4949    -5.4580 H       
  49 H49            5.0205    -3.3640    -5.7525 H       
  50 H50            4.7080    -3.6914    -4.0190 H       
  51 H51            3.1930    -1.7751    -2.4921 H       
  52 H52            1.6386    -2.1330    -0.6163 H       
  53 H53           -1.6162    -2.3825    -3.3610 H       
  54 H54           -0.0624    -2.0197    -5.2365 H       
  55 H55            1.2655     1.8765    -6.0607 H       
  56 H56            5.3606     1.4911   -13.0667 H       
  57 H57            6.0494     3.0791   -12.6515 H       
  58 H58            7.7140     1.9733   -11.1836 H       
  59 H59            7.0253     0.3853   -11.5987 H       
  60 H60            7.8276     1.3625   -12.8516 H       
  61 H61            5.1447     4.5277   -12.8373 H       
  62 H62            3.4750     4.5104   -13.4539 H       
  63 H63            4.4350     6.7947   -13.5483 H       
  64 H64            3.0672     6.7231   -12.4115 H       
  65 H65            4.7369     6.7403   -11.7950 H       
  66 H66            0.6052     3.8919    -7.3532 H       
  67 H67            1.6345     4.2669    -9.5846 H       
@<TRIPOS>BOND
   1    1    3 1
   2    1   35 1
   3    1   36 1
   4    1   37 1
   5    2    6 1
   6    2   16 ar
   7    2   20 ar
   8    3    4 2
   9    3    5 2
  10    3   18 1
  11    6    7 1
  12    6   10 1
  13    6   38 1
  14    7    8 am
  15    7    9 2
  16    8   21 1
  17    8   39 1
  18   10   11 1
  19   10   40 1
  20   10   41 1
  21   11   12 1
  22   11   15 1
  23   11   42 1
  24   12   13 1
  25   12   43 1
  26   12   44 1
  27   13   14 1
  28   13   45 1
  29   13   46 1
  30   14   15 1
  31   14   47 1
  32   14   48 1
  33   15   49 1
  34   15   50 1
  35   16   17 ar
  36   16   51 1
  37   17   18 ar
  38   17   52 1
  39   18   19 ar
  40   19   20 ar
  41   19   53 1
  42   20   54 1
  43   21   22 ar
  44   21   34 ar
  45   22   31 ar
  46   22   55 1
  47   23   24 2
  48   23   25 1
  49   23   26 1
  50   23   33 1
  51   25   27 1
  52   26   29 1
  53   27   28 1
  54   27   56 1
  55   27   57 1
  56   28   58 1
  57   28   59 1
  58   28   60 1
  59   29   30 1
  60   29   61 1
  61   29   62 1
  62   30   63 1
  63   30   64 1
  64   30   65 1
  65   31   32 ar
  66   31   66 1
  67   32   33 ar
  68   32   67 1
  69   33   34 ar

#	End of record

