#	Name: ASD03091836
#	Creating user name:	WinNT
#	Creation time:	15. 06. 2019 20:31

#	Modifying user name:	WinNT
#	Modification time:	15. 06. 2019 20:31

#	Program:	/corina/corina34_cracker 3.40 0067  02.08.2006

@<TRIPOS>MOLECULE
ASD03091836
  49   53    0    0    0
SMALL
NO_CHARGES


@<TRIPOS>ATOM
   1 C1            -0.0186     1.5173     0.0104 C.3     
   2 C2             0.0021    -0.0041     0.0020 C.3     
   3 C3             0.5481    -0.5792     1.3071 C.3     
   4 C4            -0.1193     0.0714     2.5170 C.3     
   5 C5            -0.1321     1.5894     2.4149 C.3     
   6 C6             1.2690     2.1842     2.5212 C.3     
   7 C7             2.1262     1.8393     1.3070 C.3     
   8 C8             1.3870     2.1109     0.0002 C.3     
   9 N9            -0.7575     2.0284     1.1662 N.3     
  10 O10            0.2443    -1.9886     1.3347 O.3     
  11 C11            1.1061    -2.7915     2.0083 C.ar    
  12 C12            0.8732    -4.1642     2.0753 C.ar    
  13 C13            1.7788    -4.9439     2.7731 C.ar    
  14 C14            2.8719    -4.3054     3.3679 C.ar    
  15 N15            3.0108    -2.9917     3.2504 N.ar    
  16 N16            2.1715    -2.2727     2.5977 N.ar    
  17 C17            5.7355    -6.5892     5.5477 C.ar    
  18 C18            5.9040    -5.2051     5.4368 C.ar    
  19 C19            7.1011    -4.7490     6.1253 C.2     
  20 C20            7.7968    -5.6993     6.7167 C.2     
  21 S21            7.0541    -7.2711     6.4925 S.3     
  22 C22            4.9513    -4.4587     4.7143 C.ar    
  23 C23            3.8718    -5.0945     4.1277 C.ar    
  24 C24            3.7207    -6.4799     4.2498 C.ar    
  25 C25            4.6381    -7.2112     4.9418 C.ar    
  26 C26           -2.1862     1.7343     1.1074 C.3     
  27 H27           -0.5377     1.8592    -0.8991 H       
  28 H28           -1.0034    -0.3934    -0.1745 H       
  29 H29            0.6381    -0.3464    -0.8256 H       
  30 H30            1.6251    -0.4862     1.3565 H       
  31 H31           -1.1387    -0.3083     2.6183 H       
  32 H32            0.4326    -0.2196     3.4211 H       
  33 H33           -0.7326     1.9852     3.2493 H       
  34 H34            1.1908     3.2723     2.6103 H       
  35 H35            1.7532     1.8016     3.4252 H       
  36 H36            3.0136     2.5042     1.3292 H       
  37 H37            2.5075     0.8314     1.3540 H       
  38 H38            1.9529     1.6791    -0.8313 H       
  39 H39            1.3187     3.1918    -0.1580 H       
  40 H40            0.0114    -4.6059     1.5971 H       
  41 H41            1.6454    -6.0125     2.8561 H       
  42 H42            7.3976    -3.7108     6.1497 H       
  43 H43            8.7093    -5.5309     7.2693 H       
  44 H44            5.0645    -3.3890     4.6182 H       
  45 H45            2.8759    -6.9718     3.7907 H       
  46 H46            4.5131    -8.2803     5.0304 H       
  47 H47           -2.3338     0.6549     1.0720 H       
  48 H48           -2.6773     2.1393     1.9923 H       
  49 H49           -2.6144     2.1891     0.2141 H       
@<TRIPOS>BOND
   1    1    2 1
   2    1    8 1
   3    1    9 1
   4    1   27 1
   5    2    3 1
   6    2   28 1
   7    2   29 1
   8    3    4 1
   9    3   10 1
  10    3   30 1
  11    4    5 1
  12    4   31 1
  13    4   32 1
  14    5    6 1
  15    5    9 1
  16    5   33 1
  17    6    7 1
  18    6   34 1
  19    6   35 1
  20    7    8 1
  21    7   36 1
  22    7   37 1
  23    8   38 1
  24    8   39 1
  25    9   26 1
  26   10   11 1
  27   11   12 ar
  28   11   16 ar
  29   12   13 ar
  30   12   40 1
  31   13   14 ar
  32   13   41 1
  33   14   15 ar
  34   14   23 1
  35   15   16 ar
  36   17   18 ar
  37   17   21 1
  38   17   25 ar
  39   18   19 1
  40   18   22 ar
  41   19   20 2
  42   19   42 1
  43   20   21 1
  44   20   43 1
  45   22   23 ar
  46   22   44 1
  47   23   24 ar
  48   24   25 ar
  49   24   45 1
  50   25   46 1
  51   26   47 1
  52   26   48 1
  53   26   49 1

#	End of record

