#	Name: ASD01812515
#	Creating user name:	WinNT
#	Creation time:	15. 06. 2019 19:28

#	Modifying user name:	WinNT
#	Modification time:	15. 06. 2019 19:28

#	Program:	/corina/corina34_cracker 3.40 0067  02.08.2006

@<TRIPOS>MOLECULE
ASD01812515
  56   61    0    0    0
SMALL
NO_CHARGES


@<TRIPOS>ATOM
   1 C1            -0.0213     1.4560     0.0435 C.ar    
   2 C2            -0.0033    -0.0041     0.0521 C.ar    
   3 C3            -1.2103    -0.7006    -0.2006 C.ar    
   4 C4            -2.3974     0.0189    -0.4532 C.ar    
   5 C5            -2.4080     1.3730    -0.4594 C.ar    
   6 C6            -1.2404     2.1118    -0.2105 C.ar    
   7 C7            -1.2034    -2.1037    -0.1945 C.ar    
   8 C8            -0.0423    -2.7735     0.0530 C.ar    
   9 C9             1.1415    -2.0862     0.3008 C.ar    
  10 C10            1.1703    -0.7220     0.3029 C.ar    
  11 N11            1.0835     2.1834     0.2749 N.2     
  12 C12            1.0602     3.4850     0.2662 C.2     
  13 N13           -0.0649     4.2043     0.0262 N.am    
  14 C14           -1.2407     3.5794    -0.2155 C.2     
  15 C15           -3.6757    -0.7327    -0.7213 C.3     
  16 C16           -4.3341    -1.0869     0.5872 C.ar    
  17 C17           -4.0345    -2.2775     1.2193 C.ar    
  18 C18           -5.2436    -0.2175     1.1728 C.ar    
  19 C19           -5.8252    -0.5817     2.3749 C.ar    
  20 C20           -5.4811    -1.7976     2.9510 C.ar    
  21 N21           -4.6056    -2.5973     2.3649 N.ar    
  22 O22           -2.2605     4.2110    -0.4282 O.2     
  23 O23           -6.0438    -2.1659     4.1294 O.3     
  24 C24           -5.6487    -3.4281     4.6705 C.3     
  25 C25           -0.0100     5.6088     0.0342 C.2     
  26 C26            1.1027     6.3432     0.1227 C.2     
  27 C27            0.6749     7.7855    -0.1144 C.3     
  28 N28           -0.7837     7.7485    -0.1130 N.2     
  29 C29           -1.1599     6.5054    -0.0592 C.2     
  30 N30            2.4124     6.0207     0.3896 N.pl3   
  31 C31            3.0666     6.8778     1.4025 C.3     
  32 C32            2.7644     8.3464     1.1036 C.3     
  33 C33            1.2533     8.5948     1.0483 C.3     
  34 H34           -3.3330     1.8946    -0.6562 H       
  35 H35           -2.1148    -2.6510    -0.3848 H       
  36 H36           -0.0414    -3.8535     0.0571 H       
  37 H37            2.0487    -2.6392     0.4947 H       
  38 H38            2.0953    -0.1991     0.4962 H       
  39 H39            1.9798     4.0174     0.4594 H       
  40 H40           -4.3483    -0.1077    -1.3089 H       
  41 H41           -3.4517    -1.6450    -1.2740 H       
  42 H42           -3.3240    -2.9557     0.7701 H       
  43 H43           -5.4917     0.7221     0.7014 H       
  44 H44           -6.5369     0.0710     2.8585 H       
  45 H45           -5.9002    -4.2205     3.9655 H       
  46 H46           -4.5731    -3.4270     4.8473 H       
  47 H47           -6.1714    -3.5997     5.6115 H       
  48 H48            1.0468     8.1649    -1.0662 H       
  49 H49           -2.1890     6.1783    -0.0775 H       
  50 H50            2.8712     5.2886    -0.0513 H       
  51 H51            2.6879     6.6235     2.3924 H       
  52 H52            4.1441     6.7159     1.3738 H       
  53 H53            3.2007     8.9673     1.8860 H       
  54 H54            3.2098     8.6150     0.1457 H       
  55 H55            1.0653     9.6562     0.8866 H       
  56 H56            0.7910     8.2773     1.9829 H       
@<TRIPOS>BOND
   1    1    2 ar
   2    1   11 1
   3    1    6 ar
   4    2   10 ar
   5    2    3 ar
   6    3    4 ar
   7    3    7 ar
   8    4    5 ar
   9    4   15 1
  10    5    6 ar
  11    5   34 1
  12    6   14 1
  13    7    8 ar
  14    7   35 1
  15    8    9 ar
  16    8   36 1
  17    9   10 ar
  18    9   37 1
  19   10   38 1
  20   11   12 2
  21   12   13 1
  22   12   39 1
  23   13   14 am
  24   13   25 1
  25   14   22 2
  26   15   16 1
  27   15   40 1
  28   15   41 1
  29   16   18 ar
  30   16   17 ar
  31   17   21 ar
  32   17   42 1
  33   18   19 ar
  34   18   43 1
  35   19   20 ar
  36   19   44 1
  37   20   21 ar
  38   20   23 1
  39   23   24 1
  40   24   45 1
  41   24   46 1
  42   24   47 1
  43   25   26 2
  44   25   29 1
  45   26   30 1
  46   26   27 1
  47   27   28 1
  48   27   33 1
  49   27   48 1
  50   28   29 2
  51   29   49 1
  52   30   31 1
  53   30   50 1
  54   31   32 1
  55   31   51 1
  56   31   52 1
  57   32   33 1
  58   32   53 1
  59   32   54 1
  60   33   55 1
  61   33   56 1

#	End of record

