#	Name: ASD03080026
#	Creating user name:	WinNT
#	Creation time:	15. 06. 2019 20:26

#	Modifying user name:	WinNT
#	Modification time:	15. 06. 2019 20:26

#	Program:	/corina/corina34_cracker 3.40 0067  02.08.2006

@<TRIPOS>MOLECULE
ASD03080026
  29   31    0    0    0
SMALL
NO_CHARGES


@<TRIPOS>ATOM
   1 C1            -0.0168     1.3843     0.0097 C.ar    
   2 C2             0.0021    -0.0041     0.0020 C.ar    
   3 C3             1.2057    -0.6839    -0.0132 C.ar    
   4 C4             2.3968     0.0132    -0.0204 C.ar    
   5 C5             2.3878     1.4088    -0.0128 C.ar    
   6 C6             1.1723     2.0935     0.0021 C.ar    
   7 O7             3.8039     3.4933    -0.0136 O.3     
   8 N8             4.9814     3.7835    -0.0217 N.2     
   9 C9             5.7162     2.7011    -0.0339 C.2     
  10 N10            4.8770     1.6444    -0.0330 N.2     
  11 C11            3.6618     2.1589    -0.0200 C.2     
  12 C12            7.8620     1.4201    -0.0598 C.ar    
  13 C13            7.1996     2.6456    -0.0469 C.ar    
  14 C14            7.9539     3.8216    -0.0469 C.ar    
  15 C15            9.3345     3.7162    -0.0597 C.ar    
  16 C16            9.9169     2.4623    -0.0720 C.ar    
  17 N17            9.1781     1.3694    -0.0717 N.ar    
  18 N18           -1.2712    -0.7589     0.0107 N.pl3   
  19 O19           -1.2572    -1.9768     0.0040 O.2     
  20 O20           -2.3329    -0.1622     0.0244 O.2     
  21 O21           -1.2030     2.0475     0.0189 O.3     
  22 H22            1.2139    -1.7638    -0.0191 H       
  23 H23            3.3354    -0.5210    -0.0315 H       
  24 H24            1.1590     3.1734     0.0077 H       
  25 H25            7.2912     0.5033    -0.0554 H       
  26 H26            7.4724     4.7882    -0.0374 H       
  27 H27            9.9496     4.6039    -0.0605 H       
  28 H28           10.9934     2.3763    -0.0824 H       
  29 H29           -1.5421     2.2346     0.9049 H       
@<TRIPOS>BOND
   1    1    2 ar
   2    1    6 ar
   3    1   21 1
   4    2    3 ar
   5    2   18 1
   6    3    4 ar
   7    3   22 1
   8    4    5 ar
   9    4   23 1
  10    5    6 ar
  11    5   11 1
  12    6   24 1
  13    7    8 1
  14    7   11 1
  15    8    9 2
  16    9   10 1
  17    9   13 1
  18   10   11 2
  19   12   13 ar
  20   12   17 ar
  21   12   25 1
  22   13   14 ar
  23   14   15 ar
  24   14   26 1
  25   15   16 ar
  26   15   27 1
  27   16   17 ar
  28   16   28 1
  29   18   19 2
  30   18   20 2
  31   21   29 1

#	End of record

