#	Name: ASD01350063
#	Creating user name:	WinNT
#	Creation time:	15. 06. 2019 19:16

#	Modifying user name:	WinNT
#	Modification time:	15. 06. 2019 19:16

#	Program:	/corina/corina34_cracker 3.40 0067  02.08.2006

@<TRIPOS>MOLECULE
ASD01350063
  69   70    0    0    0
SMALL
NO_CHARGES


@<TRIPOS>ATOM
   1 C1            -0.6152     0.8073    -1.0011 C.3     
   2 C2            -0.6222    -0.7081    -0.7899 C.3     
   3 C3             0.3029    -1.0649     0.3754 C.3     
   4 C4             0.2959    -2.5802     0.5866 C.3     
   5 C5             1.2209    -2.9370     1.7519 C.3     
   6 C6             1.2139    -4.4524     1.9631 C.3     
   7 C7             2.1389    -4.8092     3.1283 C.3     
   8 C8             2.1319    -6.3245     3.3395 C.3     
   9 C9             3.0570    -6.6813     4.5048 C.3     
  10 C10            3.0501    -8.1739     4.7128 C.2     
  11 O11            2.3720    -8.8825     3.9993 O.2     
  12 N12            3.7974    -8.7213     5.6918 N.am    
  13 C13            3.7122   -10.0936     5.9529 C.ar    
  14 C14            2.5319   -10.6345     6.4487 C.ar    
  15 C15            2.4420   -11.9898     6.7085 C.ar    
  16 C16            3.5235   -12.8144     6.4777 C.ar    
  17 C17            4.7148   -12.2807     5.9794 C.ar    
  18 C18            4.8030   -10.9139     5.7116 C.ar    
  19 C19            5.8751   -13.1613     5.7311 C.2     
  20 O20            6.7101   -12.8480     4.9052 O.2     
  21 C21            6.0203   -14.4226     6.4867 C.ar    
  22 C22            6.8557   -15.4348     6.0085 C.ar    
  23 C23            6.9869   -16.6094     6.7193 C.ar    
  24 C24            6.2932   -16.7865     7.9036 C.ar    
  25 C25            5.4634   -15.7881     8.3830 C.ar    
  26 C26            5.3273   -14.6061     7.6855 C.ar    
  27 C27            4.6989    -7.8798     6.4826 C.3     
  28 C28            3.9526    -7.3409     7.7047 C.3     
  29 N29            4.8566    -6.4971     8.4977 N.3     
  30 C30            4.1201    -5.7738     9.5428 C.3     
  31 C31            5.9469    -7.2931     9.0770 C.3     
  32 H32            0.3985     1.1379    -1.2275 H       
  33 H33           -1.2742     1.0614    -1.8313 H       
  34 H34           -0.9649     1.3020    -0.0950 H       
  35 H35           -1.6359    -1.0387    -0.5635 H       
  36 H36           -0.2725    -1.2028    -1.6960 H       
  37 H37            1.3165    -0.7343     0.1490 H       
  38 H38           -0.0468    -0.5701     1.2815 H       
  39 H39           -0.7178    -2.9108     0.8130 H       
  40 H40            0.6455    -3.0750    -0.3195 H       
  41 H41            2.2346    -2.6064     1.5255 H       
  42 H42            0.8712    -2.4423     2.6580 H       
  43 H43            0.2002    -4.7830     2.1895 H       
  44 H44            1.5636    -4.9471     1.0569 H       
  45 H45            3.1526    -4.4785     2.9019 H       
  46 H46            1.7893    -4.3144     4.0345 H       
  47 H47            1.1183    -6.6551     3.5659 H       
  48 H48            2.4816    -6.8192     2.4334 H       
  49 H49            4.0707    -6.3507     4.2784 H       
  50 H50            2.7073    -6.1865     5.4109 H       
  51 H51            1.6819    -9.9940     6.6321 H       
  52 H52            1.5220   -12.4040     7.0937 H       
  53 H53            3.4496   -13.8722     6.6825 H       
  54 H54            5.7209   -10.4954     5.3259 H       
  55 H55            7.3974   -15.2980     5.0842 H       
  56 H56            7.6322   -17.3930     6.3505 H       
  57 H57            6.3996   -17.7084     8.4561 H       
  58 H58            4.9248   -15.9331     9.3078 H       
  59 H59            4.6797   -13.8276     8.0610 H       
  60 H60            5.5537    -8.4712     6.8106 H       
  61 H61            5.0465    -7.0462     5.8724 H       
  62 H62            3.0978    -6.7494     7.3768 H       
  63 H63            3.6050    -8.1745     8.3149 H       
  64 H64            3.6366    -6.4892    10.2079 H       
  65 H65            4.8131    -5.1568    10.1149 H       
  66 H66            3.3642    -5.1385     9.0812 H       
  67 H67            6.5191    -7.7624     8.2766 H       
  68 H68            6.6012    -6.6439     9.6589 H       
  69 H69            5.5295    -8.0636     9.7252 H       
@<TRIPOS>BOND
   1    1    2 1
   2    1   32 1
   3    1   33 1
   4    1   34 1
   5    2    3 1
   6    2   35 1
   7    2   36 1
   8    3    4 1
   9    3   37 1
  10    3   38 1
  11    4    5 1
  12    4   39 1
  13    4   40 1
  14    5    6 1
  15    5   41 1
  16    5   42 1
  17    6    7 1
  18    6   43 1
  19    6   44 1
  20    7    8 1
  21    7   45 1
  22    7   46 1
  23    8    9 1
  24    8   47 1
  25    8   48 1
  26    9   10 1
  27    9   49 1
  28    9   50 1
  29   10   11 2
  30   10   12 am
  31   12   13 1
  32   12   27 1
  33   13   14 ar
  34   13   18 ar
  35   14   15 ar
  36   14   51 1
  37   15   16 ar
  38   15   52 1
  39   16   17 ar
  40   16   53 1
  41   17   18 ar
  42   17   19 1
  43   18   54 1
  44   19   20 2
  45   19   21 1
  46   21   22 ar
  47   21   26 ar
  48   22   23 ar
  49   22   55 1
  50   23   24 ar
  51   23   56 1
  52   24   25 ar
  53   24   57 1
  54   25   26 ar
  55   25   58 1
  56   26   59 1
  57   27   28 1
  58   27   60 1
  59   27   61 1
  60   28   29 1
  61   28   62 1
  62   28   63 1
  63   29   30 1
  64   29   31 1
  65   30   64 1
  66   30   65 1
  67   30   66 1
  68   31   67 1
  69   31   68 1
  70   31   69 1

#	End of record

