#	Name: ASD02398002
#	Creating user name:	WinNT
#	Creation time:	15. 06. 2019 20:20

#	Modifying user name:	WinNT
#	Modification time:	15. 06. 2019 20:20

#	Program:	/corina/corina34_cracker 3.40 0067  02.08.2006

@<TRIPOS>MOLECULE
ASD02398002
  48   50    0    0    0
SMALL
NO_CHARGES


@<TRIPOS>ATOM
   1 C1             0.5149     0.9049    -0.9861 C.ar    
   2 C2             0.1298     0.1230     0.1018 C.ar    
   3 C3             0.9081     0.1105     1.2577 C.ar    
   4 C4             2.0568     0.8714     1.3223 C.ar    
   5 C5             2.4378     1.6490     0.2374 C.ar    
   6 C6             1.6643     1.6634    -0.9157 C.ar    
   7 C7             2.8988     0.8588     2.5721 C.3     
   8 C8             2.5105     2.0197     3.4510 C.2     
   9 O9             1.6395     2.7794     3.0987 O.2     
  10 C10           -1.1065    -0.6939     0.0294 C.ar    
  11 C11           -1.2661    -1.6321    -0.9882 C.ar    
  12 C12           -2.4185    -2.3894    -1.0508 C.ar    
  13 C13           -3.4139    -2.2178    -0.1061 C.ar    
  14 C14           -3.2610    -1.2874     0.9063 C.ar    
  15 C15           -2.1102    -0.5296     0.9824 C.ar    
  16 C16           -1.9451     0.4836     2.0856 C.3     
  17 C17           -2.2285     1.8841     1.5385 C.3     
  18 C18           -3.6816     2.0077     1.1346 C.2     
  19 O19           -4.2874     2.9314     1.8941 O.3     
  20 C20           -3.2931     3.8250     2.4769 C.3     
  21 C21           -2.0347     2.9435     2.6462 C.3     
  22 O22            3.1324     2.2099     4.6253 O.3     
  23 O23           -4.2158     1.3694     0.2587 O.2     
  24 O24            3.5698     2.3974     0.3039 O.3     
  25 C25            3.9027     3.1740    -0.8486 C.3     
  26 C26           -4.6699    -3.0472    -0.1799 C.3     
  27 F27           -4.5954    -3.9096    -1.2790 F       
  28 F28           -4.8030    -3.7975     0.9933 F       
  29 F29           -5.7775    -2.2045    -0.3227 F       
  30 H30           -0.0839     0.9131    -1.8848 H       
  31 H31            0.6120    -0.4940     2.1023 H       
  32 H32            1.9632     2.2694    -1.7582 H       
  33 H33            2.7360    -0.0749     3.1105 H       
  34 H34            3.9513     0.9437     2.3019 H       
  35 H35           -0.4897    -1.7664    -1.7269 H       
  36 H36           -2.5432    -3.1170    -1.8391 H       
  37 H37           -4.0418    -1.1570     1.6410 H       
  38 H38           -2.6440     0.2602     2.8917 H       
  39 H39           -0.9249     0.4422     2.4673 H       
  40 H40           -1.5792     2.0975     0.6894 H       
  41 H41           -3.0873     4.6567     1.8031 H       
  42 H42           -3.6330     4.1932     3.4449 H       
  43 H43           -2.0172     2.4767     3.6311 H       
  44 H44           -1.1281     3.5237     2.4742 H       
  45 H45            2.8490     2.9680     5.1544 H       
  46 H46            4.0382     2.5135    -1.7050 H       
  47 H47            3.0976     3.8786    -1.0569 H       
  48 H48            4.8263     3.7222    -0.6629 H       
@<TRIPOS>BOND
   1    1    2 ar
   2    1    6 ar
   3    1   30 1
   4    2    3 ar
   5    2   10 1
   6    3    4 ar
   7    3   31 1
   8    4    5 ar
   9    4    7 1
  10    5    6 ar
  11    5   24 1
  12    6   32 1
  13    7    8 1
  14    7   33 1
  15    7   34 1
  16    8    9 2
  17    8   22 1
  18   10   11 ar
  19   10   15 ar
  20   11   12 ar
  21   11   35 1
  22   12   13 ar
  23   12   36 1
  24   13   14 ar
  25   13   26 1
  26   14   15 ar
  27   14   37 1
  28   15   16 1
  29   16   17 1
  30   16   38 1
  31   16   39 1
  32   17   18 1
  33   17   21 1
  34   17   40 1
  35   18   19 1
  36   18   23 2
  37   19   20 1
  38   20   21 1
  39   20   41 1
  40   20   42 1
  41   21   43 1
  42   21   44 1
  43   22   45 1
  44   24   25 1
  45   25   46 1
  46   25   47 1
  47   25   48 1
  48   26   27 1
  49   26   28 1
  50   26   29 1

#	End of record

