#	Name: ASD01411115
#	Creating user name:	WinNT
#	Creation time:	15. 06. 2019 19:19

#	Modifying user name:	WinNT
#	Modification time:	15. 06. 2019 19:19

#	Program:	/corina/corina34_cracker 3.40 0067  02.08.2006

@<TRIPOS>MOLECULE
ASD01411115
  58   61    0    0    0
SMALL
NO_CHARGES


@<TRIPOS>ATOM
   1 C1            -0.3343     1.4192    -0.0296 C.3     
   2 C2            -0.6243    -0.0788     0.1429 C.3     
   3 O3             1.0763     1.6430     0.0452 O.3     
   4 C4             0.1585    -0.5664     1.3363 C.2     
   5 C5             1.6332     1.4721     1.3546 C.3     
   6 C6             1.1809     0.1332     1.8881 C.2     
   7 C7             0.0129    -1.7800     2.0982 C.ar    
   8 C8             1.1384     2.5889     2.2759 C.3     
   9 N9             1.6919    -0.5570     2.9491 N.pl3   
  10 C10           -0.8681    -2.8785     1.9961 C.ar    
  11 C11            1.0067    -1.7290     3.1101 C.ar    
  12 C12           -0.7055    -3.9002     2.9392 C.ar    
  13 C13            1.1388    -2.7647     4.0312 C.ar    
  14 C14            0.2657    -3.8362     3.9176 C.ar    
  15 C15            1.5915     2.3056     3.7095 C.3     
  16 C16            3.1607     1.5077     1.2746 C.3     
  17 N17            3.7215     1.4708     2.6275 N.am    
  18 S18            5.0783     2.3500     2.9856 S.o2    
  19 O19            6.0401     2.0267     1.9908 O.2     
  20 C20            4.6748     4.0495     2.7540 C.ar    
  21 O21            5.3116     2.1790     4.3769 O.2     
  22 C22            4.2743     4.8178     3.8310 C.ar    
  23 C23            3.9576     6.1511     3.6493 C.ar    
  24 C24            4.0420     6.7161     2.3905 C.ar    
  25 C25            4.4434     5.9480     1.3136 C.ar    
  26 C26            4.7642     4.6158     1.4961 C.ar    
  27 C27            2.1898    -2.7228     5.1103 C.3     
  28 C28            0.9577     3.3271     4.6560 C.3     
  29 C29            3.6508     0.3149     0.4949 C.2     
  30 O30            4.3925    -0.4841     1.0158 O.2     
  31 O31            3.2634     0.1400    -0.7783 O.3     
  32 C32           -1.8758    -2.9440     0.9809 C.1     
  33 N33           -2.6753    -2.9960     0.1755 N.1     
  34 H34           -0.7041     1.7516    -0.9996 H       
  35 H35           -0.8336     1.9794     0.7610 H       
  36 H36           -1.6900    -0.2311     0.3134 H       
  37 H37           -0.3115    -0.6203    -0.7498 H       
  38 H38            1.5516     3.5420     1.9459 H       
  39 H39            0.0498     2.6332     2.2409 H       
  40 H40            2.4299    -0.2609     3.5046 H       
  41 H41           -1.3573    -4.7605     2.9004 H       
  42 H42            0.3490    -4.6513     4.6212 H       
  43 H43            1.2800     1.3015     3.9973 H       
  44 H44            2.6773     2.3801     3.7688 H       
  45 H45            3.4771     2.4233     0.7750 H       
  46 H46            3.2981     0.9313     3.3135 H       
  47 H47            4.2084     4.3763     4.8145 H       
  48 H48            3.6440     6.7512     4.4907 H       
  49 H49            3.7939     7.7576     2.2484 H       
  50 H50            4.5090     6.3894     0.3301 H       
  51 H51            5.0778     4.0157     0.6547 H       
  52 H52            1.7552    -2.3205     6.0254 H       
  53 H53            2.5597    -3.7311     5.2966 H       
  54 H54            3.0147    -2.0867     4.7896 H       
  55 H55            1.2805     3.1253     5.6773 H       
  56 H56            1.2692     4.3312     4.3681 H       
  57 H57           -0.1281     3.2526     4.5967 H       
  58 H58            3.6039    -0.6399    -1.2376 H       
@<TRIPOS>BOND
   1    1    2 1
   2    1    3 1
   3    1   34 1
   4    1   35 1
   5    2    4 1
   6    2   36 1
   7    2   37 1
   8    3    5 1
   9    4    6 2
  10    4    7 1
  11    5    8 1
  12    5   16 1
  13    5    6 1
  14    6    9 1
  15    7   10 ar
  16    7   11 ar
  17    8   15 1
  18    8   38 1
  19    8   39 1
  20    9   11 1
  21    9   40 1
  22   10   12 ar
  23   10   32 1
  24   11   13 ar
  25   12   14 ar
  26   12   41 1
  27   13   14 ar
  28   13   27 1
  29   14   42 1
  30   15   28 1
  31   15   43 1
  32   15   44 1
  33   16   17 1
  34   16   29 1
  35   16   45 1
  36   17   18 am
  37   17   46 1
  38   18   19 2
  39   18   20 1
  40   18   21 2
  41   20   22 ar
  42   20   26 ar
  43   22   23 ar
  44   22   47 1
  45   23   24 ar
  46   23   48 1
  47   24   25 ar
  48   24   49 1
  49   25   26 ar
  50   25   50 1
  51   26   51 1
  52   27   52 1
  53   27   53 1
  54   27   54 1
  55   28   55 1
  56   28   56 1
  57   28   57 1
  58   29   30 2
  59   29   31 1
  60   31   58 1
  61   32   33 3

#	End of record

