#	Name: ASD01811960
#	Creating user name:	WinNT
#	Creation time:	15. 06. 2019 19:27

#	Modifying user name:	WinNT
#	Modification time:	15. 06. 2019 19:27

#	Program:	/corina/corina34_cracker 3.40 0067  02.08.2006

@<TRIPOS>MOLECULE
ASD01811960
  39   41    0    0    0
SMALL
NO_CHARGES


@<TRIPOS>ATOM
   1 C1            -0.1133     1.1798     0.2905 C.ar    
   2 C2            -0.0200    -0.2029     0.2822 C.ar    
   3 C3             1.2116    -0.8095     0.1764 C.ar    
   4 C4             2.3794    -0.0384     0.0762 C.ar    
   5 C5             2.2820     1.3520     0.0828 C.ar    
   6 C6             1.0247     1.9497     0.1919 C.ar    
   7 C7             3.6613    -0.7527    -0.0299 C.2     
   8 N8             4.7482    -0.4060     0.5645 N.2     
   9 C9             4.8149     0.7751     1.4242 C.3     
  10 C10            4.5488     1.9994     0.5913 C.2     
  11 N11            3.3794     2.1922    -0.0161 N.am    
  12 S12            5.7000     3.0975     0.4312 S.2     
  13 C13            3.7033    -1.9612    -0.8841 C.ar    
  14 C14            3.9352    -3.2135    -0.3154 C.ar    
  15 C15            3.9733    -4.3360    -1.1164 C.ar    
  16 C16            3.7821    -4.2232    -2.4823 C.ar    
  17 C17            3.5520    -2.9858    -3.0548 C.ar    
  18 C18            3.5050    -1.8533    -2.2632 C.ar    
  19 Cl19          -1.4561    -1.1704     0.4060 Cl      
  20 C20            3.7600     0.6664     2.5270 C.3     
  21 C21            4.0239    -0.5873     3.3634 C.3     
  22 C22            3.8316     1.9030     3.4250 C.3     
  23 F23            3.2802    -0.6443    -2.8227 F       
  24 H24           -1.0802     1.6544     0.3698 H       
  25 H25            1.2792    -1.8873     0.1707 H       
  26 H26            0.9436     3.0266     0.1982 H       
  27 H27            5.8066     0.8460     1.8709 H       
  28 H28            3.2890     2.9826    -0.5711 H       
  29 H29            4.0851    -3.3042     0.7503 H       
  30 H30            4.1532    -5.3057    -0.6762 H       
  31 H31            3.8130    -5.1057    -3.1040 H       
  32 H32            3.4042    -2.9045    -4.1216 H       
  33 H33            2.7693     0.6010     2.0770 H       
  34 H34            5.0146    -0.5219     3.8134 H       
  35 H35            3.2724    -0.6647     4.1491 H       
  36 H36            3.9729    -1.4683     2.7237 H       
  37 H37            4.8222     1.9684     3.8750 H       
  38 H38            3.6435     2.7962     2.8291 H       
  39 H39            3.0801     1.8256     4.2107 H       
@<TRIPOS>BOND
   1    1    2 ar
   2    1    6 ar
   3    1   24 1
   4    2    3 ar
   5    2   19 1
   6    3    4 ar
   7    3   25 1
   8    4    5 ar
   9    4    7 1
  10    5    6 ar
  11    5   11 1
  12    6   26 1
  13    7    8 2
  14    7   13 1
  15    8    9 1
  16    9   10 1
  17    9   20 1
  18    9   27 1
  19   10   11 am
  20   10   12 2
  21   11   28 1
  22   13   14 ar
  23   13   18 ar
  24   14   15 ar
  25   14   29 1
  26   15   16 ar
  27   15   30 1
  28   16   17 ar
  29   16   31 1
  30   17   18 ar
  31   17   32 1
  32   18   23 1
  33   20   21 1
  34   20   22 1
  35   20   33 1
  36   21   34 1
  37   21   35 1
  38   21   36 1
  39   22   37 1
  40   22   38 1
  41   22   39 1

#	End of record

