#	Name: ASD01883478
#	Creating user name:	WinNT
#	Creation time:	15. 06. 2019 19:46

#	Modifying user name:	WinNT
#	Modification time:	15. 06. 2019 19:46

#	Program:	/corina/corina34_cracker 3.40 0067  02.08.2006

@<TRIPOS>MOLECULE
ASD01883478
  64   66    0    0    0
SMALL
NO_CHARGES


@<TRIPOS>ATOM
   1 F1             0.5153     7.2930    -1.8085 F       
   2 N2            -0.0080     1.3271     0.0354 N.am    
   3 C3            -0.3623     0.6471    -1.0708 C.2     
   4 C4            -1.5938    -0.0487    -1.1070 C.2     
   5 C5            -2.4239    -0.0108     0.0261 C.2     
   6 C6            -1.9981     0.7175     1.1524 C.2     
   7 C7            -0.8092     1.3586     1.1319 C.2     
   8 O8             0.3768     0.6309    -2.0406 O.2     
   9 C9            -1.9868    -0.7769    -2.2757 C.1     
  10 N10           -2.2985    -1.3546    -3.2029 N.1     
  11 N11           -3.6309    -0.6732     0.0341 N.pl3   
  12 C12           -4.8919     0.0702     0.1608 C.3     
  13 C13           -5.6944    -0.5155     1.3268 C.3     
  14 C14           -5.8708    -2.0207     1.1144 C.3     
  15 C15           -4.4985    -2.6976     1.0843 C.3     
  16 C16           -3.6827    -2.1362    -0.0901 C.3     
  17 C17            1.2701     2.0427     0.0594 C.3     
  18 C18            1.0676     3.4497    -0.4412 C.ar    
  19 C19            0.7492     4.4598     0.4473 C.ar    
  20 C20            0.5637     5.7504    -0.0105 C.ar    
  21 C21            0.6969     6.0317    -1.3597 C.ar    
  22 C22            1.0158     5.0192    -2.2486 C.ar    
  23 C23            1.2060     3.7303    -1.7877 C.ar    
  24 N24           -6.6684    -2.5800     2.2139 N.3     
  25 C25           -7.3527    -3.8105     1.7949 C.3     
  26 C26           -8.1590    -4.3539     2.9463 C.ar    
  27 C27           -9.4714    -3.9574     3.1183 C.ar    
  28 C28          -10.2120    -4.4569     4.1765 C.ar    
  29 C29           -9.6364    -5.3530     5.0608 C.ar    
  30 C30           -8.3234    -5.7482     4.8868 C.ar    
  31 C31           -7.5869    -5.2533     3.8270 C.ar    
  32 F32          -11.4952    -4.0696     4.3459 F       
  33 H33           -2.6200     0.7608     2.0343 H       
  34 H34           -0.4930     1.9144     2.0022 H       
  35 H35           -4.6785     1.1212     0.3555 H       
  36 H36           -5.4656    -0.0236    -0.7613 H       
  37 H37           -5.1602    -0.3399     2.2606 H       
  38 H38           -6.6729    -0.0373     1.3715 H       
  39 H39           -6.3831    -2.1964     0.1685 H       
  40 H40           -3.9756    -2.5016     2.0204 H       
  41 H41           -4.6258    -3.7726     0.9564 H       
  42 H42           -4.1593    -2.4118    -1.0309 H       
  43 H43           -2.6709    -2.5405    -0.0585 H       
  44 H44            1.6512     2.0716     1.0802 H       
  45 H45            1.9865     1.5287    -0.5814 H       
  46 H46            0.6450     4.2401     1.4996 H       
  47 H47            0.3146     6.5393     0.6837 H       
  48 H48            1.1199     5.2374    -3.3012 H       
  49 H49            1.4548     2.9403    -2.4809 H       
  50 H50           -6.0962    -2.7440     3.0287 H       
  51 H51           -8.0162    -3.5905     0.9586 H       
  52 H52           -6.6138    -4.5506     1.4876 H       
  53 H53           -9.9193    -3.2579     2.4280 H       
  54 H54          -10.2130    -5.7429     5.8866 H       
  55 H55           -7.8742    -6.4473     5.5766 H       
  56 H56           -6.5611    -5.5630     3.6915 H       
  57 C57            9.3526    13.5011    12.0139 C.2     
  58 O58            9.3690    12.2930    12.0072 O.2     
  59 O59           10.5058    14.1880    12.0065 O.3     
  60 C60            8.0374    14.2368    12.0241 C.3     
  61 F61            6.9865    13.3133    12.0241 F       
  62 F62            7.9578    15.0338    13.1711 F       
  63 F63            7.9470    15.0462    10.8866 F       
  64 H64           11.3238    13.6724    11.9960 H       
@<TRIPOS>BOND
   1    1   21 1
   2    2    3 am
   3    2   17 1
   4    2    7 1
   5    3    4 1
   6    3    8 2
   7    4    5 2
   8    4    9 1
   9    5    6 1
  10    5   11 1
  11    6    7 2
  12    6   33 1
  13    7   34 1
  14    9   10 3
  15   11   12 1
  16   11   16 1
  17   12   13 1
  18   12   35 1
  19   12   36 1
  20   13   14 1
  21   13   37 1
  22   13   38 1
  23   14   15 1
  24   14   24 1
  25   14   39 1
  26   15   16 1
  27   15   40 1
  28   15   41 1
  29   16   42 1
  30   16   43 1
  31   17   18 1
  32   17   44 1
  33   17   45 1
  34   18   19 ar
  35   18   23 ar
  36   19   20 ar
  37   19   46 1
  38   20   21 ar
  39   20   47 1
  40   21   22 ar
  41   22   23 ar
  42   22   48 1
  43   23   49 1
  44   24   25 1
  45   24   50 1
  46   25   26 1
  47   25   51 1
  48   25   52 1
  49   26   27 ar
  50   26   31 ar
  51   27   28 ar
  52   27   53 1
  53   28   29 ar
  54   28   32 1
  55   29   30 ar
  56   29   54 1
  57   30   31 ar
  58   30   55 1
  59   31   56 1
  60   57   58 2
  61   57   59 1
  62   57   60 1
  63   59   64 1
  64   60   61 1
  65   60   62 1
  66   60   63 1

#	End of record

