#	Name: ASD01916999
#	Creating user name:	WinNT
#	Creation time:	15. 06. 2019 20:08

#	Modifying user name:	WinNT
#	Modification time:	15. 06. 2019 20:08

#	Program:	/corina/corina34_cracker 3.40 0067  02.08.2006

@<TRIPOS>MOLECULE
ASD01916999
  59   63    0    0    0
SMALL
NO_CHARGES


@<TRIPOS>ATOM
   1 C1            -0.2661     1.4508     1.0817 C.ar    
   2 C2            -0.3442     0.1686     1.6009 C.ar    
   3 C3             0.8093    -0.5072     1.9645 C.ar    
   4 C4             2.0414     0.0946     1.8109 C.ar    
   5 C5             2.1245     1.3838     1.2887 C.ar    
   6 C6             0.9619     2.0599     0.9243 C.ar    
   7 C7             3.4475     2.0352     1.1221 C.2     
   8 N8             4.6277     1.4890     1.4351 N.2     
   9 N9             3.6499     3.2414     0.6373 N.2     
  10 N10            5.0367     3.4613     0.6549 N.pl3   
  11 C11            5.5960     2.3376     1.1610 C.2     
  12 C12            7.0419     2.1042     1.3703 C.ar    
  13 C13            5.7395     4.6672     0.2096 C.3     
  14 C14            5.8281     5.6473     1.3509 C.2     
  15 O15            5.3513     5.3662     2.4300 O.2     
  16 N16            6.4374     6.8362     1.1724 N.am    
  17 C17            6.5350     7.8071     2.2728 C.3     
  18 C18            7.9968     8.2473     2.4054 C.3     
  19 N19            8.4788     8.7317     1.1050 N.3     
  20 C20            8.4649     7.6612     0.0991 C.3     
  21 C21            7.0276     7.1945    -0.1262 C.3     
  22 C22            9.7464     9.2905     1.2203 C.ar    
  23 C23            7.9217     3.1845     1.4451 C.ar    
  24 N24           10.6306     8.7473     2.0430 N.ar    
  25 C25           10.0766    10.4117     0.4663 C.ar    
  26 C26           11.3417    10.9575     0.5909 C.ar    
  27 C27           12.2371    10.3613     1.4686 C.ar    
  28 C28           11.8441     9.2464     2.1819 C.ar    
  29 F29           -1.5486    -0.4241     1.7534 F       
  30 C30            9.2687     2.9617     1.6403 C.ar    
  31 C31            9.7488     1.6673     1.7618 C.ar    
  32 C32            8.8791     0.5908     1.6878 C.ar    
  33 C33            7.5295     0.8033     1.4995 C.ar    
  34 F34           11.0692     1.4542     1.9525 F       
  35 C35            9.0701    11.0233    -0.4739 C.3     
  36 H36           -1.1674     1.9726     0.7957 H       
  37 H37            0.7440    -1.5064     2.3691 H       
  38 H38            2.9400    -0.4327     2.0952 H       
  39 H39            1.0219     3.0592     0.5192 H       
  40 H40            6.7439     4.4015    -0.1201 H       
  41 H41            5.1938     5.1211    -0.6176 H       
  42 H42            5.9103     8.6730     2.0536 H       
  43 H43            6.2071     7.3415     3.2022 H       
  44 H44            8.0703     9.0477     3.1417 H       
  45 H45            8.6039     7.4007     2.7260 H       
  46 H46            8.8779     8.0365    -0.8372 H       
  47 H47            9.0655     6.8228     0.4519 H       
  48 H48            7.0237     6.3256    -0.7843 H       
  49 H49            6.4472     8.0003    -0.5756 H       
  50 H50            7.5486     4.1935     1.3498 H       
  51 H51           11.6265    11.8276     0.0180 H       
  52 H52           13.2325    10.7627     1.5886 H       
  53 H53           12.5374     8.7794     2.8657 H       
  54 H54            9.9505     3.7972     1.6983 H       
  55 H55            9.2583    -0.4160     1.7824 H       
  56 H56            6.8525    -0.0362     1.4423 H       
  57 H57            8.5435    11.8317     0.0334 H       
  58 H58            9.5845    11.4182    -1.3500 H       
  59 H59            8.3544    10.2624    -0.7850 H       
@<TRIPOS>BOND
   1    1    2 ar
   2    1    6 ar
   3    1   36 1
   4    2    3 ar
   5    2   29 1
   6    3    4 ar
   7    3   37 1
   8    4    5 ar
   9    4   38 1
  10    5    6 ar
  11    5    7 1
  12    6   39 1
  13    7    8 1
  14    7    9 2
  15    8   11 2
  16    9   10 1
  17   10   11 1
  18   10   13 1
  19   11   12 1
  20   12   23 ar
  21   12   33 ar
  22   13   14 1
  23   13   40 1
  24   13   41 1
  25   14   15 2
  26   14   16 am
  27   16   17 1
  28   16   21 1
  29   17   18 1
  30   17   42 1
  31   17   43 1
  32   18   19 1
  33   18   44 1
  34   18   45 1
  35   19   20 1
  36   19   22 1
  37   20   21 1
  38   20   46 1
  39   20   47 1
  40   21   48 1
  41   21   49 1
  42   22   25 ar
  43   22   24 ar
  44   23   30 ar
  45   23   50 1
  46   24   28 ar
  47   25   26 ar
  48   25   35 1
  49   26   27 ar
  50   26   51 1
  51   27   28 ar
  52   27   52 1
  53   28   53 1
  54   30   31 ar
  55   30   54 1
  56   31   32 ar
  57   31   34 1
  58   32   33 ar
  59   32   55 1
  60   33   56 1
  61   35   57 1
  62   35   58 1
  63   35   59 1

#	End of record

