#	Name: ASD05513022
#	Creating user name:	WinNT
#	Creation time:	15. 06. 2019 21:01

#	Modifying user name:	WinNT
#	Modification time:	15. 06. 2019 21:01

#	Program:	/corina/corina34_cracker 3.40 0067  02.08.2006

@<TRIPOS>MOLECULE
ASD05513022
  30   32    0    0    0
SMALL
NO_CHARGES


@<TRIPOS>ATOM
   1 C1            -0.1882     1.1315    -0.9099 C.2     
   2 C2             0.0021    -0.0041     0.0020 C.2     
   3 C3             1.1412    -0.7444    -0.0622 C.2     
   4 C4             2.5216    -0.2570    -0.2597 C.ar    
   5 C5             3.3488    -1.3899    -0.2544 C.ar    
   6 N6             2.5723    -2.5294    -0.0683 N.am    
   7 C7             1.2702    -2.2210     0.0574 C.2     
   8 C8             3.0687     1.0138    -0.4314 C.ar    
   9 C9             4.4334     1.1545    -0.5970 C.ar    
  10 C10            5.2513     0.0375    -0.5921 C.ar    
  11 C11            4.7184    -1.2258    -0.4222 C.ar    
  12 O12            0.3607    -3.0081     0.2294 O.2     
  13 O13            0.5990     1.3210    -1.8178 O.2     
  14 C14           -1.3389     2.0398    -0.7284 C.ar    
  15 Cl15           2.0406     2.4125    -0.4378 Cl      
  16 C16           -1.5227     3.1212    -1.5944 C.ar    
  17 C17           -2.5988     3.9648    -1.4199 C.ar    
  18 C18           -3.4971     3.7426    -0.3885 C.ar    
  19 C19           -3.3204     2.6722     0.4736 C.ar    
  20 C20           -2.2515     1.8181     0.3066 C.ar    
  21 Cl21          -4.8494     4.8100    -0.1752 Cl      
  22 H22           -0.7626    -0.2512     0.7236 H       
  23 H23            2.9264    -3.4316    -0.0301 H       
  24 H24            4.8622     2.1366    -0.7308 H       
  25 H25            6.3170     0.1549    -0.7224 H       
  26 H26            5.3682    -2.0884    -0.4204 H       
  27 H27           -0.8231     3.2957    -2.3984 H       
  28 H28           -2.7418     4.8010    -2.0882 H       
  29 H29           -4.0241     2.5043     1.2755 H       
  30 H30           -2.1148     0.9842     0.9791 H       
@<TRIPOS>BOND
   1    1    2 1
   2    1   13 2
   3    1   14 1
   4    2    3 2
   5    2   22 1
   6    3    4 1
   7    3    7 1
   8    4    5 ar
   9    4    8 ar
  10    5    6 1
  11    5   11 ar
  12    6    7 am
  13    6   23 1
  14    7   12 2
  15    8    9 ar
  16    8   15 1
  17    9   10 ar
  18    9   24 1
  19   10   11 ar
  20   10   25 1
  21   11   26 1
  22   14   16 ar
  23   14   20 ar
  24   16   17 ar
  25   16   27 1
  26   17   18 ar
  27   17   28 1
  28   18   19 ar
  29   18   21 1
  30   19   20 ar
  31   19   29 1
  32   20   30 1

#	End of record

