#	Name: ASD03092884
#	Creating user name:	WinNT
#	Creation time:	15. 06. 2019 20:33

#	Modifying user name:	WinNT
#	Modification time:	15. 06. 2019 20:33

#	Program:	/corina/corina34_cracker 3.40 0067  02.08.2006

@<TRIPOS>MOLECULE
ASD03092884
  62   65    0    0    0
SMALL
NO_CHARGES


@<TRIPOS>ATOM
   1 C1             2.0031     0.1516     1.3314 C.3     
   2 O2             1.3089    -0.1522     0.1198 O.3     
   3 C3             2.1198    -0.7863    -0.8714 C.3     
   4 H4             3.1527    -0.4561    -0.7613 H       
   5 C5             2.0479    -2.3043    -0.6943 C.3     
   6 C6             2.9161    -2.9832    -1.7555 C.3     
   7 C7             2.4062    -2.6075    -3.1483 C.3     
   8 H8             1.3733    -2.9376    -3.2583 H       
   9 C9             2.4781    -1.0895    -3.3253 C.3     
  10 C10            1.6099    -0.4105    -2.2641 C.3     
  11 C11            3.2614    -3.2762    -4.1936 C.2     
  12 O12            4.2154    -2.6915    -4.6614 O.2     
  13 N13            2.9660    -4.5240    -4.6085 N.am    
  14 C14            1.8795    -5.2853    -3.9770 C.3     
  15 C15            2.4287    -6.6396    -3.5176 C.3     
  16 C16            3.0856    -7.3483    -4.7044 C.3     
  17 C17            4.2525    -6.5045    -5.2224 C.3     
  18 C18            3.7203    -5.1466    -5.7049 C.3     
  19 C19            3.5970    -8.6958    -4.2640 C.2     
  20 N20            4.4779    -8.9044    -3.3290 N.2     
  21 N21            4.7080   -10.2790    -3.1938 N.pl3   
  22 H22            5.3196   -10.6952    -2.5665 H       
  23 C23            3.9167   -10.9345    -4.1035 C.ar    
  24 C24            3.7232   -12.2799    -4.4240 C.ar    
  25 O25            4.4107   -13.2465    -3.7599 O.3     
  26 C26            4.0771   -14.6030    -4.0607 C.3     
  27 C27            4.8608   -15.0597    -5.2929 C.3     
  28 C28            4.4363   -15.4929    -2.8691 C.3     
  29 C29            2.8293   -12.6231    -5.4189 C.ar    
  30 C30            2.1229   -11.6413    -6.1022 C.ar    
  31 C31            2.2979   -10.3218    -5.8045 C.ar    
  32 C32            3.1943    -9.9453    -4.7948 C.ar    
  33 H33            2.3870    -0.7691     1.7708 H       
  34 H34            2.8328     0.8248     1.1158 H       
  35 H35            1.3190     0.6307     2.0318 H       
  36 H36            2.4111    -2.5720     0.2979 H       
  37 H37            1.0149    -2.6344    -0.8043 H       
  38 H38            3.9490    -2.6531    -1.6455 H       
  39 H39            2.8649    -4.0647    -1.6294 H       
  40 H40            3.5111    -0.7593    -3.2153 H       
  41 H41            2.1149    -0.8218    -4.3176 H       
  42 H42            0.5769    -0.7407    -2.3742 H       
  43 H43            1.6611     0.6709    -2.3903 H       
  44 H44            1.4993    -4.7344    -3.1168 H       
  45 H45            1.0765    -5.4420    -4.6973 H       
  46 H46            3.1680    -6.4848    -2.7317 H       
  47 H47            1.6125    -7.2521    -3.1344 H       
  48 H48            2.3520    -7.4807    -5.4996 H       
  49 H49            4.9746    -6.3509    -4.4205 H       
  50 H50            4.7344    -7.0208    -6.0526 H       
  51 H51            3.0644    -5.2921    -6.5632 H       
  52 H52            4.5550    -4.5040    -5.9851 H       
  53 H53            3.0084   -14.6784    -4.2614 H       
  54 H54            5.9295   -14.9843    -5.0922 H       
  55 H55            4.6063   -16.0945    -5.5224 H       
  56 H56            4.6049   -14.4258    -6.1418 H       
  57 H57            3.8779   -15.1675    -1.9913 H       
  58 H58            4.1818   -16.5276    -3.0986 H       
  59 H59            5.5050   -15.4175    -2.6684 H       
  60 H60            2.6783   -13.6630    -5.6681 H       
  61 H61            1.4276   -11.9260    -6.8781 H       
  62 H62            1.7430    -9.5679    -6.3432 H       
@<TRIPOS>BOND
   1    1    2 1
   2    1   33 1
   3    1   34 1
   4    1   35 1
   5    2    3 1
   6    3    4 1
   7    3   10 1
   8    3    5 1
   9    5    6 1
  10    5   36 1
  11    5   37 1
  12    6    7 1
  13    6   38 1
  14    6   39 1
  15    7    8 1
  16    7    9 1
  17    7   11 1
  18    9   10 1
  19    9   40 1
  20    9   41 1
  21   10   42 1
  22   10   43 1
  23   11   12 2
  24   11   13 am
  25   13   18 1
  26   13   14 1
  27   14   15 1
  28   14   44 1
  29   14   45 1
  30   15   16 1
  31   15   46 1
  32   15   47 1
  33   16   17 1
  34   16   19 1
  35   16   48 1
  36   17   18 1
  37   17   49 1
  38   17   50 1
  39   18   51 1
  40   18   52 1
  41   19   32 1
  42   19   20 2
  43   20   21 1
  44   21   22 1
  45   21   23 1
  46   23   32 ar
  47   23   24 ar
  48   24   25 1
  49   24   29 ar
  50   25   26 1
  51   26   27 1
  52   26   28 1
  53   26   53 1
  54   27   54 1
  55   27   55 1
  56   27   56 1
  57   28   57 1
  58   28   58 1
  59   28   59 1
  60   29   30 ar
  61   29   60 1
  62   30   31 ar
  63   30   61 1
  64   31   32 ar
  65   31   62 1

#	End of record

