#	Name: ASD03320181
#	Creating user name:	WinNT
#	Creation time:	15. 06. 2019 20:36

#	Modifying user name:	WinNT
#	Modification time:	15. 06. 2019 20:36

#	Program:	/corina/corina34_cracker 3.40 0067  02.08.2006

@<TRIPOS>MOLECULE
ASD03320181
  47   50    0    0    0
SMALL
NO_CHARGES


@<TRIPOS>ATOM
   1 C1            -0.0078     1.3448    -0.1947 C.ar    
   2 C2             0.0216    -0.0349     0.0279 C.ar    
   3 C3            -1.1508    -0.7586     0.0441 C.ar    
   4 C4            -2.3672    -0.1225    -0.1599 C.ar    
   5 C5            -2.4074     1.2597    -0.3833 C.ar    
   6 C6            -1.2279     1.9922    -0.3948 C.ar    
   7 C7             1.2499     2.1172    -0.2120 C.2     
   8 O8             1.2236     3.3174    -0.4056 O.2     
   9 N9             2.4273     1.4923    -0.0131 N.am    
  10 C10            3.6268     2.2061    -0.1264 C.ar    
  11 C11           -3.7073     1.9400    -0.6018 C.ar    
  12 C12            3.6887     3.5305     0.2864 C.ar    
  13 C13            4.8719     4.2335     0.1748 C.ar    
  14 C14            5.9986     3.6170    -0.3496 C.ar    
  15 C15            5.9374     2.2941    -0.7627 C.ar    
  16 C16            4.7564     1.5881    -0.6464 C.ar    
  17 O17            7.1634     4.3100    -0.4592 O.3     
  18 C18            8.2837     3.6130    -1.0080 C.3     
  19 F19            7.9774     3.1852    -2.3043 F       
  20 F20            9.3905     4.4677    -1.0483 F       
  21 F21            8.5800     2.5038    -0.2086 F       
  22 O22           -3.5185    -0.8402    -0.1434 O.3     
  23 C23           -4.0283     3.0830     0.1279 C.ar    
  24 C24           -5.2411     3.7156    -0.0783 C.ar    
  25 C25           -6.1398     3.2088    -1.0154 C.ar    
  26 C26           -5.8188     2.0707    -1.7399 C.ar    
  27 C27           -4.6074     1.4406    -1.5414 C.ar    
  28 C28           -3.4038    -2.2454     0.0895 C.3     
  29 O29           -5.7882     4.8283     0.4931 O.3     
  30 C30           -6.8501     5.2320    -0.3913 C.3     
  31 O31           -7.2490     4.0048    -1.0297 O.3     
  32 H32            0.9656    -0.5348     0.1872 H       
  33 H33           -1.1230    -1.8246     0.2157 H       
  34 H34           -1.2538     3.0582    -0.5663 H       
  35 H35            2.4439     0.5481     0.2085 H       
  36 H36            2.8115     4.0106     0.6944 H       
  37 H37            4.9201     5.2637     0.4955 H       
  38 H38            6.8149     1.8150    -1.1712 H       
  39 H39            4.7090     0.5581    -0.9676 H       
  40 H40           -3.3310     3.4743     0.8539 H       
  41 H41           -6.5166     1.6798    -2.4655 H       
  42 H42           -4.3605     0.5546    -2.1076 H       
  43 H43           -2.9384    -2.4160     1.0603 H       
  44 H44           -4.3954    -2.6978     0.0775 H       
  45 H45           -2.7902    -2.6942    -0.6915 H       
  46 H46           -7.6793     5.6564     0.1746 H       
  47 H47           -6.4835     5.9458    -1.1290 H       
@<TRIPOS>BOND
   1    1    2 ar
   2    1    7 1
   3    1    6 ar
   4    2    3 ar
   5    2   32 1
   6    3    4 ar
   7    3   33 1
   8    4    5 ar
   9    4   22 1
  10    5    6 ar
  11    5   11 1
  12    6   34 1
  13    7    8 2
  14    7    9 am
  15    9   10 1
  16    9   35 1
  17   10   12 ar
  18   10   16 ar
  19   11   23 ar
  20   11   27 ar
  21   12   13 ar
  22   12   36 1
  23   13   14 ar
  24   13   37 1
  25   14   15 ar
  26   14   17 1
  27   15   16 ar
  28   15   38 1
  29   16   39 1
  30   17   18 1
  31   18   19 1
  32   18   20 1
  33   18   21 1
  34   22   28 1
  35   23   24 ar
  36   23   40 1
  37   24   25 ar
  38   24   29 1
  39   25   26 ar
  40   25   31 1
  41   26   27 ar
  42   26   41 1
  43   27   42 1
  44   28   43 1
  45   28   44 1
  46   28   45 1
  47   29   30 1
  48   30   31 1
  49   30   46 1
  50   30   47 1

#	End of record

