#	Name: ASD01903273
#	Creating user name:	WinNT
#	Creation time:	15. 06. 2019 19:54

#	Modifying user name:	WinNT
#	Modification time:	15. 06. 2019 19:54

#	Program:	/corina/corina34_cracker 3.40 0067  02.08.2006

@<TRIPOS>MOLECULE
ASD01903273
  46   50    0    0    0
SMALL
NO_CHARGES


@<TRIPOS>ATOM
   1 C1            -0.0167     1.3813     0.0096 C.ar    
   2 C2             0.0021    -0.0041     0.0020 C.ar    
   3 C3             1.2194    -0.6672    -0.0132 C.ar    
   4 C4             2.3825     0.0862    -0.0203 C.ar    
   5 C5             2.2884     1.4763    -0.0120 C.ar    
   6 N6             1.1025     2.0721     0.0027 N.ar    
   7 C7             3.5222     2.2960    -0.0194 C.2     
   8 O8             4.6107     1.7557    -0.0327 O.2     
   9 N9             3.4376     3.6411    -0.0113 N.am    
  10 C10            4.5313     4.5134    -0.0171 C.ar    
  11 C11            4.1265     5.8389    -0.0061 C.ar    
  12 C12            5.0593     6.8575    -0.0096 C.ar    
  13 C13            6.4148     6.5600    -0.0242 C.ar    
  14 C14            6.8278     5.2343    -0.0353 C.ar    
  15 C15            5.8966     4.2192    -0.0318 C.ar    
  16 N16            7.3632     7.5936    -0.0278 N.am    
  17 C17            8.6950     7.4046    -0.0415 C.2     
  18 C18            9.3583     8.7255    -0.0408 C.ar    
  19 C19            8.3196     9.6786    -0.0257 C.ar    
  20 C20            7.0605     8.9044    -0.0236 C.2     
  21 O21            9.2582     6.3286    -0.0524 O.2     
  22 O22            5.9401     9.3731    -0.0126 O.2     
  23 C23           10.9687    10.5010    -0.0467 C.ar    
  24 C24            9.9502    11.4355    -0.0326 C.ar    
  25 C25            8.6246    11.0302    -0.0217 C.ar    
  26 C26           10.6786     9.1455    -0.0512 C.ar    
  27 C27           11.7946     8.1329    -0.0669 C.3     
  28 C28            2.6148     5.8805     0.0086 C.3     
  29 C29            2.1867     4.4040    -0.0016 C.3     
  30 H30           -0.9634     1.9011     0.0169 H       
  31 H31           -0.9227    -0.5619     0.0082 H       
  32 H32            1.2604    -1.7464    -0.0191 H       
  33 H33            3.3482    -0.3973    -0.0318 H       
  34 H34            4.7334     7.8872    -0.0013 H       
  35 H35            7.8817     4.9985    -0.0467 H       
  36 H36            6.2240     3.1900    -0.0405 H       
  37 H37           11.9975    10.8293    -0.0555 H       
  38 H38           10.1889    12.4888    -0.0288 H       
  39 H39            7.8330    11.7647    -0.0105 H       
  40 H40           12.0540     7.8940    -1.0982 H       
  41 H41           12.6666     8.5454     0.4408 H       
  42 H42           11.4706     7.2271     0.4455 H       
  43 H43            2.2570     6.3778     0.9101 H       
  44 H44            2.2398     6.3874    -0.8805 H       
  45 H45            1.6025     4.1838    -0.8951 H       
  46 H46            1.6102     4.1735     0.8943 H       
@<TRIPOS>BOND
   1    1    2 ar
   2    1    6 ar
   3    1   30 1
   4    2    3 ar
   5    2   31 1
   6    3    4 ar
   7    3   32 1
   8    4    5 ar
   9    4   33 1
  10    5    6 ar
  11    5    7 1
  12    7    8 2
  13    7    9 am
  14    9   10 1
  15    9   29 1
  16   10   11 ar
  17   10   15 ar
  18   11   12 ar
  19   11   28 1
  20   12   13 ar
  21   12   34 1
  22   13   14 ar
  23   13   16 1
  24   14   15 ar
  25   14   35 1
  26   15   36 1
  27   16   17 am
  28   16   20 am
  29   17   18 1
  30   17   21 2
  31   18   19 ar
  32   18   26 ar
  33   19   20 1
  34   19   25 ar
  35   20   22 2
  36   23   24 ar
  37   23   26 ar
  38   23   37 1
  39   24   25 ar
  40   24   38 1
  41   25   39 1
  42   26   27 1
  43   27   40 1
  44   27   41 1
  45   27   42 1
  46   28   29 1
  47   28   43 1
  48   28   44 1
  49   29   45 1
  50   29   46 1

#	End of record

