#	Name: ASD04590120
#	Creating user name:	WinNT
#	Creation time:	15. 06. 2019 20:50

#	Modifying user name:	WinNT
#	Modification time:	15. 06. 2019 20:50

#	Program:	/corina/corina34_cracker 3.40 0067  02.08.2006

@<TRIPOS>MOLECULE
ASD04590120
  36   38    0    0    0
SMALL
NO_CHARGES


@<TRIPOS>ATOM
   1 N1            -0.0179     1.2799    -0.0172 N.pl3   
   2 N2             0.0003    -0.0045    -0.0157 N.2     
   3 C3             1.2442    -0.4437    -0.0291 C.2     
   4 C4             2.0882     0.6971    -0.0401 C.2     
   5 C5             1.2494     1.7672    -0.0321 C.2     
   6 C6             1.6760    -1.8538    -0.0313 C.2     
   7 N7             0.7573    -2.8399    -0.0194 N.am    
   8 O8             2.8608    -2.1268    -0.0439 O.2     
   9 N9             3.4908     0.7166    -0.0555 N.am    
  10 C10            4.1483     1.8930    -0.0645 C.2     
  11 C11            6.3402     1.9252     1.1198 C.ar    
  12 C12            5.6248     1.9135    -0.0807 C.ar    
  13 C13            1.1605    -4.1699    -0.1350 C.ar    
  14 C14            0.4816    -5.1841     0.5390 C.ar    
  15 C15            0.9118    -6.4871     0.3979 C.ar    
  16 N16            1.9505    -6.7781    -0.3624 N.ar    
  17 C17            2.6189    -5.8468    -1.0161 C.ar    
  18 C18            2.2492    -4.5205    -0.9321 C.ar    
  19 C19            7.7208     1.9439     1.0965 C.ar    
  20 C20            8.3956     1.9516    -0.1111 C.ar    
  21 C21            7.6945     1.9397    -1.3035 C.ar    
  22 C22            6.3137     1.9210    -1.2965 C.ar    
  23 Cl23           5.4954     1.9233     2.6364 Cl      
  24 Cl24           5.4360     1.9067    -2.7943 Cl      
  25 O25            3.5258     2.9375    -0.0593 O.2     
  26 H26           -0.8213     1.8234    -0.0126 H       
  27 H27            1.5369     2.8082    -0.0372 H       
  28 H28           -0.1843    -2.6245     0.0695 H       
  29 H29            3.9874    -0.1167    -0.0596 H       
  30 H30           -0.3690    -4.9528     1.1630 H       
  31 H31            0.3921    -7.2792     0.9166 H       
  32 H32            3.4638    -6.1270    -1.6277 H       
  33 H33            2.8006    -3.7633    -1.4697 H       
  34 H34            8.2751     1.9529     2.0233 H       
  35 H35            9.4754     1.9666    -0.1229 H       
  36 H36            8.2284     1.9462    -2.2423 H       
@<TRIPOS>BOND
   1    1    2 1
   2    1    5 1
   3    1   26 1
   4    2    3 2
   5    3    4 1
   6    3    6 1
   7    4    5 2
   8    4    9 1
   9    5   27 1
  10    6    7 am
  11    6    8 2
  12    7   13 1
  13    7   28 1
  14    9   10 am
  15    9   29 1
  16   10   25 2
  17   10   12 1
  18   11   12 ar
  19   11   19 ar
  20   11   23 1
  21   12   22 ar
  22   13   14 ar
  23   13   18 ar
  24   14   15 ar
  25   14   30 1
  26   15   16 ar
  27   15   31 1
  28   16   17 ar
  29   17   18 ar
  30   17   32 1
  31   18   33 1
  32   19   20 ar
  33   19   34 1
  34   20   21 ar
  35   20   35 1
  36   21   22 ar
  37   21   36 1
  38   22   24 1

#	End of record

