#	Name: ASD04591027
#	Creating user name:	WinNT
#	Creation time:	15. 06. 2019 20:51

#	Modifying user name:	WinNT
#	Modification time:	15. 06. 2019 20:51

#	Program:	/corina/corina34_cracker 3.40 0067  02.08.2006

@<TRIPOS>MOLECULE
ASD04591027
  61   66    0    0    0
SMALL
NO_CHARGES


@<TRIPOS>ATOM
   1 N1            -0.1162     1.4244    -0.2675 N.ar    
   2 C2            -0.1305     0.0976    -0.2659 C.ar    
   3 N3             0.9783    -0.6216    -0.2018 N.ar    
   4 C4             2.1668    -0.0288    -0.1362 C.ar    
   5 C5             2.2158     1.3798    -0.1365 C.ar    
   6 C6             1.0233     2.0933    -0.2048 C.ar    
   7 N7             3.4514    -0.5075    -0.0627 N.pl3   
   8 C8             4.3556     0.5395    -0.0141 C.ar    
   9 C9             3.6355     1.7467    -0.0573 C.ar    
  10 C10            5.7410     0.5974     0.0638 C.ar    
  11 N11            6.3625     1.7586     0.0963 N.ar    
  12 C12            5.7157     2.9102     0.0574 C.ar    
  13 C13            4.3397     2.9496    -0.0198 C.ar    
  14 N14           -1.3490    -0.5576    -0.3331 N.pl3   
  15 C15           -2.5368     0.1717    -0.2817 C.ar    
  16 N16           -2.4945     1.4758    -0.0618 N.ar    
  17 C17           -3.5926     2.2054    -0.0051 C.ar    
  18 C18           -4.8399     1.6238    -0.1753 C.ar    
  19 C19           -4.9239     0.2520    -0.4090 C.ar    
  20 C20           -3.7515    -0.4791    -0.4678 C.ar    
  21 N21           -6.0003     2.4044    -0.1128 N.3     
  22 C22            3.8142    -1.9267    -0.0387 C.3     
  23 C23            4.6507    -2.2489     1.2167 C.3     
  24 C24            3.6663    -2.7674     2.2797 C.3     
  25 C25            2.2659    -2.7421     1.6331 C.3     
  26 C26            2.5488    -2.8072     0.1116 C.3     
  27 C27           -5.6735     3.8143     0.1419 C.3     
  28 C28           -6.9591     4.6446     0.1238 C.3     
  29 N29           -7.8860     4.1297     1.1413 N.3     
  30 C30           -8.2129     2.7198     0.8866 C.3     
  31 C31           -6.9272     1.8895     0.9047 C.3     
  32 C32            4.5841    -2.3027    -1.3063 C.3     
  33 O33            3.8003    -1.9739    -2.4550 O.3     
  34 H34            1.0279     3.1733    -0.2072 H       
  35 H35            6.3139    -0.3175     0.0985 H       
  36 H36            6.2734     3.8346     0.0871 H       
  37 H37            3.8173     3.8942    -0.0517 H       
  38 H38           -1.3762    -1.5237    -0.4159 H       
  39 H39           -3.5191     3.2675     0.1764 H       
  40 H40           -5.8819    -0.2278    -0.5452 H       
  41 H41           -3.7795    -1.5437    -0.6475 H       
  42 H42            5.3896    -3.0164     0.9862 H       
  43 H43            5.1475    -1.3476     1.5759 H       
  44 H44            3.9274    -3.7865     2.5650 H       
  45 H45            3.6853    -2.1177     3.1547 H       
  46 H46            1.6836    -3.6072     1.9502 H       
  47 H47            1.7460    -1.8179     1.8852 H       
  48 H48            1.7169    -2.3878    -0.4543 H       
  49 H49            2.7519    -3.8317    -0.2000 H       
  50 H50           -5.1949     3.9063     1.1169 H       
  51 H51           -4.9960     4.1761    -0.6316 H       
  52 H52           -6.7224     5.6861     0.3413 H       
  53 H53           -7.4234     4.5745    -0.8598 H       
  54 H54           -7.5085     4.2515     2.0691 H       
  55 H55           -8.8903     2.3580     1.6601 H       
  56 H56           -8.6914     2.6278    -0.0884 H       
  57 H57           -7.1639     0.8480     0.6873 H       
  58 H58           -6.4629     1.9596     1.8884 H       
  59 H59            5.5238    -1.7512    -1.3377 H       
  60 H60            4.7909    -3.3729    -1.3018 H       
  61 H61            4.2274    -2.1855    -3.2963 H       
@<TRIPOS>BOND
   1    1    2 ar
   2    1    6 ar
   3    2    3 ar
   4    2   14 1
   5    3    4 ar
   6    4    5 ar
   7    4    7 1
   8    5    6 ar
   9    5    9 1
  10    6   34 1
  11    7    8 1
  12    7   22 1
  13    8    9 ar
  14    8   10 ar
  15    9   13 ar
  16   10   11 ar
  17   10   35 1
  18   11   12 ar
  19   12   13 ar
  20   12   36 1
  21   13   37 1
  22   14   15 1
  23   14   38 1
  24   15   16 ar
  25   15   20 ar
  26   16   17 ar
  27   17   18 ar
  28   17   39 1
  29   18   19 ar
  30   18   21 1
  31   19   20 ar
  32   19   40 1
  33   20   41 1
  34   21   27 1
  35   21   31 1
  36   22   23 1
  37   22   32 1
  38   22   26 1
  39   23   24 1
  40   23   42 1
  41   23   43 1
  42   24   25 1
  43   24   44 1
  44   24   45 1
  45   25   26 1
  46   25   46 1
  47   25   47 1
  48   26   48 1
  49   26   49 1
  50   27   28 1
  51   27   50 1
  52   27   51 1
  53   28   29 1
  54   28   52 1
  55   28   53 1
  56   29   30 1
  57   29   54 1
  58   30   31 1
  59   30   55 1
  60   30   56 1
  61   31   57 1
  62   31   58 1
  63   32   33 1
  64   32   59 1
  65   32   60 1
  66   33   61 1

#	End of record

