#	Name: ASD07301069
#	Creating user name:	WinNT
#	Creation time:	15. 06. 2019 21:10

#	Modifying user name:	WinNT
#	Modification time:	15. 06. 2019 21:10

#	Program:	/corina/corina34_cracker 3.40 0067  02.08.2006

@<TRIPOS>MOLECULE
ASD07301069
  30   30    0    0    0
SMALL
NO_CHARGES


@<TRIPOS>ATOM
   1 C1             1.2970     0.3934    -0.6682 C.3     
   2 C2             0.0072    -0.0049     0.0015 C.2     
   3 C3             0.0342    -0.8360     1.2061 C.2     
   4 C4            -0.1096    -2.2885     1.0965 C.2     
   5 C5            -0.0818    -3.1442     2.3366 C.3     
   6 O6            -1.0540     0.3634    -0.4578 O.2     
   7 O7            -0.2514    -2.8037     0.0068 O.2     
   8 N8             0.1888    -0.2742     2.3945 N.2     
   9 N9             0.4115     0.9932     2.4846 N.pl3   
  10 C10            0.6802     1.5675     3.7270 C.ar    
  11 C11            0.9205     2.9332     3.8262 C.ar    
  12 C12            1.1856     3.4980     5.0576 C.ar    
  13 C13            1.2122     2.7069     6.1921 C.ar    
  14 C14            0.9741     1.3480     6.0974 C.ar    
  15 C15            0.7026     0.7767     4.8698 C.ar    
  16 C16            0.8922     3.7959     2.5908 C.3     
  17 H17            1.6129    -0.3979    -1.3481 H       
  18 H18            1.1454     1.3155    -1.2294 H       
  19 H19            2.0658     0.5508     0.0883 H       
  20 H20            0.0525    -2.5099     3.2128 H       
  21 H21           -1.0218    -3.6892     2.4233 H       
  22 H22            0.7441    -3.8526     2.2708 H       
  23 H23            0.3922     1.5469     1.6884 H       
  24 H24            1.3727     4.5589     5.1354 H       
  25 H25            1.4199     3.1516     7.1541 H       
  26 H26            0.9965     0.7334     6.9852 H       
  27 H27            0.5119    -0.2839     4.7972 H       
  28 H28           -0.1191     4.1705     2.4324 H       
  29 H29            1.5750     4.6359     2.7185 H       
  30 H30            1.2002     3.2053     1.7281 H       
@<TRIPOS>BOND
   1    1    2 1
   2    1   17 1
   3    1   18 1
   4    1   19 1
   5    2    3 1
   6    2    6 2
   7    3    4 1
   8    3    8 2
   9    4    5 1
  10    4    7 2
  11    5   20 1
  12    5   21 1
  13    5   22 1
  14    8    9 1
  15    9   10 1
  16    9   23 1
  17   10   11 ar
  18   10   15 ar
  19   11   12 ar
  20   11   16 1
  21   12   13 ar
  22   12   24 1
  23   13   14 ar
  24   13   25 1
  25   14   15 ar
  26   14   26 1
  27   15   27 1
  28   16   28 1
  29   16   29 1
  30   16   30 1

#	End of record

