#	Name: ASD01811375
#	Creating user name:	WinNT
#	Creation time:	15. 06. 2019 19:26

#	Modifying user name:	WinNT
#	Modification time:	15. 06. 2019 19:26

#	Program:	/corina/corina34_cracker 3.40 0067  02.08.2006

@<TRIPOS>MOLECULE
ASD01811375
  44   47    0    0    0
SMALL
NO_CHARGES


@<TRIPOS>ATOM
   1 C1            -0.8105    -0.0745     0.0632 C.1     
   2 C2            -0.7128     1.3541     0.0775 C.ar    
   3 C3             0.5353     1.9707     0.1858 C.ar    
   4 C4             0.6221     3.3474     0.1990 C.ar    
   5 C5            -0.5240     4.1169     0.1056 C.ar    
   6 C6            -1.7640     3.5125    -0.0015 C.ar    
   7 C7            -1.8648     2.1369    -0.0226 C.ar    
   8 N8            -0.8880    -1.2078     0.0519 N.1     
   9 C9            -1.1385     7.6801    -1.0240 C.2     
  10 C10           -0.9999     6.1866    -1.1825 C.3     
  11 C11           -0.4212     5.6203     0.1212 C.3     
  12 C12           -1.2117     6.1742     1.3100 C.3     
  13 C13           -0.9178     7.6705     1.4710 C.3     
  14 N14           -1.0969     8.3252     0.1760 N.pl3   
  15 N15           -1.3789     9.7494    -1.4083 N.2     
  16 N16           -1.3078     8.5803    -1.9456 N.2     
  17 C17           -1.2538     9.6476    -0.1005 C.2     
  18 C18           -1.2763    10.7574     0.8776 C.ar    
  19 C19           -0.7818    10.5636     2.1667 C.ar    
  20 C20           -0.8057    11.6084     3.0778 C.ar    
  21 C21           -1.3217    12.8442     2.7045 C.ar    
  22 C22           -1.8117    13.0358     1.4267 C.ar    
  23 C23           -1.7872    12.0030     0.5110 C.ar    
  24 C24           -1.3471    13.9783     3.6966 C.3     
  25 N25           -0.3118    11.4192     4.3708 N.pl3   
  26 H26            1.4306     1.3712     0.2594 H       
  27 H27            1.5868     3.8256     0.2827 H       
  28 H28           -2.6546     4.1191    -0.0736 H       
  29 H29           -2.8329     1.6664    -0.1111 H       
  30 H30           -1.9776     5.7445    -1.3738 H       
  31 H31           -0.3267     5.9653    -2.0107 H       
  32 H32            0.6250     5.9124     0.2118 H       
  33 H33           -2.2780     6.0305     1.1354 H       
  34 H34           -0.9187     5.6470     2.2179 H       
  35 H35           -1.6064     8.1023     2.1973 H       
  36 H36            0.1088     7.8070     1.8108 H       
  37 H37           -0.3817     9.6026     2.4547 H       
  38 H38           -2.2113    13.9980     1.1422 H       
  39 H39           -2.1670    12.1581    -0.4880 H       
  40 H40           -0.4200    14.5467     3.6225 H       
  41 H41           -2.1922    14.6317     3.4799 H       
  42 H42           -1.4475    13.5767     4.7050 H       
  43 H43            0.0479    10.5568     4.6312 H       
  44 H44           -0.3286    12.1502     5.0081 H       
@<TRIPOS>BOND
   1    1    2 1
   2    1    8 3
   3    2    3 ar
   4    2    7 ar
   5    3    4 ar
   6    3   26 1
   7    4    5 ar
   8    4   27 1
   9    5    6 ar
  10    5   11 1
  11    6    7 ar
  12    6   28 1
  13    7   29 1
  14    9   10 1
  15    9   14 1
  16    9   16 2
  17   10   11 1
  18   10   30 1
  19   10   31 1
  20   11   12 1
  21   11   32 1
  22   12   13 1
  23   12   33 1
  24   12   34 1
  25   13   14 1
  26   13   35 1
  27   13   36 1
  28   14   17 1
  29   15   16 1
  30   15   17 2
  31   17   18 1
  32   18   19 ar
  33   18   23 ar
  34   19   20 ar
  35   19   37 1
  36   20   21 ar
  37   20   25 1
  38   21   22 ar
  39   21   24 1
  40   22   23 ar
  41   22   38 1
  42   23   39 1
  43   24   40 1
  44   24   41 1
  45   24   42 1
  46   25   43 1
  47   25   44 1

#	End of record

