#	Name: ASD01910863
#	Creating user name:	WinNT
#	Creation time:	15. 06. 2019 19:56

#	Modifying user name:	WinNT
#	Modification time:	15. 06. 2019 19:56

#	Program:	/corina/corina34_cracker 3.40 0067  02.08.2006

@<TRIPOS>MOLECULE
ASD01910863
  48   51    0    0    0
SMALL
NO_CHARGES


@<TRIPOS>ATOM
   1 C1            -0.0995     1.7686     0.4891 C.ar    
   2 C2            -0.1122     0.6375    -0.3174 C.ar    
   3 C3            -1.2772    -0.1063    -0.3932 C.ar    
   4 C4            -2.3896     0.3022     0.3370 C.ar    
   5 N5            -2.3374     1.3866     1.0944 N.ar    
   6 C6            -1.2392     2.1122     1.1903 C.ar    
   7 N7            -3.5672    -0.4357     0.2698 N.3     
   8 C8            -4.7428     0.4443     0.3089 C.3     
   9 C9            -6.0058    -0.3844     0.0514 C.3     
  10 N10           -6.0338    -1.5024     1.0066 N.am    
  11 C11           -4.8363    -2.3484     1.1230 C.3     
  12 C12           -3.6194    -1.4424     1.3383 C.3     
  13 C13           -7.1280    -1.7456     1.7550 C.2     
  14 C14           -7.1847    -2.9489     2.6125 C.ar    
  15 C15           -7.7497    -2.8734     3.8876 C.ar    
  16 C16           -7.8034    -3.9958     4.6908 C.ar    
  17 C17           -7.3001    -5.1995     4.2406 C.ar    
  18 C18           -6.7315    -5.2899     2.9661 C.ar    
  19 C19           -6.6799    -4.1614     2.1480 C.ar    
  20 C20           -6.2086    -6.5390     2.5002 C.1     
  21 O21           -8.0682    -0.9757     1.7251 O.2     
  22 C22           -5.7800    -7.5630     2.1182 C.1     
  23 C23           -5.2571    -8.8121     1.6522 C.ar    
  24 N24           -4.7180    -8.8907     0.4394 N.ar    
  25 C25           -4.2262   -10.0210    -0.0247 C.ar    
  26 C26           -4.2532   -11.1743     0.7379 C.ar    
  27 C27           -4.8070   -11.1380     2.0107 C.ar    
  28 C28           -5.3120    -9.9383     2.4777 C.ar    
  29 Cl29          -1.3501    -1.5287    -1.3858 Cl      
  30 Cl30           1.3358     2.7363     0.6200 Cl      
  31 H31            0.7667     0.3453    -0.8729 H       
  32 H32           -1.2339     2.9906     1.8186 H       
  33 H33           -4.8112     0.9166     1.2889 H       
  34 H34           -4.6484     1.2118    -0.4594 H       
  35 H35           -6.8883     0.2398     0.1922 H       
  36 H36           -5.9875    -0.7730    -0.9668 H       
  37 H37           -4.9456    -3.0228     1.9723 H       
  38 H38           -4.7056    -2.9258     0.2078 H       
  39 H39           -2.7102    -2.0432     1.3166 H       
  40 H40           -3.7034    -0.9438     2.3040 H       
  41 H41           -8.1452    -1.9348     4.2467 H       
  42 H42           -8.2412    -3.9311     5.6760 H       
  43 H43           -7.3450    -6.0731     4.8740 H       
  44 H44           -6.2421    -4.2250     1.1628 H       
  45 H45           -3.7962   -10.0476    -1.0151 H       
  46 H46           -3.8472   -12.0955     0.3467 H       
  47 H47           -4.8388   -12.0263     2.6242 H       
  48 H48           -5.7494    -9.8745     3.4631 H       
@<TRIPOS>BOND
   1    1    2 ar
   2    1   30 1
   3    1    6 ar
   4    2    3 ar
   5    2   31 1
   6    3    4 ar
   7    3   29 1
   8    4    5 ar
   9    4    7 1
  10    5    6 ar
  11    6   32 1
  12    7    8 1
  13    7   12 1
  14    8    9 1
  15    8   33 1
  16    8   34 1
  17    9   10 1
  18    9   35 1
  19    9   36 1
  20   10   11 1
  21   10   13 am
  22   11   12 1
  23   11   37 1
  24   11   38 1
  25   12   39 1
  26   12   40 1
  27   13   14 1
  28   13   21 2
  29   14   15 ar
  30   14   19 ar
  31   15   16 ar
  32   15   41 1
  33   16   17 ar
  34   16   42 1
  35   17   18 ar
  36   17   43 1
  37   18   19 ar
  38   18   20 1
  39   19   44 1
  40   20   22 3
  41   22   23 1
  42   23   24 ar
  43   23   28 ar
  44   24   25 ar
  45   25   26 ar
  46   25   45 1
  47   26   27 ar
  48   26   46 1
  49   27   28 ar
  50   27   47 1
  51   28   48 1

#	End of record

