#	Name: ASD05313103
#	Creating user name:	WinNT
#	Creation time:	15. 06. 2019 20:58

#	Modifying user name:	WinNT
#	Modification time:	15. 06. 2019 20:58

#	Program:	/corina/corina34_cracker 3.40 0067  02.08.2006

@<TRIPOS>MOLECULE
ASD05313103
  39   42    0    0    0
SMALL
NO_CHARGES


@<TRIPOS>ATOM
   1 C1            -0.0895     0.9029     1.1574 C.2     
   2 C2             0.1444    -0.5508     0.8226 C.3     
   3 N3             0.9101     1.8262     1.2534 N.pl3   
   4 N4             1.5472    -0.6695     0.3815 N.am    
   5 C5             2.5784     0.0476     1.1466 C.3     
   6 C6             2.3306     1.5571     1.0390 C.3     
   7 N7            -0.9880     2.7538     1.6550 N.2     
   8 N8            -1.2098     1.5088     1.4064 N.2     
   9 C9             0.3040     3.0015     1.5757 C.2     
  10 C10            0.9674     4.3044     1.7971 C.ar    
  11 C11            0.6305     5.0835     2.9076 C.ar    
  12 C12            1.2545     6.2996     3.1088 C.ar    
  13 C13            2.2117     6.7458     2.2121 C.ar    
  14 C14            2.5482     5.9765     1.1095 C.ar    
  15 C15            1.9360     4.7581     0.9014 C.ar    
  16 F16            2.8192     7.9356     2.4130 F       
  17 F17           -0.3032     4.6487     3.7819 F       
  18 C18            1.8747    -1.4148    -0.6926 C.2     
  19 O19            3.0197    -1.4224    -1.1009 O.2     
  20 C20            0.8420    -2.2228    -1.3739 C.ar    
  21 C21            0.7587    -2.2237    -2.7686 C.ar    
  22 C22           -0.2102    -2.9821    -3.3985 C.ar    
  23 C23           -1.0956    -3.7381    -2.6499 C.ar    
  24 C24           -1.0174    -3.7401    -1.2685 C.ar    
  25 C25           -0.0512    -2.9931    -0.6273 C.ar    
  26 Cl26          -0.3170    -2.9860    -5.1312 Cl      
  27 Cl27           1.8684    -1.2747    -3.7076 Cl      
  28 H28           -0.0213    -1.1675     1.7059 H       
  29 H29           -0.5254    -0.8604     0.0203 H       
  30 H30            2.5318    -0.2552     2.1926 H       
  31 H31            3.5624    -0.1894     0.7420 H       
  32 H32            2.6216     1.9042     0.0475 H       
  33 H33            2.9183     2.0775     1.7952 H       
  34 H34            0.9955     6.9033     3.9659 H       
  35 H35            3.2949     6.3298     0.4138 H       
  36 H36            2.2033     4.1580     0.0442 H       
  37 H37           -1.8512    -4.3288    -3.1464 H       
  38 H38           -1.7118    -4.3320    -0.6908 H       
  39 H39            0.0108    -3.0001     0.4509 H       
@<TRIPOS>BOND
   1    1    2 1
   2    1    3 1
   3    1    8 2
   4    2    4 1
   5    2   28 1
   6    2   29 1
   7    3    6 1
   8    3    9 1
   9    4    5 1
  10    4   18 am
  11    5    6 1
  12    5   30 1
  13    5   31 1
  14    6   32 1
  15    6   33 1
  16    7    8 1
  17    7    9 2
  18    9   10 1
  19   10   11 ar
  20   10   15 ar
  21   11   12 ar
  22   11   17 1
  23   12   13 ar
  24   12   34 1
  25   13   14 ar
  26   13   16 1
  27   14   15 ar
  28   14   35 1
  29   15   36 1
  30   18   19 2
  31   18   20 1
  32   20   21 ar
  33   20   25 ar
  34   21   22 ar
  35   21   27 1
  36   22   23 ar
  37   22   26 1
  38   23   24 ar
  39   23   37 1
  40   24   25 ar
  41   24   38 1
  42   25   39 1

#	End of record

