#	Name: ASD01810662
#	Creating user name:	WinNT
#	Creation time:	15. 06. 2019 19:25

#	Modifying user name:	WinNT
#	Modification time:	15. 06. 2019 19:25

#	Program:	/corina/corina34_cracker 3.40 0067  02.08.2006

@<TRIPOS>MOLECULE
ASD01810662
  21   21    0    0    0
SMALL
NO_CHARGES


@<TRIPOS>ATOM
   1 C1            -0.0187     1.5267     0.0104 C.3     
   2 C2             0.0021    -0.0041     0.0020 C.3     
   3 C3             0.7956    -0.5028     1.2136 C.3     
   4 C4             2.2039     0.0979     1.1702 C.3     
   5 C5             2.0981     1.6247     1.1335 C.3     
   6 O6             1.3225     2.0200     0.0003 O.3     
   7 O7             0.8826    -1.9286     1.1740 O.3     
   8 N8            -1.9336    -0.6885    -1.2581 N.3     
   9 N9            -1.3737    -0.5141     0.0725 N.3     
  10 H10           -0.5456     1.8879    -0.8727 H       
  11 H11           -0.5286     1.8784     0.9073 H       
  12 H12            0.4759    -0.3569    -0.9140 H       
  13 H13            0.2947    -0.1921     2.1305 H       
  14 H14            2.7578    -0.2076     2.0579 H       
  15 H15            2.7222    -0.2529     0.2777 H       
  16 H16            1.6159     1.9777     2.0451 H       
  17 H17            3.0962     2.0566     1.0594 H       
  18 H18            1.3730    -2.3134     1.9133 H       
  19 H19           -1.3520    -1.2932    -1.8186 H       
  20 H20           -2.8786    -1.0388    -1.2097 H       
  21 H21           -1.4139    -1.3749     0.5973 H       
@<TRIPOS>BOND
   1    1    2 1
   2    1    6 1
   3    1   10 1
   4    1   11 1
   5    2    3 1
   6    2    9 1
   7    2   12 1
   8    3    4 1
   9    3    7 1
  10    3   13 1
  11    4    5 1
  12    4   14 1
  13    4   15 1
  14    5    6 1
  15    5   16 1
  16    5   17 1
  17    7   18 1
  18    8    9 1
  19    8   19 1
  20    8   20 1
  21    9   21 1

#	End of record

