#	Name: ASD01882226
#	Creating user name:	WinNT
#	Creation time:	15. 06. 2019 19:44

#	Modifying user name:	WinNT
#	Modification time:	15. 06. 2019 19:44

#	Program:	/corina/corina34_cracker 3.40 0067  02.08.2006

@<TRIPOS>MOLECULE
ASD01882226
  34   37    0    0    0
SMALL
NO_CHARGES


@<TRIPOS>ATOM
   1 C1            -0.0159     1.3220     0.0093 C.2     
   2 N2             0.0021    -0.0041     0.0020 N.2     
   3 C3             1.1523    -0.6857    -0.0126 C.2     
   4 C4             2.3835     0.0173    -0.0206 C.2     
   5 C5             2.3523     1.3664    -0.0131 C.2     
   6 N6             1.1484     2.0132     0.0019 N.pl3   
   7 O7            -1.0993     2.1290     0.0184 O.3     
   8 C8             0.8540     3.4562     0.0125 C.3     
   9 C9            -0.6831     3.5211     0.0242 C.3     
  10 O10            1.1423    -1.9071    -0.0187 O.2     
  11 C11           -1.1944     4.2379    -1.2270 C.3     
  12 O12           -2.6209     4.3119    -1.1842 O.3     
  13 N13           -5.3553     6.7368    -5.2859 N.pl3   
  14 C14           -6.6398     6.5820    -4.8413 C.2     
  15 C15           -6.6421     5.9385    -3.6631 C.2     
  16 C16           -5.2445     5.6581    -3.3250 C.ar    
  17 C17           -4.6153     5.0282    -2.2489 C.ar    
  18 C18           -3.2390     4.9238    -2.2296 C.ar    
  19 C19           -2.4809     5.4430    -3.2761 C.ar    
  20 C20           -3.0905     6.0663    -4.3417 C.ar    
  21 C21           -4.4762     6.1817    -4.3799 C.ar    
  22 H22            3.3237    -0.5140    -0.0321 H       
  23 H23            3.2727     1.9314    -0.0185 H       
  24 H24            1.2651     3.9237     0.9072 H       
  25 H25            1.2480     3.9334    -0.8848 H       
  26 H26           -1.0396     4.0220     0.9243 H       
  27 H27           -0.7793     5.2451    -1.2639 H       
  28 H28           -0.8857     3.6850    -2.1142 H       
  29 H29           -5.1011     7.1688    -6.1163 H       
  30 H30           -7.5215     6.9267    -5.3611 H       
  31 H31           -7.5098     5.6774    -3.0756 H       
  32 H32           -5.2021     4.6259    -1.4363 H       
  33 H33           -1.4047     5.3561    -3.2515 H       
  34 H34           -2.4929     6.4660    -5.1476 H       
@<TRIPOS>BOND
   1    1    2 2
   2    1    6 1
   3    1    7 1
   4    2    3 1
   5    3    4 1
   6    3   10 2
   7    4    5 2
   8    4   22 1
   9    5    6 1
  10    5   23 1
  11    6    8 1
  12    7    9 1
  13    8    9 1
  14    8   24 1
  15    8   25 1
  16    9   11 1
  17    9   26 1
  18   11   12 1
  19   11   27 1
  20   11   28 1
  21   12   18 1
  22   13   14 1
  23   13   21 1
  24   13   29 1
  25   14   15 2
  26   14   30 1
  27   15   16 1
  28   15   31 1
  29   16   17 ar
  30   16   21 ar
  31   17   18 ar
  32   17   32 1
  33   18   19 ar
  34   19   20 ar
  35   19   33 1
  36   20   21 ar
  37   20   34 1

#	End of record

