#	Name: ASD05940114
#	Creating user name:	WinNT
#	Creation time:	15. 06. 2019 21:04

#	Modifying user name:	WinNT
#	Modification time:	15. 06. 2019 21:04

#	Program:	/corina/corina34_cracker 3.40 0067  02.08.2006

@<TRIPOS>MOLECULE
ASD05940114
  69   71    0    0    0
SMALL
NO_CHARGES


@<TRIPOS>ATOM
   1 O1            -0.5729    -1.8347     0.5874 O.3     
   2 C2             0.8330    -1.5825     0.5458 C.3     
   3 C3             1.0788    -0.1330     0.1222 C.3     
   4 N4             0.5775     0.0697    -1.2437 N.3     
   5 C5             0.4560     1.5006    -1.5530 C.3     
   6 C6             1.4336    -0.6102    -2.2250 C.3     
   7 C7             0.7638    -0.5907    -3.5748 C.2     
   8 C8             0.9011     0.3699    -4.5179 C.2     
   9 C9             1.7503     1.6098    -4.4062 C.3     
  10 C10           -0.1048    -1.5655    -4.0766 C.2     
  11 N11           -0.4798    -1.2005    -5.2757 N.2     
  12 N12            0.1419     0.0183    -5.5767 N.pl3   
  13 C13           -0.5341    -2.8197    -3.3600 C.3     
  14 C14            1.4345    -1.8175     1.9328 C.3     
  15 O15            1.3082    -3.1981     2.2792 O.3     
  16 C16            1.7968    -3.5780     3.4900 C.ar    
  17 C17            1.7068    -4.9032     3.8893 C.ar    
  18 C18            2.2031    -5.2892     5.1192 C.ar    
  19 C19            2.7916    -4.3515     5.9548 C.ar    
  20 C20            2.8824    -3.0265     5.5551 C.ar    
  21 C21            2.3901    -2.6414     4.3233 C.ar    
  22 O22            3.2793    -4.7313     7.1660 O.3     
  23 C23            3.8723    -3.7133     7.9748 C.3     
  24 C24            4.3522    -4.3165     9.2697 C.2     
  25 C25            5.5372    -4.0090     9.7361 C.2     
  26 C26           -0.0058     0.7769    -6.8213 C.3     
  27 C27            0.9762     0.2628    -7.8424 C.ar    
  28 C28            2.2057     0.8723    -7.9874 C.ar    
  29 C29            3.1080     0.4017    -8.9242 C.ar    
  30 C30            2.7846    -0.6817    -9.7218 C.ar    
  31 C31            1.5586    -1.2996    -9.5871 C.ar    
  32 C32            0.6463    -0.8339    -8.6392 C.ar    
  33 C33           -0.6689    -1.4915    -8.4891 C.2     
  34 C34           -0.9157    -2.6315    -9.1191 C.2     
  35 H35           -1.0556    -1.2706     1.2070 H       
  36 H36            1.3018    -2.2554    -0.1723 H       
  37 H37            0.5569     0.5383     0.8041 H       
  38 H38            2.1478     0.0779     0.1519 H       
  39 H39            1.4463     1.9560    -1.5608 H       
  40 H40           -0.0077     1.6227    -2.5318 H       
  41 H41           -0.1606     1.9849    -0.7958 H       
  42 H42            2.3929    -0.0964    -2.2879 H       
  43 H43            1.5940    -1.6424    -1.9138 H       
  44 H44            2.7193     1.4297    -4.8715 H       
  45 H45            1.2528     2.4377    -4.9115 H       
  46 H46            1.8929     1.8590    -3.3547 H       
  47 H47           -1.4368    -2.6178    -2.7834 H       
  48 H48           -0.7368    -3.6037    -4.0896 H       
  49 H49            0.2607    -3.1448    -2.6886 H       
  50 H50            2.4887    -1.5402     1.9234 H       
  51 H51            0.9053    -1.2090     2.6662 H       
  52 H52            1.2485    -5.6333     3.2386 H       
  53 H53            2.1324    -6.3209     5.4304 H       
  54 H54            3.3407    -2.2964     6.2058 H       
  55 H55            2.4607    -1.6096     4.0121 H       
  56 H56            4.7165    -3.2733     7.4440 H       
  57 H57            3.1331    -2.9405     8.1859 H       
  58 H58            3.7193    -5.0023     9.8133 H       
  59 H59            6.1701    -3.3232     9.1925 H       
  60 H60            5.8811    -4.4413    10.6641 H       
  61 H61           -1.0205     0.6581    -7.2010 H       
  62 H62            0.1890     1.8320    -6.6289 H       
  63 H63            2.4639     1.7188    -7.3684 H       
  64 H64            4.0690     0.8822    -9.0338 H       
  65 H65            3.4934    -1.0442   -10.4517 H       
  66 H66            1.3070    -2.1447   -10.2107 H       
  67 H67           -1.4288    -1.0433    -7.8662 H       
  68 H68           -0.1558    -3.0797    -9.7421 H       
  69 H69           -1.8767    -3.1120    -9.0095 H       
@<TRIPOS>BOND
   1    1    2 1
   2    1   35 1
   3    2    3 1
   4    2   14 1
   5    2   36 1
   6    3    4 1
   7    3   37 1
   8    3   38 1
   9    4    5 1
  10    4    6 1
  11    5   39 1
  12    5   40 1
  13    5   41 1
  14    6    7 1
  15    6   42 1
  16    6   43 1
  17    7    8 2
  18    7   10 1
  19    8    9 1
  20    8   12 1
  21    9   44 1
  22    9   45 1
  23    9   46 1
  24   10   11 2
  25   10   13 1
  26   11   12 1
  27   12   26 1
  28   13   47 1
  29   13   48 1
  30   13   49 1
  31   14   15 1
  32   14   50 1
  33   14   51 1
  34   15   16 1
  35   16   17 ar
  36   16   21 ar
  37   17   18 ar
  38   17   52 1
  39   18   19 ar
  40   18   53 1
  41   19   20 ar
  42   19   22 1
  43   20   21 ar
  44   20   54 1
  45   21   55 1
  46   22   23 1
  47   23   24 1
  48   23   56 1
  49   23   57 1
  50   24   25 2
  51   24   58 1
  52   25   59 1
  53   25   60 1
  54   26   27 1
  55   26   61 1
  56   26   62 1
  57   27   28 ar
  58   27   32 ar
  59   28   29 ar
  60   28   63 1
  61   29   30 ar
  62   29   64 1
  63   30   31 ar
  64   30   65 1
  65   31   32 ar
  66   31   66 1
  67   32   33 1
  68   33   34 2
  69   33   67 1
  70   34   68 1
  71   34   69 1

#	End of record

