#	Name: ASD01230027
#	Creating user name:	WinNT
#	Creation time:	15. 06. 2019 19:11

#	Modifying user name:	WinNT
#	Modification time:	15. 06. 2019 19:11

#	Program:	/corina/corina34_cracker 3.40 0067  02.08.2006

@<TRIPOS>MOLECULE
ASD01230027
  42   44    0    0    0
SMALL
NO_CHARGES


@<TRIPOS>ATOM
   1 C1            -3.3813     1.1583     1.3935 C.3     
   2 C2            -2.9375    -0.3052     1.4411 C.3     
   3 C3            -4.1609    -1.2138     1.3049 C.3     
   4 S4            -1.7864    -0.6325     0.0779 S.o2    
   5 O5            -2.4547    -0.5385    -1.1726 O.2     
   6 O6            -0.5496     0.0312     0.2994 O.2     
   7 N7            -1.4189    -2.2406     0.2246 N.am    
   8 C8             0.8202    -2.8215     1.1103 C.3     
   9 C9            -0.6920    -2.7214     1.4022 C.3     
  10 C10           -1.0663    -4.1850     1.7181 C.3     
  11 C11            0.2089    -4.8178     2.2331 C.ar    
  12 C12            0.4019    -5.9850     2.9493 C.ar    
  13 C13            1.6864    -6.3731     3.3196 C.ar    
  14 C14            2.7759    -5.5798     2.9652 C.ar    
  15 C15            2.5742    -4.4177     2.2512 C.ar    
  16 C16            1.2939    -4.0339     1.8838 C.ar    
  17 C17            0.8108    -8.4231     4.4467 C.ar    
  18 C18            1.8945    -7.6251     4.0883 C.ar    
  19 C19            3.1813    -8.0219     4.4636 C.ar    
  20 C20            3.3237    -9.1972     5.1790 C.ar    
  21 C21            2.1959    -9.9371     5.4980 C.ar    
  22 N22            0.9928    -9.5355     5.1290 N.ar    
  23 F23            2.3291   -11.0860     6.1962 F       
  24 H24           -4.0730     1.3550     2.2126 H       
  25 H25           -2.5098     1.8056     1.4906 H       
  26 H26           -3.8774     1.3568     0.4435 H       
  27 H27           -2.4414    -0.5037     2.3912 H       
  28 H28           -3.8374    -2.2534     1.2534 H       
  29 H29           -4.8121    -1.0783     2.1685 H       
  30 H30           -4.7048    -0.9571     0.3959 H       
  31 H31           -1.6849    -2.8641    -0.4692 H       
  32 H32            0.9908    -2.9634     0.0432 H       
  33 H33            1.3330    -1.9256     1.4603 H       
  34 H34           -0.8788    -2.0793     2.2630 H       
  35 H35           -1.8419    -4.2203     2.4831 H       
  36 H36           -1.4023    -4.6930     0.8141 H       
  37 H37           -0.4456    -6.5964     3.2220 H       
  38 H38            3.7754    -5.8743     3.2493 H       
  39 H39            3.4186    -3.8029     1.9766 H       
  40 H40           -0.1887    -8.1250     4.1666 H       
  41 H41            4.0429    -7.4259     4.2011 H       
  42 H42            4.3029    -9.5348     5.4853 H       
@<TRIPOS>BOND
   1    1    2 1
   2    1   24 1
   3    1   25 1
   4    1   26 1
   5    2    3 1
   6    2    4 1
   7    2   27 1
   8    3   28 1
   9    3   29 1
  10    3   30 1
  11    4    5 2
  12    4    6 2
  13    4    7 am
  14    7    9 1
  15    7   31 1
  16    8    9 1
  17    8   16 1
  18    8   32 1
  19    8   33 1
  20    9   10 1
  21    9   34 1
  22   10   11 1
  23   10   35 1
  24   10   36 1
  25   11   12 ar
  26   11   16 ar
  27   12   13 ar
  28   12   37 1
  29   13   14 ar
  30   13   18 1
  31   14   15 ar
  32   14   38 1
  33   15   16 ar
  34   15   39 1
  35   17   18 ar
  36   17   22 ar
  37   17   40 1
  38   18   19 ar
  39   19   20 ar
  40   19   41 1
  41   20   21 ar
  42   20   42 1
  43   21   22 ar
  44   21   23 1

#	End of record

