#	Name: ASD01410797
#	Creating user name:	WinNT
#	Creation time:	15. 06. 2019 19:18

#	Modifying user name:	WinNT
#	Modification time:	15. 06. 2019 19:18

#	Program:	/corina/corina34_cracker 3.40 0067  02.08.2006

@<TRIPOS>MOLECULE
ASD01410797
  47   49    0    0    0
SMALL
NO_CHARGES


@<TRIPOS>ATOM
   1 N1            -0.0158     1.3159     0.0093 N.ar    
   2 C2             0.0021    -0.0041     0.0020 C.ar    
   3 C3             1.2044    -0.7204    -0.0133 C.ar    
   4 C4             2.4056    -0.0390    -0.0211 C.ar    
   5 C5             2.3693     1.3747    -0.0131 C.ar    
   6 C6             3.5509     2.1298    -0.0207 C.ar    
   7 C7             3.4874     3.4896    -0.0133 C.ar    
   8 C8             2.2549     4.1481     0.0023 C.ar    
   9 C9             1.0760     3.4361     0.0106 C.ar    
  10 C10            1.1134     2.0309     0.0023 C.ar    
  11 O11            3.5860    -0.7063    -0.0355 O.3     
  12 O12            2.2192     5.5063     0.0099 O.3     
  13 C13            3.4749     6.1884     0.0011 C.3     
  14 C14            3.2347     7.6994     0.0115 C.3     
  15 O15            2.6096     8.0739     1.2408 O.3     
  16 C16            2.3399     9.4727     1.3531 C.3     
  17 C17           -1.2828    -0.7458     0.0108 C.ar    
  18 C18           -2.4858    -0.0434     0.0265 C.ar    
  19 C19           -3.6768    -0.7493     0.0345 C.ar    
  20 C20           -3.6248    -2.1357     0.0266 C.ar    
  21 C21           -2.3947    -2.7682     0.0110 C.ar    
  22 N22           -1.2766    -2.0723    -0.0019 N.ar    
  23 C23           -2.3331    -4.2739     0.0023 C.3     
  24 C24           -2.4236    -4.7963     1.4375 C.3     
  25 C25           -3.5011    -4.8274    -0.8165 C.3     
  26 Cl26          -0.4471     4.2689     0.0301 Cl      
  27 H27            1.1929    -1.8004    -0.0186 H       
  28 H28            4.5100     1.6332    -0.0321 H       
  29 H29            4.4004     4.0664    -0.0193 H       
  30 H30            3.9201    -0.8954    -0.9230 H       
  31 H31            4.0481     5.9055     0.8840 H       
  32 H32            4.0306     5.9150    -0.8959 H       
  33 H33            4.1877     8.2195    -0.0847 H       
  34 H34            2.5872     7.9701    -0.8226 H       
  35 H35            1.6738     9.7802     0.5469 H       
  36 H36            1.8656     9.6753     2.3134 H       
  37 H37            3.2744    10.0296     1.2847 H       
  38 H38           -2.4892     1.0366     0.0327 H       
  39 H39           -4.6250    -0.2324     0.0471 H       
  40 H40           -4.5359    -2.7156     0.0329 H       
  41 H41           -1.3920    -4.5965    -0.4431 H       
  42 H42           -2.3791    -5.8854     1.4312 H       
  43 H43           -1.5915    -4.4020     2.0208 H       
  44 H44           -3.3647    -4.4738     1.8829 H       
  45 H45           -3.4366    -4.4552    -1.8390 H       
  46 H46           -3.4565    -5.9165    -0.8228 H       
  47 H47           -4.4421    -4.5048    -0.3711 H       
@<TRIPOS>BOND
   1    1    2 ar
   2    1   10 ar
   3    2    3 ar
   4    2   17 1
   5    3    4 ar
   6    3   27 1
   7    4    5 ar
   8    4   11 1
   9    5    6 ar
  10    5   10 ar
  11    6    7 ar
  12    6   28 1
  13    7    8 ar
  14    7   29 1
  15    8    9 ar
  16    8   12 1
  17    9   10 ar
  18    9   26 1
  19   11   30 1
  20   12   13 1
  21   13   14 1
  22   13   31 1
  23   13   32 1
  24   14   15 1
  25   14   33 1
  26   14   34 1
  27   15   16 1
  28   16   35 1
  29   16   36 1
  30   16   37 1
  31   17   18 ar
  32   17   22 ar
  33   18   19 ar
  34   18   38 1
  35   19   20 ar
  36   19   39 1
  37   20   21 ar
  38   20   40 1
  39   21   22 ar
  40   21   23 1
  41   23   24 1
  42   23   25 1
  43   23   41 1
  44   24   42 1
  45   24   43 1
  46   24   44 1
  47   25   45 1
  48   25   46 1
  49   25   47 1

#	End of record

