#	Name: ASD03330587
#	Creating user name:	WinNT
#	Creation time:	15. 06. 2019 20:37

#	Modifying user name:	WinNT
#	Modification time:	15. 06. 2019 20:37

#	Program:	/corina/corina34_cracker 3.40 0067  02.08.2006

@<TRIPOS>MOLECULE
ASD03330587
  60   61    0    0    0
SMALL
NO_CHARGES


@<TRIPOS>ATOM
   1 C1             0.2180     2.5157     0.2108 C.2     
   2 N2             0.0413     1.2053     0.5257 N.pl3   
   3 C3             1.5525     2.7742     0.3042 C.2     
   4 N4             2.1719     1.6267     0.6544 N.2     
   5 C5             1.2735     0.6765     0.7843 C.2     
   6 C6             1.5494    -0.7239     1.1475 C.2     
   7 C7             2.2039     4.0743     0.0649 C.2     
   8 O8             1.5353     5.0409    -0.2479 O.2     
   9 C9             4.1879     5.4845    -0.0452 C.3     
  10 N10            3.5404     4.1921     0.1927 N.am    
  11 C11            4.4637     5.6490    -1.5411 C.3     
  12 C12            3.1402     5.6332    -2.3085 C.3     
  13 C13            5.1786     6.9797    -1.7845 C.3     
  14 C14            5.3483     4.4987    -2.0261 C.3     
  15 C15            5.4879     5.5425     0.7147 C.2     
  16 N16            6.0351     6.7347     1.0241 N.am    
  17 O17            6.0419     4.5163     1.0479 O.2     
  18 C18            7.2352     6.7945     1.8623 C.3     
  19 C19           -1.2482     0.5117     0.5847 C.3     
  20 C20           -2.0579     0.8489    -0.6713 C.3     
  21 C21           -2.8619     2.1242    -0.4396 C.3     
  22 N22           -2.1368     3.0536     0.4291 N.3     
  23 C23           -0.8702     3.4803    -0.1839 C.3     
  24 C24           -2.9716     4.2122     0.7736 C.3     
  25 C25            3.9436    -0.2263     0.9068 C.3     
  26 C26            2.8039    -1.1450     1.2646 C.2     
  27 C27            3.0873    -2.5415     1.7551 C.3     
  28 H28            0.7318    -1.4085     1.3186 H       
  29 H29            3.5327     6.2870     0.2939 H       
  30 H30            4.0735     3.4211     0.4422 H       
  31 H31            2.5101     6.4527    -1.9630 H       
  32 H32            3.3368     5.7504    -3.3742 H       
  33 H33            2.6310     4.6852    -2.1351 H       
  34 H34            6.1036     7.0059    -1.2085 H       
  35 H35            5.4081     7.0801    -2.8453 H       
  36 H36            4.5333     7.8011    -1.4731 H       
  37 H37            4.8391     3.5507    -1.8527 H       
  38 H38            5.5449     4.6159    -3.0918 H       
  39 H39            6.2912     4.5100    -1.4793 H       
  40 H40            5.6343     7.5531     0.6919 H       
  41 H41            7.0245     6.3420     2.8313 H       
  42 H42            8.0454     6.2512     1.3760 H       
  43 H43            7.5285     7.8348     2.0031 H       
  44 H44           -1.0813    -0.5643     0.6326 H       
  45 H45           -1.7962     0.8361     1.4693 H       
  46 H46           -1.3792     0.9959    -1.5115 H       
  47 H47           -2.7382     0.0272    -0.8955 H       
  48 H48           -3.0527     2.6059    -1.3986 H       
  49 H49           -3.8133     1.8675     0.0263 H       
  50 H50           -0.6149     4.4806     0.1658 H       
  51 H51           -0.9746     3.4878    -1.2688 H       
  52 H52           -3.8668     3.8729     1.2947 H       
  53 H53           -2.4088     4.8863     1.4193 H       
  54 H54           -3.2585     4.7371    -0.1376 H       
  55 H55            4.2015     0.3861     1.7709 H       
  56 H56            4.8089    -0.8191     0.6104 H       
  57 H57            3.6448     0.4187     0.0805 H       
  58 H58            2.1466    -3.0519     1.9619 H       
  59 H59            3.6380    -3.0902     0.9910 H       
  60 H60            3.6822    -2.4925     2.6671 H       
@<TRIPOS>BOND
   1    1    2 1
   2    1    3 2
   3    1   23 1
   4    2   19 1
   5    2    5 1
   6    3    4 1
   7    3    7 1
   8    4    5 2
   9    5    6 1
  10    6   26 2
  11    6   28 1
  12    7    8 2
  13    7   10 am
  14    9   10 1
  15    9   11 1
  16    9   15 1
  17    9   29 1
  18   10   30 1
  19   11   12 1
  20   11   13 1
  21   11   14 1
  22   12   31 1
  23   12   32 1
  24   12   33 1
  25   13   34 1
  26   13   35 1
  27   13   36 1
  28   14   37 1
  29   14   38 1
  30   14   39 1
  31   15   16 am
  32   15   17 2
  33   16   18 1
  34   16   40 1
  35   18   41 1
  36   18   42 1
  37   18   43 1
  38   19   20 1
  39   19   44 1
  40   19   45 1
  41   20   21 1
  42   20   46 1
  43   20   47 1
  44   21   22 1
  45   21   48 1
  46   21   49 1
  47   22   23 1
  48   22   24 1
  49   23   50 1
  50   23   51 1
  51   24   52 1
  52   24   53 1
  53   24   54 1
  54   25   26 1
  55   25   55 1
  56   25   56 1
  57   25   57 1
  58   26   27 1
  59   27   58 1
  60   27   59 1
  61   27   60 1

#	End of record

