#	Name: ASD01883992
#	Creating user name:	WinNT
#	Creation time:	15. 06. 2019 19:47

#	Modifying user name:	WinNT
#	Modification time:	15. 06. 2019 19:47

#	Program:	/corina/corina34_cracker 3.40 0067  02.08.2006

@<TRIPOS>MOLECULE
ASD01883992
  43   45    0    0    0
SMALL
NO_CHARGES


@<TRIPOS>ATOM
   1 C1            -0.0187     1.5258     0.0104 C.3     
   2 C2             0.0021    -0.0041     0.0020 C.3     
   3 C3             0.7182    -0.4975    -1.2568 C.3     
   4 C4             0.7390    -2.0273    -1.2652 C.3     
   5 N5             1.4247    -2.4998    -2.4705 N.am    
   6 C6             0.6465    -2.7339    -3.6817 C.3     
   7 C7             1.3717    -2.2639    -4.9427 C.3     
   8 N8             2.7562    -2.7346    -4.9065 N.pl3   
   9 C9             3.4349    -2.9314    -3.7215 C.2     
  10 N10            4.6480    -3.3273    -3.9902 N.2     
  11 C11            4.8032    -3.4151    -5.3103 C.2     
  12 Cl12           6.2498    -3.9064    -6.1349 Cl      
  13 C13            3.6102    -3.0469    -5.9115 C.2     
  14 C14            3.3256    -3.0039    -7.3603 C.ar    
  15 C15            2.1281    -3.5258    -7.8545 C.ar    
  16 C16            1.8662    -3.4833    -9.2068 C.ar    
  17 C17            2.7914    -2.9228   -10.0781 C.ar    
  18 O18            2.5294    -2.8828   -11.4104 O.3     
  19 C19            3.5240    -2.2925   -12.2497 C.3     
  20 C20            3.9836    -2.4026    -9.5907 C.ar    
  21 C21            4.2507    -2.4360    -8.2391 C.ar    
  22 C22            2.7624    -2.7008    -2.4289 C.2     
  23 O23            3.3784    -2.6956    -1.3799 O.2     
  24 H24            1.0039     1.9031     0.0027 H       
  25 H25           -0.5459     1.8868    -0.8726 H       
  26 H26           -0.5289     1.8773     0.9072 H       
  27 H27            0.5293    -0.3651     0.8851 H       
  28 H28           -1.0205    -0.3814     0.0098 H       
  29 H29            0.1910    -0.1364    -2.1398 H       
  30 H30            1.7408    -0.1202    -1.2645 H       
  31 H31            1.2661    -2.3884    -0.3821 H       
  32 H32           -0.2836    -2.4046    -1.2575 H       
  33 H33            0.4427    -3.8011    -3.7691 H       
  34 H34           -0.3011    -2.2014    -3.6005 H       
  35 H35            0.8722    -2.6696    -5.8225 H       
  36 H36            1.3585    -1.1748    -4.9856 H       
  37 H37            1.4084    -3.9625    -7.1778 H       
  38 H38            0.9404    -3.8867    -9.5898 H       
  39 H39            4.4577    -2.8462   -12.1513 H       
  40 H40            3.1900    -2.3248   -13.2868 H       
  41 H41            3.6829    -1.2563   -11.9512 H       
  42 H42            4.7003    -1.9677   -10.2715 H       
  43 H43            5.1759    -2.0273    -7.8605 H       
@<TRIPOS>BOND
   1    1    2 1
   2    1   24 1
   3    1   25 1
   4    1   26 1
   5    2    3 1
   6    2   27 1
   7    2   28 1
   8    3    4 1
   9    3   29 1
  10    3   30 1
  11    4    5 1
  12    4   31 1
  13    4   32 1
  14    5   22 am
  15    5    6 1
  16    6    7 1
  17    6   33 1
  18    6   34 1
  19    7    8 1
  20    7   35 1
  21    7   36 1
  22    8   13 1
  23    8    9 1
  24    9   10 2
  25    9   22 1
  26   10   11 1
  27   11   12 1
  28   11   13 2
  29   13   14 1
  30   14   21 ar
  31   14   15 ar
  32   15   16 ar
  33   15   37 1
  34   16   17 ar
  35   16   38 1
  36   17   18 1
  37   17   20 ar
  38   18   19 1
  39   19   39 1
  40   19   40 1
  41   19   41 1
  42   20   21 ar
  43   20   42 1
  44   21   43 1
  45   22   23 2

#	End of record

