#	Name: ASD01180276
#	Creating user name:	WinNT
#	Creation time:	15. 06. 2019 19:07

#	Modifying user name:	WinNT
#	Modification time:	15. 06. 2019 19:07

#	Program:	/corina/corina34_cracker 3.40 0067  02.08.2006

@<TRIPOS>MOLECULE
ASD01180276
  60   62    0    0    0
SMALL
NO_CHARGES


@<TRIPOS>ATOM
   1 C1            -2.1321    -2.2810    -6.7222 C.2     
   2 C2            -1.6333    -2.9753    -5.4812 C.3     
   3 C3            -0.5538    -3.9900    -5.8634 C.3     
   4 O4            -1.6714    -2.5682    -7.8016 O.2     
   5 O5            -3.0920    -1.3474    -6.6290 O.3     
   6 C6             0.8910    -5.6064    -4.7511 C.2     
   7 C7             1.3793    -6.2861    -3.5361 C.ar    
   8 C8             2.3786    -7.2679    -3.6226 C.ar    
   9 C9             2.8014    -7.8725    -2.4700 C.ar    
  10 C10            2.2323    -7.4991    -1.2535 C.ar    
  11 N11            1.2891    -6.5686    -1.1994 N.ar    
  12 C12            0.8583    -5.9581    -2.2837 C.ar    
  13 O13            1.3546    -5.8954    -5.8374 O.2     
  14 N14           -0.0689    -4.6650    -4.6569 N.am    
  15 N15            2.6575    -8.1087    -0.0853 N.pl3   
  16 C16            3.7830    -9.0460    -0.1159 C.3     
  17 C17            4.4266    -9.1156     1.2705 C.3     
  18 C18            5.0452    -7.7591     1.6143 C.3     
  19 C19            5.7904    -7.8615     2.9466 C.3     
  20 C20            2.4065   -12.8441    -1.2061 C.ar    
  21 N21            3.5618   -12.4099    -1.6920 N.ar    
  22 C22            4.0248   -11.2150    -1.3674 C.ar    
  23 C23            3.2871   -10.4137    -0.5087 C.ar    
  24 C24            2.0835   -10.8985    -0.0190 C.ar    
  25 N25            1.6772   -12.1026    -0.3828 N.ar    
  26 C26            1.9160   -14.1869    -1.5970 C.ar    
  27 C27            0.7036   -14.6610    -1.0966 C.ar    
  28 C28            0.2499   -15.9101    -1.4625 C.ar    
  29 C29            0.9988   -16.6964    -2.3284 C.ar    
  30 C30            2.2067   -16.2273    -2.8281 C.ar    
  31 C31            2.6631   -14.9767    -2.4705 C.ar    
  32 O32            0.5491   -17.9267    -2.6870 O.3     
  33 C33            1.3692   -18.6821    -3.5809 C.3     
  34 F34            2.6222   -18.8955    -2.9964 F       
  35 F35            0.7610   -19.9144    -3.8431 F       
  36 F36            1.5272   -17.9759    -4.7782 F       
  37 H37           -1.2132    -2.2385    -4.7965 H       
  38 H38           -2.4616    -3.4915    -4.9958 H       
  39 H39           -0.9739    -4.7269    -6.5480 H       
  40 H40            0.2745    -3.4738    -6.3487 H       
  41 H41           -3.3795    -0.9297    -7.4524 H       
  42 H42            2.8040    -7.5403    -4.5772 H       
  43 H43            3.5684    -8.6321    -2.5026 H       
  44 H44            0.0925    -5.2008    -2.2036 H       
  45 H45           -0.4387    -4.4344    -3.7904 H       
  46 H46            2.2102    -7.9151     0.7534 H       
  47 H47            4.5206    -8.7045    -0.8421 H       
  48 H48            3.6675    -9.3670     2.0112 H       
  49 H49            5.2034    -9.8802     1.2724 H       
  50 H50            5.7430    -7.4685     0.8290 H       
  51 H51            4.2571    -7.0105     1.6953 H       
  52 H52            6.2311    -6.8951     3.1916 H       
  53 H53            5.0925    -8.1521     3.7319 H       
  54 H54            6.5785    -8.6101     2.8656 H       
  55 H55            4.9663   -10.8670    -1.7660 H       
  56 H56            1.4855   -10.2995     0.6518 H       
  57 H57            0.1211   -14.0502    -0.4229 H       
  58 H58           -0.6887   -16.2779    -1.0750 H       
  59 H59            2.7872   -16.8413    -3.5008 H       
  60 H60            3.6001   -14.6105    -2.8632 H       
@<TRIPOS>BOND
   1    1    2 1
   2    1    4 2
   3    1    5 1
   4    2    3 1
   5    2   37 1
   6    2   38 1
   7    3   14 1
   8    3   39 1
   9    3   40 1
  10    5   41 1
  11    6    7 1
  12    6   13 2
  13    6   14 am
  14    7    8 ar
  15    7   12 ar
  16    8    9 ar
  17    8   42 1
  18    9   10 ar
  19    9   43 1
  20   10   11 ar
  21   10   15 1
  22   11   12 ar
  23   12   44 1
  24   14   45 1
  25   15   16 1
  26   15   46 1
  27   16   17 1
  28   16   23 1
  29   16   47 1
  30   17   18 1
  31   17   48 1
  32   17   49 1
  33   18   19 1
  34   18   50 1
  35   18   51 1
  36   19   52 1
  37   19   53 1
  38   19   54 1
  39   20   21 ar
  40   20   25 ar
  41   20   26 1
  42   21   22 ar
  43   22   23 ar
  44   22   55 1
  45   23   24 ar
  46   24   25 ar
  47   24   56 1
  48   26   27 ar
  49   26   31 ar
  50   27   28 ar
  51   27   57 1
  52   28   29 ar
  53   28   58 1
  54   29   30 ar
  55   29   32 1
  56   30   31 ar
  57   30   59 1
  58   31   60 1
  59   32   33 1
  60   33   34 1
  61   33   35 1
  62   33   36 1

#	End of record

