#	Name: ASD03240976
#	Creating user name:	WinNT
#	Creation time:	15. 06. 2019 20:35

#	Modifying user name:	WinNT
#	Modification time:	15. 06. 2019 20:35

#	Program:	/corina/corina34_cracker 3.40 0067  02.08.2006

@<TRIPOS>MOLECULE
ASD03240976
  58   63    0    0    0
SMALL
NO_CHARGES


@<TRIPOS>ATOM
   1 C1            -0.0188     1.5336     0.0105 C.3     
   2 C2             0.0021    -0.0041     0.0020 C.3     
   3 C3             1.3815     0.0967    -0.6702 C.3     
   4 C4             1.5179     1.4762    -0.0045 C.3     
   5 O5            -0.5818     2.1049    -1.1721 O.3     
   6 C6            -0.5973     2.1316     1.2944 C.3     
   7 C7             2.3746    -0.9181    -0.1653 C.ar    
   8 C8             3.3681    -1.3872    -1.0061 C.ar    
   9 C9             4.2801    -2.3167    -0.5498 C.ar    
  10 C10            4.1992    -2.7830     0.7623 C.ar    
  11 C11            3.1955    -2.3058     1.6054 C.ar    
  12 C12            2.2926    -1.3725     1.1389 C.ar    
  13 N13            6.9679    -6.5947    -0.0355 N.pl3   
  14 C14            7.8694    -7.5266     0.4028 C.2     
  15 N15            8.3262    -7.5367     1.6676 N.2     
  16 C16            7.9358    -6.6566     2.5531 C.2     
  17 C17            6.9738    -5.6301     2.1578 C.ar    
  18 C18            6.5189    -4.6619     3.0595 C.ar    
  19 C19            5.6029    -3.7221     2.5988 C.ar    
  20 C20            5.1745    -3.7809     1.2582 C.ar    
  21 N21            5.6278    -4.7127     0.4332 N.ar    
  22 C22            6.4979    -5.6253     0.8295 C.ar    
  23 C23            8.1475    -8.3530    -0.6776 C.2     
  24 C24            7.4019    -7.9007    -1.7589 C.2     
  25 N25            6.6965    -6.8609    -1.3830 N.2     
  26 C26            7.4000    -8.5088    -3.1378 C.3     
  27 C27            5.0839    -2.6717     3.5074 C.ar    
  28 C28            4.5770    -3.0175     4.7588 C.ar    
  29 C29            4.0950    -2.0337     5.6015 C.ar    
  30 C30            4.1158    -0.7067     5.2031 C.ar    
  31 C31            4.6180    -0.3601     3.9624 C.ar    
  32 C32            5.1066    -1.3343     3.1153 C.ar    
  33 F33            3.6027    -2.3663     6.8149 F       
  34 N34            1.3186     0.1546    -2.1367 N.3     
  35 H35            0.0329    -0.4458     0.9980 H       
  36 H36           -0.7629    -0.4476    -0.6353 H       
  37 H37            1.9766     2.2276    -0.6471 H       
  38 H38            1.9632     1.4391     0.9897 H       
  39 H39           -0.5977     3.0718    -1.1727 H       
  40 H40            0.0010     1.8098     2.1469 H       
  41 H41           -0.5800     3.2195     1.2285 H       
  42 H42           -1.6249     1.7917     1.4227 H       
  43 H43            3.4298    -1.0254    -2.0218 H       
  44 H44            5.0548    -2.6827    -1.2073 H       
  45 H45            3.1277    -2.6631     2.6223 H       
  46 H46            1.5177    -0.9991     1.7919 H       
  47 H47            8.3189    -6.6884     3.5624 H       
  48 H48            6.8677    -4.6452     4.0815 H       
  49 H49            8.8227    -9.1959    -0.6775 H       
  50 H50            6.6265    -9.2745    -3.1961 H       
  51 H51            7.1997    -7.7329    -3.8767 H       
  52 H52            8.3725    -8.9587    -3.3378 H       
  53 H53            4.5604    -4.0518     5.0691 H       
  54 H54            3.7381     0.0595     5.8640 H       
  55 H55            4.6315     0.6757     3.6568 H       
  56 H56            5.5026    -1.0610     2.1484 H       
  57 H57            2.2430     0.2199    -2.5360 H       
  58 H58            0.8193    -0.6393    -2.5089 H       
@<TRIPOS>BOND
   1    1    2 1
   2    1    4 1
   3    1    5 1
   4    1    6 1
   5    2    3 1
   6    2   35 1
   7    2   36 1
   8    3    4 1
   9    3    7 1
  10    3   34 1
  11    4   37 1
  12    4   38 1
  13    5   39 1
  14    6   40 1
  15    6   41 1
  16    6   42 1
  17    7    8 ar
  18    7   12 ar
  19    8    9 ar
  20    8   43 1
  21    9   10 ar
  22    9   44 1
  23   10   11 ar
  24   10   20 1
  25   11   12 ar
  26   11   45 1
  27   12   46 1
  28   13   14 1
  29   13   22 1
  30   13   25 1
  31   14   15 1
  32   14   23 2
  33   15   16 2
  34   16   17 1
  35   16   47 1
  36   17   18 ar
  37   17   22 ar
  38   18   19 ar
  39   18   48 1
  40   19   20 ar
  41   19   27 1
  42   20   21 ar
  43   21   22 ar
  44   23   24 1
  45   23   49 1
  46   24   25 2
  47   24   26 1
  48   26   50 1
  49   26   51 1
  50   26   52 1
  51   27   28 ar
  52   27   32 ar
  53   28   29 ar
  54   28   53 1
  55   29   30 ar
  56   29   33 1
  57   30   31 ar
  58   30   54 1
  59   31   32 ar
  60   31   55 1
  61   32   56 1
  62   34   57 1
  63   34   58 1

#	End of record

