#	Name: ASD04590594
#	Creating user name:	WinNT
#	Creation time:	15. 06. 2019 20:51

#	Modifying user name:	WinNT
#	Modification time:	15. 06. 2019 20:51

#	Program:	/corina/corina34_cracker 3.40 0067  02.08.2006

@<TRIPOS>MOLECULE
ASD04590594
  74   79    0    0    0
SMALL
NO_CHARGES


@<TRIPOS>ATOM
   1 C1            -0.0578    -1.5655     0.2530 C.2     
   2 C2             0.8537    -1.2561    -0.8881 C.2     
   3 O3             0.3178    -2.2902     1.1498 O.2     
   4 O4            -1.2942    -1.0357     0.2892 O.3     
   5 O5             0.5271    -0.4356    -1.7204 O.2     
   6 N6             2.0394    -1.8881    -0.9939 N.am    
   7 C7             2.4411    -2.7814    -0.0079 C.ar    
   8 N8             1.8116    -3.9394     0.0982 N.ar    
   9 C9             2.1666    -4.8203     1.0286 C.ar    
  10 C10            3.2275    -4.4899     1.8961 C.ar    
  11 C11            3.8590    -3.2593     1.7460 C.ar    
  12 N12            3.4456    -2.4444     0.7894 N.ar    
  13 N13            1.7048    -6.0689     1.3642 N.pl3   
  14 C14            3.3941    -5.6324     2.8034 C.ar    
  15 C15            2.4254    -6.5812     2.4290 C.ar    
  16 C16            2.3608    -7.7751     3.1351 C.ar    
  17 C17            4.2481    -5.9286     3.8647 C.ar    
  18 C18            4.1110    -7.1410     4.5078 C.ar    
  19 N19            3.1896    -8.0100     4.1321 N.ar    
  20 C20            0.6036    -6.7614     0.6904 C.3     
  21 C21           -0.7169    -6.0637     1.0228 C.3     
  22 C22           -1.8671    -6.7869     0.3191 C.3     
  23 C23           -1.6401    -6.7549    -1.1936 C.3     
  24 C24           -0.3196    -7.4525    -1.5261 C.3     
  25 C25            0.8305    -6.7294    -0.8224 C.3     
  26 C26           -2.7902    -7.4780    -1.8973 C.3     
  27 N27            3.6441    -2.6062    -2.5507 N.ar    
  28 C28            2.8632    -1.6457    -2.0930 C.ar    
  29 C29            2.8553    -0.3939    -2.6985 C.ar    
  30 C30            3.6755    -0.1788    -3.7894 C.ar    
  31 C31            4.4828    -1.2200    -4.2413 C.ar    
  32 C32            5.3577    -0.9656    -5.4416 C.3     
  33 N33            6.3137    -2.0674    -5.5980 N.am    
  34 C34            5.7973    -3.4371    -5.4407 C.3     
  35 C35            5.3162    -3.5962    -3.9994 C.3     
  36 C36            4.4507    -2.4319    -3.5912 C.ar    
  37 C37            7.6121    -1.8351    -5.8750 C.2     
  38 O38            8.3715    -2.7656    -6.0479 O.2     
  39 C39            8.1165    -0.4316    -5.9691 C.2     
  40 O40            7.3478     0.4983    -5.8482 O.2     
  41 O41            9.4236    -0.1997    -6.1880 O.3     
  42 C42            9.8426     1.1882    -6.2678 C.3     
  43 C43           -2.1838    -1.5090     1.3346 C.3     
  44 H44            4.6748    -2.9768     2.3949 H       
  45 H45            1.6245    -8.5176     2.8649 H       
  46 H46            5.0029    -5.2223     4.1772 H       
  47 H47            4.7663    -7.3833     5.3313 H       
  48 H48            0.5632    -7.7963     1.0299 H       
  49 H49           -0.8787    -6.0865     2.1005 H       
  50 H50           -0.6766    -5.0287     0.6833 H       
  51 H51           -1.9074    -7.8219     0.6586 H       
  52 H52           -2.8078    -6.2899     0.5559 H       
  53 H53           -1.5997    -5.7199    -1.5332 H       
  54 H54           -0.3599    -8.4875    -1.1865 H       
  55 H55           -0.1579    -7.4297    -2.6038 H       
  56 H56            0.8709    -5.6944    -1.1619 H       
  57 H57            1.7713    -7.2264    -1.0592 H       
  58 H58           -3.7309    -6.9810    -1.6605 H       
  59 H59           -2.6285    -7.4552    -2.9750 H       
  60 H60           -2.8305    -8.5130    -1.5578 H       
  61 H61            2.2200     0.3948    -2.3235 H       
  62 H62            3.6902     0.7812    -4.2839 H       
  63 H63            4.7367    -0.8947    -6.3346 H       
  64 H64            5.9009    -0.0309    -5.3030 H       
  65 H65            4.9658    -3.5986    -6.1268 H       
  66 H66            6.5905    -4.1559    -5.6460 H       
  67 H67            4.7409    -4.5181    -3.9132 H       
  68 H68            6.1801    -3.6504    -3.3370 H       
  69 H69           10.9168     1.2337    -6.4467 H       
  70 H70            9.3168     1.6800    -7.0863 H       
  71 H71            9.6086     1.6928    -5.3304 H       
  72 H72           -2.3822    -2.5709     1.1897 H       
  73 H73           -1.7153    -1.3564     2.3070 H       
  74 H74           -3.1215    -0.9550     1.2921 H       
@<TRIPOS>BOND
   1    1    2 1
   2    1    3 2
   3    1    4 1
   4    2    5 2
   5    2    6 am
   6    4   43 1
   7    6    7 1
   8    6   28 1
   9    7    8 ar
  10    7   12 ar
  11    8    9 ar
  12    9   10 ar
  13    9   13 1
  14   10   11 ar
  15   10   14 1
  16   11   12 ar
  17   11   44 1
  18   13   15 1
  19   13   20 1
  20   14   15 ar
  21   14   17 ar
  22   15   16 ar
  23   16   19 ar
  24   16   45 1
  25   17   18 ar
  26   17   46 1
  27   18   19 ar
  28   18   47 1
  29   20   21 1
  30   20   25 1
  31   20   48 1
  32   21   22 1
  33   21   49 1
  34   21   50 1
  35   22   23 1
  36   22   51 1
  37   22   52 1
  38   23   24 1
  39   23   26 1
  40   23   53 1
  41   24   25 1
  42   24   54 1
  43   24   55 1
  44   25   56 1
  45   25   57 1
  46   26   58 1
  47   26   59 1
  48   26   60 1
  49   27   28 ar
  50   27   36 ar
  51   28   29 ar
  52   29   30 ar
  53   29   61 1
  54   30   31 ar
  55   30   62 1
  56   31   32 1
  57   31   36 ar
  58   32   33 1
  59   32   63 1
  60   32   64 1
  61   33   34 1
  62   33   37 am
  63   34   35 1
  64   34   65 1
  65   34   66 1
  66   35   36 1
  67   35   67 1
  68   35   68 1
  69   37   38 2
  70   37   39 1
  71   39   40 2
  72   39   41 1
  73   41   42 1
  74   42   69 1
  75   42   70 1
  76   42   71 1
  77   43   72 1
  78   43   73 1
  79   43   74 1

#	End of record

