#	Name: ASD03930121
#	Creating user name:	WinNT
#	Creation time:	15. 06. 2019 20:47

#	Modifying user name:	WinNT
#	Modification time:	15. 06. 2019 20:47

#	Program:	/corina/corina34_cracker 3.40 0067  02.08.2006

@<TRIPOS>MOLECULE
ASD03930121
  49   51    0    0    0
SMALL
NO_CHARGES


@<TRIPOS>ATOM
   1 C1            -0.0436     1.3208    -0.2064 C.ar    
   2 C2            -0.0059    -0.0432     0.0160 C.ar    
   3 C3             1.2091    -0.6884     0.1375 C.ar    
   4 C4             2.3910     0.0267     0.0376 C.ar    
   5 C5             2.3533     1.3903    -0.1847 C.ar    
   6 C6             1.1338     2.0355    -0.3066 C.ar    
   7 C7             3.8289    -0.4366     0.1331 C.3     
   8 C8             4.6509     0.8458     0.3819 C.3     
   9 C9             3.7632     1.9368    -0.2539 C.3     
  10 N10            5.9489     0.7717    -0.2933 N.am    
  11 C11           -1.2894    -0.8252     0.1263 C.3     
  12 N12           -1.6873    -1.3004    -1.2012 N.pl3   
  13 N13           -1.8722    -0.5055    -2.3398 N.2     
  14 C14           -2.2243    -1.2852    -3.3298 C.2     
  15 C15           -2.2748    -2.5995    -2.8542 C.2     
  16 C16           -1.9348    -2.5818    -1.5445 C.2     
  17 C17           -2.5241    -0.8433    -4.7390 C.3     
  18 F18           -2.2585     0.5245    -4.8653 F       
  19 F19           -1.7205    -1.5589    -5.6331 F       
  20 F20           -3.8716    -1.0852    -5.0269 F       
  21 S21            7.2929     1.4225     0.4225 S.o2    
  22 O22            7.2894     0.8780     1.7350 O.2     
  23 O23            8.3471     1.1367    -0.4864 O.2     
  24 C24            6.9610     3.2052     0.4721 C.3     
  25 C25           -2.6375    -3.8206    -3.6595 C.3     
  26 F26           -1.4811    -4.3634    -4.2300 F       
  27 C27            8.1405     3.9255     1.1283 C.3     
  28 C28            6.7727     3.7287    -0.9532 C.3     
  29 H29           -0.9929     1.8261    -0.3061 H       
  30 H30            1.2378    -1.7539     0.3113 H       
  31 H31            1.1036     3.1010    -0.4803 H       
  32 H32            3.9484    -1.1299     0.9656 H       
  33 H33            4.1370    -0.9082    -0.8001 H       
  34 H34            4.7779     1.0235     1.4498 H       
  35 H35            4.0537     2.1036    -1.2912 H       
  36 H36            3.8379     2.8639     0.3144 H       
  37 H37            6.0211     0.3413    -1.1596 H       
  38 H38           -1.1393    -1.6785     0.7877 H       
  39 H39           -2.0718    -0.1840     0.5322 H       
  40 H40           -1.8788    -3.4386    -0.8895 H       
  41 H41            6.0553     3.3902     1.0497 H       
  42 H42           -3.1030    -4.5603    -3.0082 H       
  43 H43           -3.3353    -3.5411    -4.4489 H       
  44 H44            9.0462     3.7405     0.5507 H       
  45 H45            7.9411     4.9967     1.1581 H       
  46 H46            8.2747     3.5526     2.1437 H       
  47 H47            6.6581     4.8124    -0.9300 H       
  48 H48            7.6441     3.4682    -1.5540 H       
  49 H49            5.8818     3.2784    -1.3909 H       
@<TRIPOS>BOND
   1    1    2 ar
   2    1    6 ar
   3    1   29 1
   4    2    3 ar
   5    2   11 1
   6    3    4 ar
   7    3   30 1
   8    4    5 ar
   9    4    7 1
  10    5    6 ar
  11    5    9 1
  12    6   31 1
  13    7    8 1
  14    7   32 1
  15    7   33 1
  16    8    9 1
  17    8   10 1
  18    8   34 1
  19    9   35 1
  20    9   36 1
  21   10   21 am
  22   10   37 1
  23   11   12 1
  24   11   38 1
  25   11   39 1
  26   12   13 1
  27   12   16 1
  28   13   14 2
  29   14   15 1
  30   14   17 1
  31   15   16 2
  32   15   25 1
  33   16   40 1
  34   17   18 1
  35   17   19 1
  36   17   20 1
  37   21   22 2
  38   21   23 2
  39   21   24 1
  40   24   27 1
  41   24   28 1
  42   24   41 1
  43   25   26 1
  44   25   42 1
  45   25   43 1
  46   27   44 1
  47   27   45 1
  48   27   46 1
  49   28   47 1
  50   28   48 1
  51   28   49 1

#	End of record

