#	Name: ASD01140388
#	Creating user name:	WinNT
#	Creation time:	15. 06. 2019 19:00

#	Modifying user name:	WinNT
#	Modification time:	15. 06. 2019 19:00

#	Program:	/corina/corina34_cracker 3.40 0067  02.08.2006

@<TRIPOS>MOLECULE
ASD01140388
  41   43    0    0    0
SMALL
NO_CHARGES


@<TRIPOS>ATOM
   1 C1            -0.0028     1.3299    -0.0234 C.2     
   2 C2             0.0312    -0.0298    -0.0133 C.2     
   3 C3             1.2683    -0.6949     0.0057 C.2     
   4 C4             2.4197     0.0090     0.0139 C.2     
   5 C5             1.2084     2.0515    -0.0147 C.2     
   6 N6             1.4685     3.3507    -0.0210 N.2     
   7 N7             2.4006     1.3741     0.0039 N.pl3   
   8 C8             3.3975     2.3096     0.0086 C.2     
   9 C9             2.7983     3.5329    -0.0070 C.2     
  10 C10            3.4961     4.8425    -0.0092 C.ar    
  11 C11            4.5173     5.0918     0.9053 C.ar    
  12 C12            5.1640     6.3106     0.8998 C.ar    
  13 C13            4.7997     7.2875    -0.0131 C.ar    
  14 C14            3.7856     7.0462    -0.9247 C.ar    
  15 C15            3.1356     5.8262    -0.9308 C.ar    
  16 C16            4.8799     2.0386     0.0276 C.3     
  17 C17            5.3683     1.8186    -1.3810 C.2     
  18 N18            6.6707     1.5578    -1.6096 N.am    
  19 O19            4.5895     1.8761    -2.3089 O.2     
  20 C20            7.1456     1.3439    -2.9789 C.3     
  21 C21            7.6116     1.4883    -0.4887 C.3     
  22 C22            1.3100    -2.2013     0.0175 C.3     
  23 F23            1.1932    -2.6607     1.3337 F       
  24 F24            0.2515    -2.7031    -0.7473 F       
  25 F25            2.5241    -2.6384    -0.5230 F       
  26 F26            5.4357     8.4794    -0.0134 F       
  27 F27            2.1501     5.5886    -1.8238 F       
  28 H28           -0.9483     1.8516    -0.0425 H       
  29 H29           -0.8887    -0.5956    -0.0194 H       
  30 H30            3.3653    -0.5125     0.0288 H       
  31 H31            4.8021     4.3320     1.6180 H       
  32 H32            5.9555     6.5038     1.6087 H       
  33 H33            3.5050     7.8104    -1.6343 H       
  34 H34            5.3997     2.8919     0.4632 H       
  35 H35            5.0789     1.1485     0.6244 H       
  36 H36            7.4486     2.2974    -3.4115 H       
  37 H37            7.9973     0.6638    -2.9660 H       
  38 H38            6.3443     0.9114    -3.5779 H       
  39 H39            7.6597     0.4645    -0.1177 H       
  40 H40            8.6006     1.7999    -0.8247 H       
  41 H41            7.2744     2.1488     0.3101 H       
@<TRIPOS>BOND
   1    1    2 2
   2    1    5 1
   3    1   28 1
   4    2    3 1
   5    2   29 1
   6    3    4 2
   7    3   22 1
   8    4    7 1
   9    4   30 1
  10    5    7 1
  11    5    6 2
  12    6    9 1
  13    7    8 1
  14    8    9 2
  15    8   16 1
  16    9   10 1
  17   10   11 ar
  18   10   15 ar
  19   11   12 ar
  20   11   31 1
  21   12   13 ar
  22   12   32 1
  23   13   14 ar
  24   13   26 1
  25   14   15 ar
  26   14   33 1
  27   15   27 1
  28   16   17 1
  29   16   34 1
  30   16   35 1
  31   17   18 am
  32   17   19 2
  33   18   20 1
  34   18   21 1
  35   20   36 1
  36   20   37 1
  37   20   38 1
  38   21   39 1
  39   21   40 1
  40   21   41 1
  41   22   23 1
  42   22   24 1
  43   22   25 1

#	End of record

