#	Name: ASD05313150
#	Creating user name:	WinNT
#	Creation time:	15. 06. 2019 20:58

#	Modifying user name:	WinNT
#	Modification time:	15. 06. 2019 20:58

#	Program:	/corina/corina34_cracker 3.40 0067  02.08.2006

@<TRIPOS>MOLECULE
ASD05313150
  40   43    0    0    0
SMALL
NO_CHARGES


@<TRIPOS>ATOM
   1 C1            -0.0460     0.8376     0.9968 C.2     
   2 C2             0.1271    -0.6039     0.5816 C.3     
   3 N3             0.9654     1.7409     1.0195 N.pl3   
   4 N4             1.4714    -0.7218    -0.0142 N.am    
   5 C5             2.5900    -0.0459     0.6604 C.3     
   6 C6             2.3508     1.4686     0.6406 C.3     
   7 N7            -0.8621     2.6744     1.6631 N.2     
   8 N8            -1.1265     1.4427     1.3906 N.2     
   9 C9             0.4171     2.9098     1.4525 C.2     
  10 C10            1.1222     4.1947     1.6514 C.ar    
  11 C11            0.4224     5.3154     2.1035 C.ar    
  12 N12            2.4267     4.2856     1.4055 N.ar    
  13 N13            1.0569     6.4589     2.2796 N.ar    
  14 C14            2.3524     6.5441     2.0286 C.ar    
  15 C15            3.0514     5.4344     1.5851 C.ar    
  16 C16            1.6690    -1.4289    -1.1444 C.2     
  17 O17            2.7630    -1.4346    -1.6744 O.2     
  18 C18            0.5556    -2.1974    -1.7394 C.ar    
  19 C19            0.3191    -2.1381    -3.1143 C.ar    
  20 C20           -0.7211    -2.8572    -3.6636 C.ar    
  21 C21           -1.5308    -3.6375    -2.8544 C.ar    
  22 C22           -1.3014    -3.6999    -1.4901 C.ar    
  23 C23           -0.2601    -2.9899    -0.9300 C.ar    
  24 C24            1.1986    -1.2894    -3.9959 C.3     
  25 Cl25          -2.8386    -4.5401    -3.5533 Cl      
  26 H26            0.0481    -1.2541     1.4530 H       
  27 H27           -0.6309    -0.8727    -0.1542 H       
  28 H28            2.6546    -0.3907     1.6924 H       
  29 H29            3.5203    -0.2744     0.1405 H       
  30 H30            2.5366     1.8534    -0.3622 H       
  31 H31            3.0238     1.9530     1.3480 H       
  32 H32           -0.6357     5.2465     2.3083 H       
  33 H33            2.8679     7.4820     2.1737 H       
  34 H34            4.1103     5.5088     1.3860 H       
  35 H35           -0.9053    -2.8119    -4.7268 H       
  36 H36           -1.9364    -4.3093    -0.8641 H       
  37 H37           -0.0789    -3.0434     0.1334 H       
  38 H38            2.0887    -1.8544    -4.2727 H       
  39 H39            0.6505    -1.0110    -4.8959 H       
  40 H40            1.4929    -0.3891    -3.4566 H       
@<TRIPOS>BOND
   1    1    2 1
   2    1    3 1
   3    1    8 2
   4    2    4 1
   5    2   26 1
   6    2   27 1
   7    3    6 1
   8    3    9 1
   9    4    5 1
  10    4   16 am
  11    5    6 1
  12    5   28 1
  13    5   29 1
  14    6   30 1
  15    6   31 1
  16    7    8 1
  17    7    9 2
  18    9   10 1
  19   10   11 ar
  20   10   12 ar
  21   11   13 ar
  22   11   32 1
  23   12   15 ar
  24   13   14 ar
  25   14   15 ar
  26   14   33 1
  27   15   34 1
  28   16   17 2
  29   16   18 1
  30   18   19 ar
  31   18   23 ar
  32   19   20 ar
  33   19   24 1
  34   20   21 ar
  35   20   35 1
  36   21   22 ar
  37   21   25 1
  38   22   23 ar
  39   22   36 1
  40   23   37 1
  41   24   38 1
  42   24   39 1
  43   24   40 1

#	End of record

