#	Name: ASD01150042
#	Creating user name:	WinNT
#	Creation time:	15. 06. 2019 19:03

#	Modifying user name:	WinNT
#	Modification time:	15. 06. 2019 19:03

#	Program:	/corina/corina34_cracker 3.40 0067  02.08.2006

@<TRIPOS>MOLECULE
ASD01150042
  43   46    0    0    0
SMALL
NO_CHARGES


@<TRIPOS>ATOM
   1 C1            -0.0159     1.3221     0.0093 C.ar    
   2 N2             0.0021    -0.0041     0.0020 N.ar    
   3 C3            -1.1203    -0.7014     0.0090 C.ar    
   4 C4            -2.3400    -0.0248     0.0243 C.ar    
   5 C5            -2.3209     1.3842     0.0317 C.ar    
   6 N6            -1.1511     2.0087     0.0293 N.ar    
   7 C7            -3.6220    -0.7680     0.0320 C.ar    
   8 C8            -3.8474    -1.7845    -0.8956 C.ar    
   9 C9            -5.0429    -2.4734    -0.8831 C.ar    
  10 C10           -6.0168    -2.1575     0.0472 C.ar    
  11 C11           -5.7990    -1.1500     0.9699 C.ar    
  12 C12           -4.6054    -0.4577     0.9707 C.ar    
  13 C13           -7.3205    -2.9134     0.0551 C.3     
  14 F14           -7.2091    -4.0265     0.8952 F       
  15 F15           -8.3412    -2.0778     0.5210 F       
  16 F16           -7.6215    -3.3376    -1.2437 F       
  17 N17           -3.5029     2.1040     0.0463 N.pl3   
  18 C18           -3.4686     3.5685     0.0539 C.3     
  19 C19           -3.3531     4.0974     1.5018 C.3     
  20 C20           -4.6441     4.9452     1.7159 C.3     
  21 C21           -4.4379     6.2038     0.8189 C.3     
  22 C22           -4.5533     5.6749    -0.6290 C.3     
  23 C23           -4.8185     4.1466    -0.4705 C.3     
  24 C24           -5.6704     4.1352     0.8476 C.3     
  25 C25            1.2266     2.0340     0.0013 C.1     
  26 N26            2.2123     2.5987    -0.0051 N.1     
  27 H27           -1.0936    -1.7810     0.0026 H       
  28 H28           -3.0879    -2.0318    -1.6225 H       
  29 H29           -5.2188    -3.2607    -1.6013 H       
  30 H30           -6.5630    -0.9078     1.6938 H       
  31 H31           -4.4364     0.3286     1.6915 H       
  32 H32           -4.3540     1.6387     0.0516 H       
  33 H33           -2.6374     3.9315    -0.5506 H       
  34 H34           -3.3219     3.2677     2.2080 H       
  35 H35           -2.4663     4.7221     1.6086 H       
  36 H36           -4.9205     5.1389     2.7524 H       
  37 H37           -5.2144     6.9427     1.0166 H       
  38 H38           -3.4508     6.6339     0.9888 H       
  39 H39           -5.3866     6.1538    -1.1432 H       
  40 H40           -3.6230     5.8450    -1.1710 H       
  41 H41           -5.2467     3.6447    -1.3381 H       
  42 H42           -5.8206     3.1250     1.2286 H       
  43 H43           -6.6146     4.6668     0.7287 H       
@<TRIPOS>BOND
   1    1    2 ar
   2    1   25 1
   3    1    6 ar
   4    2    3 ar
   5    3    4 ar
   6    3   27 1
   7    4    5 ar
   8    4    7 1
   9    5    6 ar
  10    5   17 1
  11    7    8 ar
  12    7   12 ar
  13    8    9 ar
  14    8   28 1
  15    9   10 ar
  16    9   29 1
  17   10   11 ar
  18   10   13 1
  19   11   12 ar
  20   11   30 1
  21   12   31 1
  22   13   14 1
  23   13   15 1
  24   13   16 1
  25   17   18 1
  26   17   32 1
  27   18   19 1
  28   18   23 1
  29   18   33 1
  30   19   20 1
  31   19   34 1
  32   19   35 1
  33   20   21 1
  34   20   24 1
  35   20   36 1
  36   21   22 1
  37   21   37 1
  38   21   38 1
  39   22   23 1
  40   22   39 1
  41   22   40 1
  42   23   24 1
  43   23   41 1
  44   24   42 1
  45   24   43 1
  46   25   26 3

#	End of record

