#	Name: ASD01148206
#	Creating user name:	WinNT
#	Creation time:	15. 06. 2019 19:02

#	Modifying user name:	WinNT
#	Modification time:	15. 06. 2019 19:02

#	Program:	/corina/corina34_cracker 3.40 0067  02.08.2006

@<TRIPOS>MOLECULE
ASD01148206
  53   55    0    0    0
SMALL
NO_CHARGES


@<TRIPOS>ATOM
   1 C1            -0.0167     1.3779     0.0096 C.ar    
   2 C2             0.0021    -0.0041     0.0020 C.ar    
   3 C3             1.2086    -0.6790    -0.0132 C.ar    
   4 C4             2.3961     0.0283    -0.0212 C.ar    
   5 C5             2.3773     1.4107    -0.0145 C.ar    
   6 C6             1.1711     2.0854     0.0021 C.ar    
   7 C7             3.6720     2.1819    -0.0223 C.3     
   8 O8             4.6970     1.4625    -0.7374 O.3     
   9 C9             3.5436     3.4712    -0.8682 C.3     
  10 C10            4.0476     3.0252    -2.2276 C.2     
  11 N11            4.6725     1.9053    -2.0799 N.2     
  12 C12            3.8561     3.7474    -3.5006 C.ar    
  13 C13            4.3751     3.2222    -4.6868 C.ar    
  14 C14            3.1509     4.9534    -3.5204 C.ar    
  15 C15            2.9724     5.6268    -4.7077 C.ar    
  16 C16            3.4962     5.1045    -5.8926 C.ar    
  17 C17            4.1964     3.8959    -5.8739 C.ar    
  18 C18            3.3041     5.8274    -7.1673 C.2     
  19 O19            2.6902     6.8765    -7.1846 O.2     
  20 N20            3.8095     5.3235    -8.3106 N.am    
  21 C21            4.1227     2.5042     1.4038 C.3     
  22 F22            4.2968     1.3140     2.1181 F       
  23 F23            5.3329     3.2050     1.3633 F       
  24 F24            3.1506     3.2884     2.0341 F       
  25 C25            3.6190     6.0401    -9.5741 C.3     
  26 C26            4.2756     5.2712   -10.6916 C.2     
  27 N27            4.2284     5.7435   -11.9530 N.am    
  28 O28            4.8465     4.2274   -10.4558 O.2     
  29 C29            4.8667     4.9960   -13.0394 C.3     
  30 C30            4.6678     5.7444   -14.3589 C.3     
  31 F31            5.2447     7.0155   -14.2657 F       
  32 F32            5.2773     5.0306   -15.3963 F       
  33 F33            3.2995     5.8713   -14.6214 F       
  34 C34            1.2291    -2.1858    -0.0205 C.3     
  35 F35           -0.0834    -2.6701    -0.0097 F       
  36 F36            1.8834    -2.6378    -1.1715 F       
  37 F37            1.9062    -2.6485     1.1130 F       
  38 H38           -0.9592     1.9051     0.0170 H       
  39 H39           -0.9258    -0.5567     0.0083 H       
  40 H40            3.3386    -0.4989    -0.0324 H       
  41 H41            1.1565     3.1653     0.0077 H       
  42 H42            2.5039     3.7931    -0.9275 H       
  43 H43            4.1727     4.2639    -0.4632 H       
  44 H44            4.9167     2.2880    -4.6722 H       
  45 H45            2.7455     5.3571    -2.6044 H       
  46 H46            2.4269     6.5589    -4.7231 H       
  47 H47            4.6014     3.4922    -6.7901 H       
  48 H48            4.2994     4.4864    -8.2969 H       
  49 H49            2.5529     6.1390    -9.7786 H       
  50 H50            4.0685     7.0305    -9.5015 H       
  51 H51            3.7719     6.5783   -12.1416 H       
  52 H52            5.9328     4.8971   -12.8349 H       
  53 H53            4.4173     4.0056   -13.1120 H       
@<TRIPOS>BOND
   1    1    2 ar
   2    1    6 ar
   3    1   38 1
   4    2    3 ar
   5    2   39 1
   6    3    4 ar
   7    3   34 1
   8    4    5 ar
   9    4   40 1
  10    5    6 ar
  11    5    7 1
  12    6   41 1
  13    7    8 1
  14    7    9 1
  15    7   21 1
  16    8   11 1
  17    9   10 1
  18    9   42 1
  19    9   43 1
  20   10   11 2
  21   10   12 1
  22   12   13 ar
  23   12   14 ar
  24   13   17 ar
  25   13   44 1
  26   14   15 ar
  27   14   45 1
  28   15   16 ar
  29   15   46 1
  30   16   17 ar
  31   16   18 1
  32   17   47 1
  33   18   19 2
  34   18   20 am
  35   20   25 1
  36   20   48 1
  37   21   22 1
  38   21   23 1
  39   21   24 1
  40   25   26 1
  41   25   49 1
  42   25   50 1
  43   26   28 2
  44   26   27 am
  45   27   29 1
  46   27   51 1
  47   29   30 1
  48   29   52 1
  49   29   53 1
  50   30   31 1
  51   30   32 1
  52   30   33 1
  53   34   35 1
  54   34   36 1
  55   34   37 1

#	End of record

