#	Name: ASD02039417
#	Creating user name:	WinNT
#	Creation time:	15. 06. 2019 20:18

#	Modifying user name:	WinNT
#	Modification time:	15. 06. 2019 20:18

#	Program:	/corina/corina34_cracker 3.40 0067  02.08.2006

@<TRIPOS>MOLECULE
ASD02039417
  51   54    0    0    0
SMALL
NO_CHARGES


@<TRIPOS>ATOM
   1 C1            -0.1515     1.6144     0.4997 C.ar    
   2 C2            -1.1140     1.3856    -0.4733 C.ar    
   3 C3             1.1997     2.1704     0.1310 C.3     
   4 N4             2.2220     1.5888     1.0045 N.am    
   5 C5             2.5396     0.1617     0.9111 C.3     
   6 C6             2.8703     2.3666     1.8939 C.2     
   7 C7             3.9821     1.8115     2.6852 C.2     
   8 C8             4.6513     2.4453     3.6910 C.2     
   9 N9             4.5235     0.5739     2.5503 N.2     
  10 C10            5.4836     0.4374     3.4187 C.2     
  11 N11            5.5901     1.5813     4.1437 N.pl3   
  12 O12            2.5375     3.5269     2.0433 O.2     
  13 C13           -2.3446     0.8751    -0.1031 C.ar    
  14 C14           -1.7242     0.8183     2.1197 C.ar    
  15 C15           -0.4624     1.3258     1.8174 C.ar    
  16 C16           -2.0730     0.5045     3.5267 C.ar    
  17 C17           -3.3331    -0.0035     3.8378 C.ar    
  18 C18           -1.1396     0.7113     4.5410 C.ar    
  19 C19           -1.4681     0.4175     5.8482 C.ar    
  20 C20           -2.7239    -0.0824     6.1536 C.ar    
  21 C21           -3.6531    -0.2945     5.1478 C.ar    
  22 C22            6.5494     1.8349     5.2215 C.3     
  23 N23           -2.6132     0.6047     1.1580 N.ar    
  24 C24            2.1623    -0.6370     2.1700 C.3     
  25 C25            1.6907    -1.7541     1.2242 C.3     
  26 C26            1.4735    -0.6592     0.1665 C.3     
  27 C27            1.5146     1.8218    -1.3251 C.3     
  28 F28           -3.0413    -0.3691     7.4351 F       
  29 H29           -0.9040     1.6046    -1.5098 H       
  30 H30            1.1921     3.2537     0.2518 H       
  31 H31            3.5562    -0.0239     0.5647 H       
  32 H32            4.4675     3.4450     4.0560 H       
  33 H33            6.0947    -0.4441     3.5446 H       
  34 H34           -3.0959     0.6959    -0.8580 H       
  35 H35            0.2603     1.4989     2.6011 H       
  36 H36           -4.0580    -0.1688     3.0545 H       
  37 H37           -0.1605     1.1005     4.3038 H       
  38 H38           -0.7454     0.5771     6.6347 H       
  39 H39           -4.6308    -0.6839     5.3903 H       
  40 H40            7.4583     2.2686     4.8044 H       
  41 H41            6.1130     2.5279     5.9408 H       
  42 H42            6.7907     0.8967     5.7213 H       
  43 H43            3.0192    -0.9165     2.7828 H       
  44 H44            1.3563    -0.1854     2.7483 H       
  45 H45            2.4749    -2.4646     0.9625 H       
  46 H46            0.7692    -2.2390     1.5464 H       
  47 H47            0.4792    -0.2137     0.1971 H       
  48 H48            1.7744    -0.9567    -0.8381 H       
  49 H49            0.7540     2.2545    -1.9749 H       
  50 H50            2.4920     2.2240    -1.5917 H       
  51 H51            1.5222     0.7385    -1.4458 H       
@<TRIPOS>BOND
   1    1    2 ar
   2    1    3 1
   3    1   15 ar
   4    2   13 ar
   5    2   29 1
   6    3    4 1
   7    3   27 1
   8    3   30 1
   9    4    5 1
  10    4    6 am
  11    5   24 1
  12    5   26 1
  13    5   31 1
  14    6    7 1
  15    6   12 2
  16    7    8 2
  17    7    9 1
  18    8   11 1
  19    8   32 1
  20    9   10 2
  21   10   11 1
  22   10   33 1
  23   11   22 1
  24   13   23 ar
  25   13   34 1
  26   14   15 ar
  27   14   16 1
  28   14   23 ar
  29   15   35 1
  30   16   17 ar
  31   16   18 ar
  32   17   21 ar
  33   17   36 1
  34   18   19 ar
  35   18   37 1
  36   19   20 ar
  37   19   38 1
  38   20   21 ar
  39   20   28 1
  40   21   39 1
  41   22   40 1
  42   22   41 1
  43   22   42 1
  44   24   25 1
  45   24   43 1
  46   24   44 1
  47   25   26 1
  48   25   45 1
  49   25   46 1
  50   26   47 1
  51   26   48 1
  52   27   49 1
  53   27   50 1
  54   27   51 1

#	End of record

