#	Name: ASD00100149
#	Creating user name:	WinNT
#	Creation time:	15. 06. 2019 18:30

#	Modifying user name:	WinNT
#	Modification time:	15. 06. 2019 18:30

#	Program:	/corina/corina34_cracker 3.40 0067  02.08.2006

@<TRIPOS>MOLECULE
ASD00100149
  44   47    0    0    0
SMALL
NO_CHARGES


@<TRIPOS>ATOM
   1 N1            -0.1244     1.5350     0.3555 N.pl3   
   2 C2            -0.0179     0.1662     0.1767 C.2     
   3 N3             1.1017    -0.5003     0.0322 N.2     
   4 C4             0.8190    -1.8181    -0.1192 C.2     
   5 C5            -0.5274    -1.9647    -0.0653 C.2     
   6 N6            -1.0577    -0.7098     0.1278 N.pl3   
   7 S7             3.9580    -4.2153    -0.5918 S.3     
   8 C8             2.4024    -5.0408    -0.6135 C.2     
   9 N9             1.4500    -4.1698    -0.4518 N.2     
  10 C10            1.8091    -2.9073    -0.3106 C.2     
  11 C11            3.1367    -2.6747    -0.3520 C.2     
  12 C12            2.2092    -6.4963    -0.7889 C.ar    
  13 C13            3.3124    -7.3347    -0.9548 C.ar    
  14 C14            3.1253    -8.6918    -1.1175 C.ar    
  15 C15            1.8474    -9.2221    -1.1164 C.ar    
  16 C16            0.7495    -8.3963    -0.9525 C.ar    
  17 C17            0.9231    -7.0381    -0.7835 C.ar    
  18 C18           -2.4791    -0.3780     0.2537 C.3     
  19 C19           -3.0241     0.0166    -1.0947 C.ar    
  20 C20           -3.4566    -0.9592    -1.9814 C.ar    
  21 C21           -3.9578    -0.5928    -3.2218 C.ar    
  22 C22           -4.0252     0.7422    -3.5715 C.ar    
  23 C23           -3.5932     1.7124    -2.6864 C.ar    
  24 C24           -3.0989     1.3501    -1.4468 C.ar    
  25 O25           -3.3889    -2.2716    -1.6353 O.3     
  26 C26           -3.8518    -3.2210    -2.5977 C.3     
  27 H27            0.6759     2.0775     0.4337 H       
  28 H28           -0.9991     1.9519     0.3985 H       
  29 H29           -1.0780    -2.8897    -0.1527 H       
  30 H30            3.6142    -1.7109    -0.2545 H       
  31 H31            4.3105    -6.9220    -0.9561 H       
  32 H32            3.9782    -9.3417    -1.2463 H       
  33 H33            1.7063   -10.2851    -1.2445 H       
  34 H34           -0.2455    -8.8164    -0.9526 H       
  35 H35            0.0655    -6.3951    -0.6515 H       
  36 H36           -3.0233    -1.2460     0.6258 H       
  37 H37           -2.5981     0.4516     0.9506 H       
  38 H38           -4.2947    -1.3504    -3.9138 H       
  39 H39           -4.4153     1.0280    -4.5371 H       
  40 H40           -3.6461     2.7554    -2.9619 H       
  41 H41           -2.7665     2.1101    -0.7552 H       
  42 H42           -4.9017    -3.0306    -2.8201 H       
  43 H43           -3.2643    -3.1283    -3.5112 H       
  44 H44           -3.7424    -4.2284    -2.1961 H       
@<TRIPOS>BOND
   1    1    2 1
   2    1   27 1
   3    1   28 1
   4    2    3 2
   5    2    6 1
   6    3    4 1
   7    4    5 2
   8    4   10 1
   9    5    6 1
  10    5   29 1
  11    6   18 1
  12    7    8 1
  13    7   11 1
  14    8    9 2
  15    8   12 1
  16    9   10 1
  17   10   11 2
  18   11   30 1
  19   12   13 ar
  20   12   17 ar
  21   13   14 ar
  22   13   31 1
  23   14   15 ar
  24   14   32 1
  25   15   16 ar
  26   15   33 1
  27   16   17 ar
  28   16   34 1
  29   17   35 1
  30   18   19 1
  31   18   36 1
  32   18   37 1
  33   19   20 ar
  34   19   24 ar
  35   20   21 ar
  36   20   25 1
  37   21   22 ar
  38   21   38 1
  39   22   23 ar
  40   22   39 1
  41   23   24 ar
  42   23   40 1
  43   24   41 1
  44   25   26 1
  45   26   42 1
  46   26   43 1
  47   26   44 1

#	End of record

