#	Name: ASD03331594
#	Creating user name:	WinNT
#	Creation time:	15. 06. 2019 20:39

#	Modifying user name:	WinNT
#	Modification time:	15. 06. 2019 20:39

#	Program:	/corina/corina34_cracker 3.40 0067  02.08.2006

@<TRIPOS>MOLECULE
ASD03331594
  30   30    0    0    0
SMALL
NO_CHARGES


@<TRIPOS>ATOM
   1 C1            -0.0311     1.3538    -0.1834 C.2     
   2 C2            -0.0991    -0.1451    -0.0431 C.3     
   3 C3            -0.1100    -0.5184     1.4406 C.3     
   4 C4            -1.3508     0.0787     2.1076 C.3     
   5 O5             1.0456     1.9100    -0.2332 O.2     
   6 C6            -0.1376    -2.0416     1.5830 C.3     
   7 C7             1.1473     0.0342     2.1149 C.3     
   8 N8            -1.1666     2.0758    -0.2592 N.am    
   9 C9            -1.5119     3.5046    -0.3066 C.3     
  10 C10           -2.8624     3.1437     0.3275 C.3     
  11 C11           -2.6054     1.7814    -0.3374 C.3     
  12 N12            1.0711    -0.7513    -0.6920 N.3     
  13 H13           -1.0089    -0.5135    -0.5172 H       
  14 H14           -2.2456    -0.2868     1.6038 H       
  15 H15           -1.3777    -0.2176     3.1563 H       
  16 H16           -1.3131     1.1658     2.0381 H       
  17 H17            0.7464    -2.4669     1.1078 H       
  18 H18           -0.1454    -2.3075     2.6401 H       
  19 H19           -1.0333    -2.4353     1.1027 H       
  20 H20            1.1669     1.1193     2.0134 H       
  21 H21            1.1395    -0.2318     3.1719 H       
  22 H22            2.0312    -0.3912     1.6397 H       
  23 H23           -0.8837     4.1244     0.3331 H       
  24 H24           -1.5991     3.8966    -1.3199 H       
  25 H25           -2.8528     3.1218     1.4172 H       
  26 H26           -3.7106     3.6883    -0.0873 H       
  27 H27           -2.9809     1.7192    -1.3588 H       
  28 H28           -2.9089     0.9331     0.2762 H       
  29 H29            1.9278    -0.4254    -0.2700 H       
  30 H30            1.0166    -1.7585    -0.6680 H       
@<TRIPOS>BOND
   1    1    2 1
   2    1    5 2
   3    1    8 am
   4    2    3 1
   5    2   12 1
   6    2   13 1
   7    3    4 1
   8    3    6 1
   9    3    7 1
  10    4   14 1
  11    4   15 1
  12    4   16 1
  13    6   17 1
  14    6   18 1
  15    6   19 1
  16    7   20 1
  17    7   21 1
  18    7   22 1
  19    8    9 1
  20    8   11 1
  21    9   10 1
  22    9   23 1
  23    9   24 1
  24   10   11 1
  25   10   25 1
  26   10   26 1
  27   11   27 1
  28   11   28 1
  29   12   29 1
  30   12   30 1

#	End of record

