#	Name: ASD04882250
#	Creating user name:	WinNT
#	Creation time:	15. 06. 2019 20:54

#	Modifying user name:	WinNT
#	Modification time:	15. 06. 2019 20:54

#	Program:	/corina/corina34_cracker 3.40 0067  02.08.2006

@<TRIPOS>MOLECULE
ASD04882250
  80   85    0    0    0
SMALL
NO_CHARGES


@<TRIPOS>ATOM
   1 N1            -0.1359     1.5549    -0.0366 N.am    
   2 C2            -0.0762     0.1550    -0.0459 C.ar    
   3 C3            -1.2526    -0.5957     0.0296 C.ar    
   4 C4            -1.1949    -1.9847     0.0209 C.ar    
   5 C5             0.0211    -2.6259    -0.0626 C.ar    
   6 C6             1.2014    -1.8812    -0.1384 C.ar    
   7 C7             1.1457    -0.4845    -0.1356 C.ar    
   8 N8            -2.4843     0.0484     0.1142 N.3     
   9 C9            -2.6114     0.7772     1.3839 C.3     
  10 C10           -3.5899    -0.9047    -0.0556 C.3     
  11 C11           -4.9200    -0.1478    -0.0358 C.3     
  12 N12           -5.0470     0.5810     1.2340 N.3     
  13 C13           -3.9415     1.5341     1.4037 C.3     
  14 C14            2.5039    -2.5682    -0.2274 C.2     
  15 O15            3.5303    -1.9195    -0.2933 O.2     
  16 N16            2.5562    -3.9150    -0.2355 N.am    
  17 C17           -6.2825     1.2271     1.3188 C.ar    
  18 C18           -6.6014     1.9742     2.4456 C.ar    
  19 C19           -7.1927     1.1287     0.2741 C.ar    
  20 C20           -8.4133     1.7687     0.3612 C.ar    
  21 C21           -8.7297     2.5074     1.4867 C.ar    
  22 C22           -7.8238     2.6117     2.5263 C.ar    
  23 C23            3.8496    -4.5973    -0.3238 C.3     
  24 C24            3.6293    -6.1113    -0.3144 C.3     
  25 C25            4.9801    -6.8239    -0.4066 C.3     
  26 N26            4.7690    -8.2736    -0.3976 N.am    
  27 C27            0.8460     2.2673     0.5506 C.2     
  28 C28            0.8492     3.7381     0.4524 C.2     
  29 C29            4.5695    -9.0888    -1.6016 C.3     
  30 C30            3.9672   -10.4208    -1.1022 C.3     
  31 C31            4.4875   -10.4762     0.3529 C.3     
  32 C32            4.7391    -9.0287     0.7140 C.2     
  33 O33            4.8851    -8.6097     1.8426 O.2     
  34 O34            1.7295     1.6967     1.1615 O.2     
  35 C35            1.7708     4.5824     0.9910 C.2     
  36 N36           -0.0655     4.5068    -0.1986 N.2     
  37 C37            0.2728     5.7539    -0.0622 C.2     
  38 O38            1.3969     5.8299     0.6642 O.3     
  39 C39           -0.4776     6.9290    -0.6340 C.3     
  40 C40          -10.0623     3.2053     1.5778 C.3     
  41 C41           -1.0157     7.9700     0.3497 C.3     
  42 C42            0.1849     8.3048    -0.5377 C.3     
  43 H43           -0.8819     2.0113    -0.4561 H       
  44 H44           -2.1056    -2.5622     0.0801 H       
  45 H45            0.0627    -3.7051    -0.0692 H       
  46 H46            2.0561     0.0935    -0.1945 H       
  47 H47           -2.5827     0.0705     2.2133 H       
  48 H48           -1.7885     1.4855     1.4807 H       
  49 H49           -3.4804    -1.4227    -1.0084 H       
  50 H50           -3.5723    -1.6305     0.7574 H       
  51 H51           -4.9486     0.5589    -0.8652 H       
  52 H52           -5.7429    -0.8561    -0.1325 H       
  53 H53           -4.0510     2.0521     2.3565 H       
  54 H54           -3.9590     2.2599     0.5907 H       
  55 H55            1.7375    -4.4325    -0.1829 H       
  56 H56           -5.8943     2.0561     3.2579 H       
  57 H57           -6.9459     0.5525    -0.6055 H       
  58 H58           -9.1215     1.6926    -0.4507 H       
  59 H59           -8.0740     3.1894     3.4038 H       
  60 H60            4.3503    -4.3087    -1.2480 H       
  61 H61            4.4683    -4.3149     0.5280 H       
  62 H62            3.1286    -6.3999     0.6098 H       
  63 H63            3.0106    -6.3937    -1.1662 H       
  64 H64            5.4807    -6.5353    -1.3308 H       
  65 H65            5.5987    -6.5415     0.4452 H       
  66 H66            3.8770    -8.5934    -2.2821 H       
  67 H67            5.5232    -9.2686    -2.0977 H       
  68 H68            2.8779   -10.3896    -1.1260 H       
  69 H69            4.3446   -11.2619    -1.6837 H       
  70 H70            3.7351   -10.9112     1.0108 H       
  71 H71            5.4158   -11.0452     0.4047 H       
  72 H72            2.6375     4.3024     1.5714 H       
  73 H73           -1.0750     6.7188    -1.5211 H       
  74 H74          -10.7921     2.5366     2.0341 H       
  75 H75           -9.9612     4.1032     2.1873 H       
  76 H76          -10.3973     3.4807     0.5778 H       
  77 H77           -1.9670     8.4449     0.1095 H       
  78 H78           -0.8270     7.8049     1.4104 H       
  79 H79            1.1634     8.3600    -0.0607 H       
  80 H80            0.0234     9.0000    -1.3616 H       
@<TRIPOS>BOND
   1    1    2 1
   2    1   27 am
   3    1   43 1
   4    2    3 ar
   5    2    7 ar
   6    3    4 ar
   7    3    8 1
   8    4    5 ar
   9    4   44 1
  10    5    6 ar
  11    5   45 1
  12    6    7 ar
  13    6   14 1
  14    7   46 1
  15    8    9 1
  16    8   10 1
  17    9   13 1
  18    9   47 1
  19    9   48 1
  20   10   11 1
  21   10   49 1
  22   10   50 1
  23   11   12 1
  24   11   51 1
  25   11   52 1
  26   12   13 1
  27   12   17 1
  28   13   53 1
  29   13   54 1
  30   14   15 2
  31   14   16 am
  32   16   23 1
  33   16   55 1
  34   17   18 ar
  35   17   19 ar
  36   18   22 ar
  37   18   56 1
  38   19   20 ar
  39   19   57 1
  40   20   21 ar
  41   20   58 1
  42   21   22 ar
  43   21   40 1
  44   22   59 1
  45   23   24 1
  46   23   60 1
  47   23   61 1
  48   24   25 1
  49   24   62 1
  50   24   63 1
  51   25   26 1
  52   25   64 1
  53   25   65 1
  54   26   29 1
  55   26   32 am
  56   27   34 2
  57   27   28 1
  58   28   35 2
  59   28   36 1
  60   29   30 1
  61   29   66 1
  62   29   67 1
  63   30   31 1
  64   30   68 1
  65   30   69 1
  66   31   32 1
  67   31   70 1
  68   31   71 1
  69   32   33 2
  70   35   38 1
  71   35   72 1
  72   36   37 2
  73   37   38 1
  74   37   39 1
  75   39   41 1
  76   39   42 1
  77   39   73 1
  78   40   74 1
  79   40   75 1
  80   40   76 1
  81   41   42 1
  82   41   77 1
  83   41   78 1
  84   42   79 1
  85   42   80 1

#	End of record

