#	Name: ASD05430380
#	Creating user name:	WinNT
#	Creation time:	15. 06. 2019 21:00

#	Modifying user name:	WinNT
#	Modification time:	15. 06. 2019 21:00

#	Program:	/corina/corina34_cracker 3.40 0067  02.08.2006

@<TRIPOS>MOLECULE
ASD05430380
  67   71    0    0    0
SMALL
NO_CHARGES


@<TRIPOS>ATOM
   1 C1            -0.2284     0.3723    -0.4714 C.ar    
   2 C2            -0.2381    -0.6359    -1.4347 C.ar    
   3 C3            -1.3902    -0.8893    -2.1680 C.ar    
   4 C4            -2.5290    -0.1457    -1.9471 C.ar    
   5 C5            -2.5267     0.8668    -0.9822 C.ar    
   6 C6            -1.3686     1.1184    -0.2404 C.ar    
   7 C7            -4.9532     1.0806    -0.8214 C.2     
   8 C8            -3.7422     1.6627    -0.7450 C.2     
   9 N9            -7.2126     1.3593     0.0404 N.pl3   
  10 C10           -6.1869     1.8829    -0.7456 C.2     
  11 O11            0.9011     0.6176     0.2445 O.3     
  12 C12            0.8396     1.6650     1.2147 C.3     
  13 C13            0.9980    -2.7627    -1.7107 C.2     
  14 N14            0.9174    -1.3950    -1.6639 N.pl3   
  15 C15            2.2865    -3.0694    -1.9540 C.2     
  16 N16            2.9779    -1.9244    -2.0539 N.2     
  17 C17            2.1691    -0.9145    -1.8820 C.2     
  18 C18            2.8537    -4.4590    -2.0901 C.3     
  19 C19           -7.0713    -0.0118     0.5293 C.3     
  20 C20           -6.4817    -0.8833    -0.5864 C.3     
  21 C21           -5.0884    -0.4140    -0.9937 C.3     
  22 C22           -8.3820     2.1845     0.3318 C.3     
  23 C23           -8.7011     3.0253    -0.9095 C.3     
  24 O24           -7.5401     3.7320    -1.3338 O.3     
  25 N25           -6.3369     2.9987    -1.3779 N.2     
  26 C26           -9.5572     1.3008     0.6623 C.ar    
  27 C27          -10.3033     1.5418     1.8007 C.ar    
  28 C28          -11.7158    -0.3226     1.2696 C.ar    
  29 C29          -10.9702    -0.5588     0.1254 C.ar    
  30 C30           -9.8910     0.2540    -0.1763 C.ar    
  31 F31          -12.7694    -1.1148     1.5659 F       
  32 F32          -11.2960    -1.5819    -0.6945 F       
  33 C33          -11.3829     0.7310     2.1063 C.ar    
  34 F34          -12.1113     0.9664     3.2195 F       
  35 C35           -8.0805     3.1062     1.5152 C.3     
  36 C36           -6.3987    -2.3306    -0.0973 C.3     
  37 O37           -7.7587     2.3181     2.6630 O.3     
  38 C38           -6.8956     4.0100     1.1686 C.3     
  39 H39           -1.3934    -1.6708    -2.9134 H       
  40 H40           -3.4232    -0.3444    -2.5192 H       
  41 H41           -1.3627     1.8991     0.5059 H       
  42 H42           -3.6621     2.7137    -0.5098 H       
  43 H43            1.8047     1.7556     1.7132 H       
  44 H44            0.5968     2.6052     0.7195 H       
  45 H45            0.0704     1.4332     1.9514 H       
  46 H46            0.1851    -3.4604    -1.5740 H       
  47 H47            2.4482     0.1285    -1.9091 H       
  48 H48            2.8052    -4.7707    -3.1334 H       
  49 H49            3.8919    -4.4618    -1.7580 H       
  50 H50            2.2743    -5.1495    -1.4773 H       
  51 H51           -6.4062    -0.0239     1.3928 H       
  52 H52           -8.0491    -0.3989     0.8159 H       
  53 H53           -7.1380    -0.8395    -1.4557 H       
  54 H54           -4.9144    -0.6717    -2.0384 H       
  55 H55           -4.3456    -0.9151    -0.3730 H       
  56 H56           -9.0392     2.3704    -1.7125 H       
  57 H57           -9.4906     3.7378    -0.6702 H       
  58 H58          -10.0436     2.3629     2.4524 H       
  59 H59           -9.3097     0.0703    -1.0678 H       
  60 H60           -8.9552     3.7202     1.7296 H       
  61 H61           -7.3972    -2.6859     0.1575 H       
  62 H62           -5.9803    -2.9570    -0.8852 H       
  63 H63           -5.7594    -2.3802     0.7841 H       
  64 H64           -6.9886     1.7456     2.5437 H       
  65 H65           -7.1410     4.6111     0.2931 H       
  66 H66           -6.6807     4.6666     2.0117 H       
  67 H67           -6.0208     3.3960     0.9542 H       
@<TRIPOS>BOND
   1    1    2 ar
   2    1   11 1
   3    1    6 ar
   4    2    3 ar
   5    2   14 1
   6    3    4 ar
   7    3   39 1
   8    4    5 ar
   9    4   40 1
  10    5    6 ar
  11    5    8 1
  12    6   41 1
  13    7    8 2
  14    7   21 1
  15    7   10 1
  16    8   42 1
  17    9   10 1
  18    9   22 1
  19    9   19 1
  20   10   25 2
  21   11   12 1
  22   12   43 1
  23   12   44 1
  24   12   45 1
  25   13   14 1
  26   13   15 2
  27   13   46 1
  28   14   17 1
  29   15   16 1
  30   15   18 1
  31   16   17 2
  32   17   47 1
  33   18   48 1
  34   18   49 1
  35   18   50 1
  36   19   20 1
  37   19   51 1
  38   19   52 1
  39   20   36 1
  40   20   21 1
  41   20   53 1
  42   21   54 1
  43   21   55 1
  44   22   23 1
  45   22   26 1
  46   22   35 1
  47   23   24 1
  48   23   56 1
  49   23   57 1
  50   24   25 1
  51   26   27 ar
  52   26   30 ar
  53   27   33 ar
  54   27   58 1
  55   28   29 ar
  56   28   31 1
  57   28   33 ar
  58   29   30 ar
  59   29   32 1
  60   30   59 1
  61   33   34 1
  62   35   37 1
  63   35   38 1
  64   35   60 1
  65   36   61 1
  66   36   62 1
  67   36   63 1
  68   37   64 1
  69   38   65 1
  70   38   66 1
  71   38   67 1

#	End of record

