#	Name: ASD08150026
#	Creating user name:	WinNT
#	Creation time:	15. 06. 2019 21:15

#	Modifying user name:	WinNT
#	Modification time:	15. 06. 2019 21:15

#	Program:	/corina/corina34_cracker 3.40 0067  02.08.2006

@<TRIPOS>MOLECULE
ASD08150026
  45   49    0    0    0
SMALL
NO_CHARGES


@<TRIPOS>ATOM
   1 N1             0.0066     1.1899     0.3018 N.2     
   2 C2             0.0952    -0.1035     0.2298 C.2     
   3 N3             1.2684    -0.7627     0.0428 N.am    
   4 C4             2.4305    -0.0799    -0.0799 C.2     
   5 C5             2.3654     1.3857    -0.0031 C.ar    
   6 C6             3.5056     2.1825    -0.1180 C.ar    
   7 C7             3.3849     3.5559    -0.0386 C.ar    
   8 C8             2.1432     4.1445     0.1538 C.ar    
   9 C9             1.0067     3.3750     0.2695 C.ar    
  10 C10            1.1008     1.9845     0.1928 C.ar    
  11 O11            3.4888    -0.6579    -0.2470 O.2     
  12 C12           -1.1678    -0.9150     0.3610 C.3     
  13 S13           -2.5525     0.1828     0.7529 S.3     
  14 N14           -5.7684     0.5999     1.3967 N.2     
  15 C15           -7.0390     0.4123     1.6072 C.2     
  16 N16           -7.3383    -0.9132     1.4975 N.pl3   
  17 C17           -6.1734    -1.5746     1.2009 C.ar    
  18 N18           -5.8443    -2.8437     0.9821 N.ar    
  19 C19           -4.5999    -3.1774     0.7112 C.ar    
  20 N20           -3.6266    -2.2881     0.6421 N.ar    
  21 C21           -3.8597    -0.9948     0.8464 C.ar    
  22 C22           -5.1736    -0.5895     1.1394 C.ar    
  23 F23            4.7173     1.6149    -0.3050 F       
  24 C24            1.2756    -2.2261    -0.0262 C.3     
  25 C25            1.2278    -2.6612    -1.4683 C.ar    
  26 C26            2.3945    -2.7396    -2.2056 C.ar    
  27 C27            2.3506    -3.1387    -3.5284 C.ar    
  28 C28            1.1401    -3.4598    -4.1137 C.ar    
  29 C29           -0.0264    -3.3822    -3.3761 C.ar    
  30 C30            0.0180    -2.9873    -2.0521 C.ar    
  31 H31            4.2642     4.1769    -0.1266 H       
  32 H32            2.0669     5.2201     0.2139 H       
  33 H33            0.0462     3.8458     0.4186 H       
  34 H34           -1.3676    -1.4306    -0.5784 H       
  35 H35           -1.0478    -1.6476     1.1591 H       
  36 H36           -7.7511     1.1916     1.8352 H       
  37 H37           -8.2141    -1.3149     1.6087 H       
  38 H38           -4.3665    -4.2177     0.5389 H       
  39 H39            2.1851    -2.6072     0.4383 H       
  40 H40            0.4062    -2.6190     0.5009 H       
  41 H41            3.3402    -2.4888    -1.7483 H       
  42 H42            3.2620    -3.1993    -4.1046 H       
  43 H43            1.1058    -3.7709    -5.1473 H       
  44 H44           -0.9722    -3.6327    -3.8334 H       
  45 H45           -0.8930    -2.9302    -1.4747 H       
@<TRIPOS>BOND
   1    1    2 2
   2    1   10 1
   3    2    3 1
   4    2   12 1
   5    3    4 am
   6    3   24 1
   7    4    5 1
   8    4   11 2
   9    5    6 ar
  10    5   10 ar
  11    6    7 ar
  12    6   23 1
  13    7    8 ar
  14    7   31 1
  15    8    9 ar
  16    8   32 1
  17    9   10 ar
  18    9   33 1
  19   12   13 1
  20   12   34 1
  21   12   35 1
  22   13   21 1
  23   14   15 2
  24   14   22 1
  25   15   16 1
  26   15   36 1
  27   16   17 1
  28   16   37 1
  29   17   18 ar
  30   17   22 ar
  31   18   19 ar
  32   19   20 ar
  33   19   38 1
  34   20   21 ar
  35   21   22 ar
  36   24   25 1
  37   24   39 1
  38   24   40 1
  39   25   26 ar
  40   25   30 ar
  41   26   27 ar
  42   26   41 1
  43   27   28 ar
  44   27   42 1
  45   28   29 ar
  46   28   43 1
  47   29   30 ar
  48   29   44 1
  49   30   45 1

#	End of record

