#	Name: ASD03092196
#	Creating user name:	WinNT
#	Creation time:	15. 06. 2019 20:32

#	Modifying user name:	WinNT
#	Modification time:	15. 06. 2019 20:32

#	Program:	/corina/corina34_cracker 3.40 0067  02.08.2006

@<TRIPOS>MOLECULE
ASD03092196
  53   57    0    0    0
SMALL
NO_CHARGES


@<TRIPOS>ATOM
   1 N1             0.2801     0.9460    -0.3814 N.pl3   
   2 C2             0.0856    -0.3130     0.1034 C.2     
   3 C3            -1.2574    -0.4767     0.2902 C.2     
   4 C4            -1.8908     0.7132    -0.0912 C.2     
   5 N5            -0.9723     1.5642    -0.4863 N.2     
   6 C6             1.1365    -1.3179     0.3770 C.ar    
   7 C7             0.9002    -2.3463     1.2893 C.ar    
   8 C8             1.8822    -3.2809     1.5437 C.ar    
   9 C9             3.1070    -3.2029     0.8950 C.ar    
  10 C10            3.3476    -2.1808    -0.0184 C.ar    
  11 C11            2.3643    -1.2429    -0.2809 C.ar    
  12 C12            1.5706     1.5478    -0.7257 C.3     
  13 N13           -3.2691     0.9558    -0.0523 N.pl3   
  14 C14           -3.7638     2.2304    -0.3502 C.ar    
  15 C15           -5.0337     2.3729    -0.8931 C.ar    
  16 C16           -5.5238     3.6314    -1.1874 C.ar    
  17 C17           -4.7500     4.7536    -0.9417 C.ar    
  18 C18           -3.4753     4.6140    -0.3971 C.ar    
  19 C19           -2.9870     3.3535    -0.0976 C.ar    
  20 O20           -2.9241     5.8545    -0.2533 O.3     
  21 O21           -4.9966     6.0829    -1.1387 O.3     
  22 C22           -4.0266     6.7771    -0.3324 C.3     
  23 F23           -4.5423     7.0371     0.9418 F       
  24 F24           -3.6296     7.9653    -0.9552 F       
  25 C25            1.8300     1.3712    -2.1997 C.2     
  26 N26            2.9655     1.8492    -2.7462 N.am    
  27 C27            3.2176     1.6776    -4.1790 C.3     
  28 O28            4.0643    -4.1316     1.1671 O.3     
  29 C29            5.1379    -4.2443     0.2269 C.3     
  30 C30            5.6332    -2.8312    -0.1093 C.3     
  31 O31            4.5404    -2.0948    -0.6690 O.3     
  32 O32            1.0169     0.7990    -2.8942 O.2     
  33 C33            4.5654     2.3061    -4.5386 C.3     
  34 H34           -1.7442    -1.3649     0.6651 H       
  35 H35           -0.0511    -2.4104     1.7966 H       
  36 H36            1.6976    -4.0763     2.2506 H       
  37 H37            2.5506    -0.4481    -0.9880 H       
  38 H38            1.5516     2.6107    -0.4849 H       
  39 H39            2.3622     1.0604    -0.1566 H       
  40 H40           -3.8810     0.2403     0.1811 H       
  41 H41           -5.6391     1.4995    -1.0861 H       
  42 H42           -6.5118     3.7399    -1.6099 H       
  43 H43           -1.9991     3.2432     0.3247 H       
  44 H44            3.6158     2.3069    -2.1907 H       
  45 H45            3.2366     0.6147    -4.4198 H       
  46 H46            2.4260     2.1650    -4.7482 H       
  47 H47            5.9506    -4.8241     0.6646 H       
  48 H48            4.7828    -4.7346    -0.6795 H       
  49 H49            5.9821    -2.3384     0.7982 H       
  50 H50            6.4464    -2.8890    -0.8327 H       
  51 H51            4.5464     3.3690    -4.2978 H       
  52 H52            5.3570     1.8188    -3.9695 H       
  53 H53            4.7530     2.1784    -5.6047 H       
@<TRIPOS>BOND
   1    1    2 1
   2    1   12 1
   3    1    5 1
   4    2    3 2
   5    2    6 1
   6    3    4 1
   7    3   34 1
   8    4    5 2
   9    4   13 1
  10    6    7 ar
  11    6   11 ar
  12    7    8 ar
  13    7   35 1
  14    8    9 ar
  15    8   36 1
  16    9   10 ar
  17    9   28 1
  18   10   11 ar
  19   10   31 1
  20   11   37 1
  21   12   25 1
  22   12   38 1
  23   12   39 1
  24   13   14 1
  25   13   40 1
  26   14   15 ar
  27   14   19 ar
  28   15   16 ar
  29   15   41 1
  30   16   17 ar
  31   16   42 1
  32   17   18 ar
  33   17   21 1
  34   18   19 ar
  35   18   20 1
  36   19   43 1
  37   20   22 1
  38   21   22 1
  39   22   23 1
  40   22   24 1
  41   25   26 am
  42   25   32 2
  43   26   27 1
  44   26   44 1
  45   27   33 1
  46   27   45 1
  47   27   46 1
  48   28   29 1
  49   29   30 1
  50   29   47 1
  51   29   48 1
  52   30   31 1
  53   30   49 1
  54   30   50 1
  55   33   51 1
  56   33   52 1
  57   33   53 1

#	End of record

