#	Name: ASD01122025
#	Creating user name:	WinNT
#	Creation time:	15. 06. 2019 18:59

#	Modifying user name:	WinNT
#	Modification time:	15. 06. 2019 18:59

#	Program:	/corina/corina34_cracker 3.40 0067  02.08.2006

@<TRIPOS>MOLECULE
ASD01122025
  41   42    0    0    0
SMALL
NO_CHARGES


@<TRIPOS>ATOM
   1 N1            -0.0711     1.2532     0.4915 N.ar    
   2 C2            -0.0342    -0.0637     0.4098 C.ar    
   3 N3             1.0930    -0.7306     0.2676 N.ar    
   4 C4             2.2537    -0.0910     0.2002 C.ar    
   5 C5             2.2681     1.3098     0.2822 C.ar    
   6 C6             1.0421     1.9774     0.4334 C.ar    
   7 N7             3.5722    -0.4807     0.0571 N.am    
   8 C8             4.3365     0.6630     0.0556 C.2     
   9 N9             3.5628     1.7096     0.1882 N.2     
  10 N10            0.9936     3.3595     0.5196 N.pl3   
  11 N11            5.7094     0.7007    -0.0674 N.pl3   
  12 C12            6.4109     1.9867    -0.0546 C.3     
  13 P13            6.9880     2.3473     1.6366 P.3     
  14 O14            7.9635     1.2156     2.1080 O.co2   
  15 O15            7.7383     3.7226     1.6502 O.co2   
  16 O16            5.7583     2.4137     2.6050 O.co2   
  17 O17            5.1968    -1.9506    -0.2668 O.2     
  18 C18            4.0245    -1.7450    -0.0589 C.2     
  19 C19            3.0679    -2.9023     0.0709 C.3     
  20 O20            3.5374    -3.7974     1.0810 O.3     
  21 C21            2.9789    -3.6426    -1.2652 C.3     
  22 O22            2.4354    -2.7701    -2.2578 O.3     
  23 C23            2.0735    -4.8663    -1.1108 C.3     
  24 O24            2.6170    -5.7387    -0.1181 O.3     
  25 C25            1.9845    -5.6065    -2.4468 C.3     
  26 O26            1.0489    -6.6809    -2.3347 O.3     
  27 H27           -0.9618    -0.6146     0.4618 H       
  28 H28            1.8127     3.8772     0.4755 H       
  29 H29            0.1406     3.8094     0.6239 H       
  30 H30            6.2106    -0.1243    -0.1624 H       
  31 H31            7.2665     1.9406    -0.7284 H       
  32 H32            5.7323     2.7741    -0.3826 H       
  33 H33            2.0814    -2.5292     0.3460 H       
  34 H34            4.4121    -4.1688     0.9018 H       
  35 H35            3.9750    -3.9637    -1.5697 H       
  36 H36            1.5812    -2.3852    -2.0181 H       
  37 H37            1.0774    -4.5451    -0.8062 H       
  38 H38            3.5041    -6.0642    -0.3237 H       
  39 H39            1.6540    -4.9165    -3.2232 H       
  40 H40            2.9651    -6.0044    -2.7078 H       
  41 H41            0.9414    -7.1951    -3.1465 H       
@<TRIPOS>BOND
   1    1    2 ar
   2    1    6 ar
   3    2    3 ar
   4    2   27 1
   5    3    4 ar
   6    4    5 ar
   7    4    7 1
   8    5    6 ar
   9    5    9 1
  10    6   10 1
  11    7    8 1
  12    7   18 am
  13    8    9 2
  14    8   11 1
  15   10   28 1
  16   10   29 1
  17   11   12 1
  18   11   30 1
  19   12   13 1
  20   12   31 1
  21   12   32 1
  22   13   14 ar
  23   13   15 ar
  24   13   16 ar
  25   17   18 2
  26   18   19 1
  27   19   20 1
  28   19   21 1
  29   19   33 1
  30   20   34 1
  31   21   22 1
  32   21   23 1
  33   21   35 1
  34   22   36 1
  35   23   24 1
  36   23   25 1
  37   23   37 1
  38   24   38 1
  39   25   26 1
  40   25   39 1
  41   25   40 1
  42   26   41 1

#	End of record

