#	Name: ASD05380070
#	Creating user name:	WinNT
#	Creation time:	15. 06. 2019 20:59

#	Modifying user name:	WinNT
#	Modification time:	15. 06. 2019 20:59

#	Program:	/corina/corina34_cracker 3.40 0067  02.08.2006

@<TRIPOS>MOLECULE
ASD05380070
  49   53    0    0    0
SMALL
NO_CHARGES


@<TRIPOS>ATOM
   1 C1            -0.1521     1.0839     0.3468 C.ar    
   2 C2            -0.0083    -0.2437    -0.1153 C.ar    
   3 C3             0.9756     1.8416     0.6549 C.ar    
   4 C4             2.2280     1.2867     0.5055 C.ar    
   5 C5             2.3730    -0.0173     0.0512 C.ar    
   6 C6             1.2713    -0.7833    -0.2583 C.ar    
   7 N7            -1.1205    -0.9627    -0.4086 N.2     
   8 C8            -2.3105    -0.4607    -0.2751 C.2     
   9 N9            -2.5426     0.8067     0.1620 N.am    
  10 C10           -1.5130     1.6207     0.4923 C.2     
  11 C11           -3.8590     1.2709     0.2772 C.ar    
  12 C12           -4.3367     2.2328    -0.6029 C.ar    
  13 C13           -4.6903     0.7660     1.2681 C.ar    
  14 C14           -5.9892     1.2255     1.3794 C.ar    
  15 C15           -6.4613     2.1880     0.5043 C.ar    
  16 C16           -5.6364     2.6890    -0.4874 C.ar    
  17 C17           -3.4947    -1.3256    -0.6224 C.3     
  18 N18           -4.0512    -0.8981    -1.9084 N.pl3   
  19 C19           -5.3803    -1.1459    -2.2039 C.ar    
  20 N20           -6.1656    -1.7706    -1.3324 N.ar    
  21 O21           -1.7059     2.7566     0.8852 O.2     
  22 C22           -5.9323    -0.7379    -3.4299 C.ar    
  23 C23           -7.2878    -1.0177    -3.6730 C.ar    
  24 N24           -7.9931    -1.6527    -2.7428 N.ar    
  25 C25           -7.4348    -2.0113    -1.6058 C.ar    
  26 N26           -5.4555    -0.0936    -4.5221 N.2     
  27 C27           -6.4087     0.0367    -5.3985 C.2     
  28 N28           -7.5591    -0.5176    -4.9215 N.pl3   
  29 C29            0.8269     3.2580     1.1475 C.3     
  30 Cl30          -6.2324     3.8963    -1.5833 Cl      
  31 Cl31          -7.0294     0.5943     2.6177 Cl      
  32 C32           -3.0485    -2.7859    -0.7199 C.3     
  33 H33            3.1044     1.8713     0.7434 H       
  34 H34            3.3622    -0.4361    -0.0607 H       
  35 H35            1.3966    -1.7965    -0.6104 H       
  36 H36           -3.6932     2.6243    -1.3768 H       
  37 H37           -4.3224     0.0146     1.9511 H       
  38 H38           -7.4766     2.5455     0.5927 H       
  39 H39           -4.2550    -1.2290     0.1526 H       
  40 H40           -3.4881    -0.4414    -2.5528 H       
  41 H41           -8.0374    -2.5220    -0.8692 H       
  42 H42           -6.3037     0.5136    -6.3618 H       
  43 H43           -8.4128    -0.5526    -5.3807 H       
  44 H44            0.6451     3.2517     2.2222 H       
  45 H45            1.7405     3.8138     0.9368 H       
  46 H46           -0.0126     3.7330     0.6398 H       
  47 H47           -3.8880    -3.4014    -1.0433 H       
  48 H48           -2.2366    -2.8703    -1.4422 H       
  49 H49           -2.7032    -3.1263     0.2563 H       
@<TRIPOS>BOND
   1    1    2 ar
   2    1    3 ar
   3    1   10 1
   4    2    7 1
   5    2    6 ar
   6    3    4 ar
   7    3   29 1
   8    4    5 ar
   9    4   33 1
  10    5    6 ar
  11    5   34 1
  12    6   35 1
  13    7    8 2
  14    8    9 1
  15    8   17 1
  16    9   10 am
  17    9   11 1
  18   10   21 2
  19   11   12 ar
  20   11   13 ar
  21   12   16 ar
  22   12   36 1
  23   13   14 ar
  24   13   37 1
  25   14   15 ar
  26   14   31 1
  27   15   16 ar
  28   15   38 1
  29   16   30 1
  30   17   18 1
  31   17   32 1
  32   17   39 1
  33   18   19 1
  34   18   40 1
  35   19   20 ar
  36   19   22 ar
  37   20   25 ar
  38   22   23 ar
  39   22   26 1
  40   23   24 ar
  41   23   28 1
  42   24   25 ar
  43   25   41 1
  44   26   27 2
  45   27   28 1
  46   27   42 1
  47   28   43 1
  48   29   44 1
  49   29   45 1
  50   29   46 1
  51   32   47 1
  52   32   48 1
  53   32   49 1

#	End of record

