#	Name: ASD06020080
#	Creating user name:	WinNT
#	Creation time:	15. 06. 2019 21:04

#	Modifying user name:	WinNT
#	Modification time:	15. 06. 2019 21:04

#	Program:	/corina/corina34_cracker 3.40 0067  02.08.2006

@<TRIPOS>MOLECULE
ASD06020080
  41   44    0    0    0
SMALL
NO_CHARGES


@<TRIPOS>ATOM
   1 C1            -0.0167     1.3951     0.0029 C.ar    
   2 C2             0.0030    -0.0035     0.0025 C.ar    
   3 C3             1.2300    -0.6765    -0.0198 C.ar    
   4 C4             2.4026     0.1208    -0.0416 C.ar    
   5 C5             2.2923     1.4755    -0.0400 C.ar    
   6 N6             1.1143     2.0789    -0.0177 N.ar    
   7 S7            -1.2859    -1.2019     0.0259 S.3     
   8 C8            -0.0954    -2.4967     0.0042 C.2     
   9 N9             1.1001    -2.0039    -0.0175 N.2     
  10 N10           -1.2339     2.0704     0.0191 N.pl3   
  11 C11           -0.4153    -3.9398     0.0100 C.ar    
  12 C12            0.6116    -4.8862    -0.0087 C.ar    
  13 C13            0.3053    -6.2328    -0.0026 C.ar    
  14 C14           -1.0149    -6.6450     0.0214 C.ar    
  15 C15           -2.0372    -5.7134     0.0400 C.ar    
  16 C16           -1.7458    -4.3634     0.0401 C.ar    
  17 Cl17          -3.0302    -3.1959     0.0701 Cl      
  18 Cl18           2.2691    -4.3710    -0.0400 Cl      
  19 C19           -0.1543     5.4476     0.4363 C.ar    
  20 N20           -0.1344     4.1344     0.3296 N.ar    
  21 C21           -1.2586     3.4526     0.1315 C.ar    
  22 C22           -2.4646     4.1504     0.0379 C.ar    
  23 C23           -2.4366     5.5261     0.1558 C.ar    
  24 N24           -1.2754     6.1349     0.3525 N.ar    
  25 C25           -3.7105     6.3257     0.0616 C.3     
  26 C26           -3.8592     7.1971     1.3104 C.3     
  27 N27           -4.8562     5.4115    -0.0369 N.3     
  28 H28            3.3767    -0.3453    -0.0590 H       
  29 H29            3.1900     2.0758    -0.0563 H       
  30 H30           -2.0647     1.5743    -0.0481 H       
  31 H31            1.0983    -6.9657    -0.0171 H       
  32 H32           -1.2487    -7.6994     0.0253 H       
  33 H33           -3.0657    -6.0424     0.0584 H       
  34 H34            0.7736     5.9750     0.6015 H       
  35 H35           -3.3957     3.6275    -0.1231 H       
  36 H36           -3.6759     6.9614    -0.8231 H       
  37 H37           -3.0091     7.8754     1.3834 H       
  38 H38           -4.7806     7.7754     1.2422 H       
  39 H39           -3.8939     6.5613     2.1951 H       
  40 H40           -4.8733     4.7681     0.7402 H       
  41 H41           -5.7231     5.9239    -0.1012 H       
@<TRIPOS>BOND
   1    1    2 ar
   2    1    6 ar
   3    1   10 1
   4    2    3 ar
   5    2    7 1
   6    3    4 ar
   7    3    9 1
   8    4    5 ar
   9    4   28 1
  10    5    6 ar
  11    5   29 1
  12    7    8 1
  13    8    9 2
  14    8   11 1
  15   10   21 1
  16   10   30 1
  17   11   12 ar
  18   11   16 ar
  19   12   13 ar
  20   12   18 1
  21   13   14 ar
  22   13   31 1
  23   14   15 ar
  24   14   32 1
  25   15   16 ar
  26   15   33 1
  27   16   17 1
  28   19   20 ar
  29   19   24 ar
  30   19   34 1
  31   20   21 ar
  32   21   22 ar
  33   22   23 ar
  34   22   35 1
  35   23   24 ar
  36   23   25 1
  37   25   26 1
  38   25   27 1
  39   25   36 1
  40   26   37 1
  41   26   38 1
  42   26   39 1
  43   27   40 1
  44   27   41 1

#	End of record

