#	Name: ASD02508280
#	Creating user name:	WinNT
#	Creation time:	15. 06. 2019 20:24

#	Modifying user name:	WinNT
#	Modification time:	15. 06. 2019 20:24

#	Program:	/corina/corina34_cracker 3.40 0067  02.08.2006

@<TRIPOS>MOLECULE
ASD02508280
  39   41    0    0    0
SMALL
NO_CHARGES


@<TRIPOS>ATOM
   1 C1            -0.0712     1.3041     0.3830 C.ar    
   2 C2            -0.0630    -0.0706     0.1478 C.ar    
   3 C3            -1.2586    -0.7658     0.0558 C.ar    
   4 C4            -2.4569    -0.0935     0.1976 C.ar    
   5 C5            -2.4661     1.2708     0.4306 C.ar    
   6 C6            -1.2785     1.9692     0.5289 C.ar    
   7 S7            -3.9780    -0.9751     0.0809 S.o2    
   8 N8            -4.7830    -0.3907    -1.2430 N.am    
   9 C9            -4.2722    -0.6112    -2.5249 C.ar    
  10 O10            1.2205     1.7132     0.4240 O.3     
  11 C11            2.0242     0.6566     0.2254 C.2     
  12 N12            1.2754    -0.4507     0.0528 N.am    
  13 O13           -3.6391    -2.3223    -0.2179 O.2     
  14 O14           -4.7469    -0.6005     1.2157 O.2     
  15 O15            3.2395     0.6929     0.2043 O.2     
  16 C16            1.7761    -1.8058    -0.1905 C.3     
  17 C17           -5.1131    -1.0371    -3.5453 C.ar    
  18 C18           -3.7779     1.9968     0.5831 C.3     
  19 C19           -2.9241    -0.3993    -2.7825 C.ar    
  20 C20           -2.4219    -0.6176    -4.0506 C.ar    
  21 C21           -3.2607    -1.0469    -5.0638 C.ar    
  22 C22           -4.6057    -1.2538    -4.8112 C.ar    
  23 Cl23          -2.6262    -1.3202    -6.6564 Cl      
  24 C24           -5.5161    -1.7214    -5.9173 C.3     
  25 H25           -1.2533    -1.8302    -0.1267 H       
  26 H26           -1.2908     3.0337     0.7112 H       
  27 H27           -5.6091     0.1046    -1.1287 H       
  28 H28            2.8657    -1.7919    -0.2134 H       
  29 H29            1.4378    -2.4668     0.6074 H       
  30 H30            1.3972    -2.1669    -1.1466 H       
  31 H31           -6.1626    -1.1991    -3.3487 H       
  32 H32           -4.1205     1.9152     1.6146 H       
  33 H33           -3.6435     3.0477     0.3269 H       
  34 H34           -4.5185     1.5525    -0.0820 H       
  35 H35           -2.2690    -0.0639    -1.9921 H       
  36 H36           -1.3737    -0.4526    -4.2516 H       
  37 H37           -5.5383    -2.8111    -5.9333 H       
  38 H38           -6.5226    -1.3400    -5.7451 H       
  39 H39           -5.1460    -1.3514    -6.8734 H       
@<TRIPOS>BOND
   1    1    2 ar
   2    1   10 1
   3    1    6 ar
   4    2    3 ar
   5    2   12 1
   6    3    4 ar
   7    3   25 1
   8    4    5 ar
   9    4    7 1
  10    5    6 ar
  11    5   18 1
  12    6   26 1
  13    7    8 am
  14    7   13 2
  15    7   14 2
  16    8    9 1
  17    8   27 1
  18    9   17 ar
  19    9   19 ar
  20   10   11 1
  21   11   12 am
  22   11   15 2
  23   12   16 1
  24   16   28 1
  25   16   29 1
  26   16   30 1
  27   17   22 ar
  28   17   31 1
  29   18   32 1
  30   18   33 1
  31   18   34 1
  32   19   20 ar
  33   19   35 1
  34   20   21 ar
  35   20   36 1
  36   21   22 ar
  37   21   23 1
  38   22   24 1
  39   24   37 1
  40   24   38 1
  41   24   39 1

#	End of record

