#	Name: ASD01885029
#	Creating user name:	WinNT
#	Creation time:	15. 06. 2019 19:49

#	Modifying user name:	WinNT
#	Modification time:	15. 06. 2019 19:49

#	Program:	/corina/corina34_cracker 3.40 0067  02.08.2006

@<TRIPOS>MOLECULE
ASD01885029
  46   48    0    0    0
SMALL
NO_CHARGES


@<TRIPOS>ATOM
   1 C1            -0.0180     4.0108     0.9364 C.3     
   2 C2            -1.3079     3.2378     0.6547 C.3     
   3 C3            -2.5118     4.0868     1.0678 C.3     
   4 O4            -1.3057     2.0193     1.4012 O.3     
   5 N5             1.1317     3.2241     0.4831 N.pl3   
   6 N6             1.6334     3.1781    -0.8237 N.2     
   7 C7             2.6688     2.3648    -0.8414 C.2     
   8 C8             2.8576     1.8665     0.4616 C.2     
   9 C9             1.9021     2.4154     1.2586 C.2     
  10 C10            3.7195     1.6179    -4.3753 C.ar    
  11 C11            2.9163     1.9306    -3.2978 C.ar    
  12 C12            3.4931     2.0309    -2.0288 C.ar    
  13 C13            4.8681     1.8085    -1.9089 C.ar    
  14 C14            5.5973     1.5009    -3.0386 C.ar    
  15 N15            5.0137     1.4155    -4.2189 N.ar    
  16 C16            3.1092     1.5005    -5.7482 C.3     
  17 N17            1.7397     2.1876     2.6238 N.pl3   
  18 C18            2.3369     3.0449     3.5509 C.ar    
  19 C19            2.0515     2.9143     4.9041 C.ar    
  20 C20            2.6446     3.7650     5.8190 C.ar    
  21 C21            3.5222     4.7458     5.3861 C.ar    
  22 C22            3.8070     4.8767     4.0397 C.ar    
  23 C23            3.2220     4.0262     3.1220 C.ar    
  24 C24            4.1671     5.6720     6.3847 C.3     
  25 F25            5.0056     6.5693     5.7147 F       
  26 F26            3.1755     6.3829     7.0694 F       
  27 F27            4.9186     4.9238     7.2971 F       
  28 F28            2.3679     3.6399     7.1354 F       
  29 Cl29           4.0937     0.7555     0.9631 Cl      
  30 H30           -0.0404     4.9616     0.4038 H       
  31 H31            0.0681     4.1962     2.0071 H       
  32 H32           -1.3709     3.0117    -0.4097 H       
  33 H33           -3.4318     3.5697     0.7950 H       
  34 H34           -2.4909     4.2467     2.1458 H       
  35 H35           -2.4705     5.0488     0.5569 H       
  36 H36           -2.0955     1.4768     1.2710 H       
  37 H37            1.8576     2.0954    -3.4331 H       
  38 H38            5.3522     1.8768    -0.9459 H       
  39 H39            6.6600     1.3274    -2.9559 H       
  40 H40            3.1341     2.4723    -6.2412 H       
  41 H41            3.6760     0.7796    -6.3374 H       
  42 H42            2.0760     1.1647    -5.6590 H       
  43 H43            1.2119     1.4336     2.9303 H       
  44 H44            1.3671     2.1499     5.2412 H       
  45 H45            4.4913     5.6425     3.7053 H       
  46 H46            3.4492     4.1266     2.0709 H       
@<TRIPOS>BOND
   1    1    2 1
   2    1    5 1
   3    1   30 1
   4    1   31 1
   5    2    3 1
   6    2    4 1
   7    2   32 1
   8    3   33 1
   9    3   34 1
  10    3   35 1
  11    4   36 1
  12    5    6 1
  13    5    9 1
  14    6    7 2
  15    7    8 1
  16    7   12 1
  17    8    9 2
  18    8   29 1
  19    9   17 1
  20   10   11 ar
  21   10   15 ar
  22   10   16 1
  23   11   12 ar
  24   11   37 1
  25   12   13 ar
  26   13   14 ar
  27   13   38 1
  28   14   15 ar
  29   14   39 1
  30   16   40 1
  31   16   41 1
  32   16   42 1
  33   17   18 1
  34   17   43 1
  35   18   19 ar
  36   18   23 ar
  37   19   20 ar
  38   19   44 1
  39   20   21 ar
  40   20   28 1
  41   21   22 ar
  42   21   24 1
  43   22   23 ar
  44   22   45 1
  45   23   46 1
  46   24   25 1
  47   24   26 1
  48   24   27 1

#	End of record

