#	Name: ASD01810398
#	Creating user name:	WinNT
#	Creation time:	15. 06. 2019 19:24

#	Modifying user name:	WinNT
#	Modification time:	15. 06. 2019 19:24

#	Program:	/corina/corina34_cracker 3.40 0067  02.08.2006

@<TRIPOS>MOLECULE
ASD01810398
  38   40    0    0    0
SMALL
NO_CHARGES


@<TRIPOS>ATOM
   1 C1            -0.0155     1.3843    -0.1250 C.ar    
   2 C2             0.0033    -0.0034    -0.1313 C.ar    
   3 C3             1.1981    -0.6915    -0.1019 C.ar    
   4 C4             2.4039     0.0089    -0.0654 C.ar    
   5 C5             2.3801     1.4132    -0.0592 C.ar    
   6 C6             1.1632     2.0952    -0.0892 C.ar    
   7 N7             3.6055    -0.6664    -0.0353 N.pl3   
   8 C8             4.7886    -0.0409     0.0010 C.2     
   9 C9             4.8927     1.3357     0.0106 C.2     
  10 C10            3.6618     2.1419    -0.0206 C.2     
  11 O11            3.7000     3.3598    -0.0140 O.2     
  12 C12            6.2105     1.9852     0.0519 C.2     
  13 C13            3.5868    -2.1313    -0.0430 C.3     
  14 C14            3.4437    -2.6244    -1.4598 C.2     
  15 O15            7.2207     1.3094     0.0779 O.2     
  16 O16            6.2991     3.3303     0.0609 O.3     
  17 F17            1.2008    -2.0425    -0.1080 F       
  18 C18            4.3300    -3.4750    -1.9583 C.2     
  19 C19            4.1896    -3.9587    -3.3480 C.ar    
  20 C20            5.1207    -4.8540    -3.8756 C.ar    
  21 C21            3.1221    -3.5264    -4.1358 C.ar    
  22 C22            2.9968    -3.9816    -5.4323 C.ar    
  23 C23            3.9266    -4.8648    -5.9514 C.ar    
  24 C24            4.9840    -5.3016    -5.1735 C.ar    
  25 H25           -0.9590     1.9091    -0.1528 H       
  26 H26           -0.9276    -0.5502    -0.1591 H       
  27 H27            1.1459     3.1750    -0.0844 H       
  28 H28            5.6916    -0.6329     0.0239 H       
  29 H29            4.5174    -2.5087     0.3808 H       
  30 H30            2.7459    -2.4870     0.5523 H       
  31 H31            2.6191    -2.2849    -2.0690 H       
  32 H32            7.1873     3.7116     0.0885 H       
  33 H33            5.1546    -3.8145    -1.3490 H       
  34 H34            5.9468    -5.1955    -3.2696 H       
  35 H35            2.3955    -2.8372    -3.7316 H       
  36 H36            2.1709    -3.6481    -6.0430 H       
  37 H37            3.8240    -5.2182    -6.9667 H       
  38 H38            5.7065    -5.9911    -5.5846 H       
@<TRIPOS>BOND
   1    1    2 ar
   2    1    6 ar
   3    1   25 1
   4    2    3 ar
   5    2   26 1
   6    3    4 ar
   7    3   17 1
   8    4    5 ar
   9    4    7 1
  10    5    6 ar
  11    5   10 1
  12    6   27 1
  13    7    8 1
  14    7   13 1
  15    8    9 2
  16    8   28 1
  17    9   10 1
  18    9   12 1
  19   10   11 2
  20   12   15 2
  21   12   16 1
  22   13   14 1
  23   13   29 1
  24   13   30 1
  25   14   18 2
  26   14   31 1
  27   16   32 1
  28   18   19 1
  29   18   33 1
  30   19   20 ar
  31   19   21 ar
  32   20   24 ar
  33   20   34 1
  34   21   22 ar
  35   21   35 1
  36   22   23 ar
  37   22   36 1
  38   23   24 ar
  39   23   37 1
  40   24   38 1

#	End of record

