#	Name: ASD03731832
#	Creating user name:	WinNT
#	Creation time:	15. 06. 2019 20:46

#	Modifying user name:	WinNT
#	Modification time:	15. 06. 2019 20:46

#	Program:	/corina/corina34_cracker 3.40 0067  02.08.2006

@<TRIPOS>MOLECULE
ASD03731832
  33   34    0    0    0
SMALL
NO_CHARGES


@<TRIPOS>ATOM
   1 C1            -0.4039     1.1045    -1.9602 C.2     
   2 C2            -0.2823    -0.2735    -1.4501 C.ar    
   3 C3             0.9016    -0.9940    -1.6488 C.ar    
   4 C4             1.0100    -2.2837    -1.1692 C.ar    
   5 C5            -0.0530    -2.8656    -0.4909 C.ar    
   6 C6            -1.2312    -2.1523    -0.2916 C.ar    
   7 C7            -1.3467    -0.8628    -0.7614 C.ar    
   8 O8             0.5249     1.6170    -2.5546 O.2     
   9 N9            -1.5466     1.7942    -1.7726 N.am    
  10 S10           -1.6831     3.3419    -2.3455 S.o2    
  11 O11           -2.9852     3.7491    -1.9480 O.2     
  12 O12           -0.5261     4.0021    -1.8507 O.2     
  13 C13           -1.5937     3.1666    -4.1488 C.3     
  14 F14            1.9355    -0.4282    -2.3091 F       
  15 O15            0.0574    -4.1342    -0.0213 O.3     
  16 C16            1.2596    -4.7565    -0.1411 C.ar    
  17 C17            2.2111    -4.6284     0.8606 C.ar    
  18 C18            3.4323    -5.2622     0.7371 C.ar    
  19 C19            3.7069    -6.0244    -0.3847 C.ar    
  20 C20            2.7594    -6.1534    -1.3848 C.ar    
  21 C21            1.5350    -5.5255    -1.2627 C.ar    
  22 Cl22           5.2426    -6.8194    -0.5378 Cl      
  23 Cl23          -2.5557    -2.8870     0.5568 Cl      
  24 H24            1.9223    -2.8411    -1.3219 H       
  25 H25           -2.2600    -0.3089    -0.6017 H       
  26 H26           -2.2889     1.3840    -1.3019 H       
  27 H27           -2.4101     2.5317    -4.4930 H       
  28 H28           -1.6764     4.1489    -4.6139 H       
  29 H29           -0.6409     2.7138    -4.4230 H       
  30 H30            1.9973    -4.0333     1.7361 H       
  31 H31            4.1733    -5.1624     1.5164 H       
  32 H32            2.9758    -6.7484    -2.2597 H       
  33 H33            0.7941    -5.6301    -2.0414 H       
@<TRIPOS>BOND
   1    1    2 1
   2    1    8 2
   3    1    9 am
   4    2    3 ar
   5    2    7 ar
   6    3    4 ar
   7    3   14 1
   8    4    5 ar
   9    4   24 1
  10    5    6 ar
  11    5   15 1
  12    6    7 ar
  13    6   23 1
  14    7   25 1
  15    9   10 am
  16    9   26 1
  17   10   11 2
  18   10   12 2
  19   10   13 1
  20   13   27 1
  21   13   28 1
  22   13   29 1
  23   15   16 1
  24   16   17 ar
  25   16   21 ar
  26   17   18 ar
  27   17   30 1
  28   18   19 ar
  29   18   31 1
  30   19   20 ar
  31   19   22 1
  32   20   21 ar
  33   20   32 1
  34   21   33 1

#	End of record

