#	Name: ASD02039468
#	Creating user name:	WinNT
#	Creation time:	15. 06. 2019 20:18

#	Modifying user name:	WinNT
#	Modification time:	15. 06. 2019 20:18

#	Program:	/corina/corina34_cracker 3.40 0067  02.08.2006

@<TRIPOS>MOLECULE
ASD02039468
  50   53    0    0    0
SMALL
NO_CHARGES


@<TRIPOS>ATOM
   1 C1             0.1077     1.0935     0.0718 C.ar    
   2 C2             0.3519    -0.2584     0.2359 C.ar    
   3 C3             1.2594     2.0639     0.0182 C.3     
   4 N4             1.7800     2.1289    -1.3497 N.am    
   5 C5             1.3632     3.1021    -2.1838 C.2     
   6 C6             0.3121     4.0406    -1.7538 C.2     
   7 C7            -0.2773     4.9995    -2.5247 C.2     
   8 N8            -0.2507     4.1048    -0.5200 N.2     
   9 C9            -1.1408     5.0546    -0.5123 C.2     
  10 N10           -1.1832     5.6312    -1.7416 N.pl3   
  11 O11            1.8547     3.2055    -3.2914 O.2     
  12 C12           -2.0525     6.7385    -2.1470 C.3     
  13 C13            2.7536     1.1362    -1.8109 C.3     
  14 C14           -0.6989    -1.1557     0.2861 C.ar    
  15 C15           -2.2519     0.6567    -0.0049 C.ar    
  16 C16           -1.1872     1.5551    -0.0486 C.ar    
  17 C17           -3.6449     1.1466    -0.1342 C.ar    
  18 N18           -4.6609     0.2884    -0.2018 N.ar    
  19 C19           -5.8993     0.7209    -0.3167 C.ar    
  20 N20           -6.1857     2.0064    -0.3698 N.ar    
  21 C21           -5.2309     2.9224    -0.3087 C.ar    
  22 C22           -3.9147     2.5175    -0.1814 C.ar    
  23 C23           -2.0012    -0.7055     0.1724 C.ar    
  24 C24            2.3441     0.4313    -3.1148 C.3     
  25 C25            3.8188     0.5308    -3.5393 C.3     
  26 C26            3.9259     1.7432    -2.5995 C.3     
  27 F27           -3.0278    -1.5824     0.2211 F       
  28 C28           -7.0212    -0.2826    -0.3902 C.3     
  29 F29           -7.7025    -0.3106     0.8314 F       
  30 F30           -7.9069     0.0820    -1.4099 F       
  31 F31           -6.4956    -1.5507    -0.6603 F       
  32 H32            1.3676    -0.6144     0.3248 H       
  33 H33            0.9162     3.0523     0.3237 H       
  34 H34            2.0484     1.7290     0.6917 H       
  35 H35           -0.0622     5.2139    -3.5611 H       
  36 H36           -1.7497     5.3365     0.3339 H       
  37 H37           -1.5474     7.6854    -1.9566 H       
  38 H38           -2.2769     6.6538    -3.2102 H       
  39 H39           -2.9800     6.7001    -1.5757 H       
  40 H40            3.0644     0.4503    -1.0228 H       
  41 H41           -0.5021    -2.2099     0.4141 H       
  42 H42           -1.3748     2.6099    -0.1852 H       
  43 H43           -5.4776     3.9729    -0.3535 H       
  44 H44           -3.1150     3.2415    -0.1288 H       
  45 H45            2.0000    -0.5925    -2.9683 H       
  46 H46            1.6701     1.0206    -3.7366 H       
  47 H47            4.4222    -0.3206    -3.2243 H       
  48 H48            3.9544     0.7807    -4.5916 H       
  49 H49            3.6844     2.6911    -3.0803 H       
  50 H50            4.8589     1.7785    -2.0369 H       
@<TRIPOS>BOND
   1    1    2 ar
   2    1    3 1
   3    1   16 ar
   4    2   14 ar
   5    2   32 1
   6    3    4 1
   7    3   33 1
   8    3   34 1
   9    4    5 am
  10    4   13 1
  11    5    6 1
  12    5   11 2
  13    6    7 2
  14    6    8 1
  15    7   10 1
  16    7   35 1
  17    8    9 2
  18    9   10 1
  19    9   36 1
  20   10   12 1
  21   12   37 1
  22   12   38 1
  23   12   39 1
  24   13   24 1
  25   13   26 1
  26   13   40 1
  27   14   23 ar
  28   14   41 1
  29   15   16 ar
  30   15   17 1
  31   15   23 ar
  32   16   42 1
  33   17   18 ar
  34   17   22 ar
  35   18   19 ar
  36   19   20 ar
  37   19   28 1
  38   20   21 ar
  39   21   22 ar
  40   21   43 1
  41   22   44 1
  42   23   27 1
  43   24   25 1
  44   24   45 1
  45   24   46 1
  46   25   26 1
  47   25   47 1
  48   25   48 1
  49   26   49 1
  50   26   50 1
  51   28   29 1
  52   28   30 1
  53   28   31 1

#	End of record

