#	Name: ASD01420207
#	Creating user name:	WinNT
#	Creation time:	15. 06. 2019 19:20

#	Modifying user name:	WinNT
#	Modification time:	15. 06. 2019 19:20

#	Program:	/corina/corina34_cracker 3.40 0067  02.08.2006

@<TRIPOS>MOLECULE
ASD01420207
  32   33    0    0    0
SMALL
NO_CHARGES


@<TRIPOS>ATOM
   1 C1            -0.0179     1.4705     0.0101 C.2     
   2 C2             0.0021    -0.0041     0.0020 C.ar    
   3 C3             1.2212    -0.6885    -0.0133 C.ar    
   4 C4             1.2352    -2.0657    -0.0203 C.ar    
   5 C5             0.0386    -2.7752    -0.0127 C.ar    
   6 C6            -1.1748    -2.0982     0.0025 C.ar    
   7 C7            -1.1975    -0.7212     0.0155 C.ar    
   8 O8             1.0260     2.0923     0.0035 O.2     
   9 O9            -1.1939     2.1283     0.0193 O.3     
  10 Br10           2.8829    -2.9933    -0.0411 Br      
  11 O11            0.0563    -4.1322    -0.0206 O.3     
  12 C12           -1.2082    -4.7976    -0.0120 C.3     
  13 C13           -0.9913    -6.2888    -0.0226 C.ar    
  14 C14           -0.8801    -6.9796     1.1696 C.ar    
  15 C15           -0.6810    -8.3475     1.1599 C.ar    
  16 C16           -0.5936    -9.0247    -0.0421 C.ar    
  17 C17           -0.7057    -8.3341    -1.2343 C.ar    
  18 C18           -0.9091    -6.9668    -1.2245 C.ar    
  19 C19           -1.1376     3.5792     0.0269 C.3     
  20 H20            2.1504    -0.1381    -0.0199 H       
  21 H21           -2.1016    -2.6527     0.0084 H       
  22 H22           -2.1411    -0.1961     0.0314 H       
  23 H23           -1.7603    -4.5171     0.8850 H       
  24 H24           -1.7777    -4.5070    -0.8949 H       
  25 H25           -0.9484    -6.4505     2.1086 H       
  26 H26           -0.5934    -8.8871     2.0913 H       
  27 H27           -0.4374   -10.0933    -0.0497 H       
  28 H28           -0.6370    -8.8631    -2.1733 H       
  29 H29           -1.0003    -6.4278    -2.1559 H       
  30 H30           -0.6058     3.9175     0.9162 H       
  31 H31           -0.6143     3.9271    -0.8637 H       
  32 H32           -2.1504     3.9820     0.0339 H       
@<TRIPOS>BOND
   1    1    2 1
   2    1    8 2
   3    1    9 1
   4    2    3 ar
   5    2    7 ar
   6    3    4 ar
   7    3   20 1
   8    4    5 ar
   9    4   10 1
  10    5    6 ar
  11    5   11 1
  12    6    7 ar
  13    6   21 1
  14    7   22 1
  15    9   19 1
  16   11   12 1
  17   12   13 1
  18   12   23 1
  19   12   24 1
  20   13   14 ar
  21   13   18 ar
  22   14   15 ar
  23   14   25 1
  24   15   16 ar
  25   15   26 1
  26   16   17 ar
  27   16   27 1
  28   17   18 ar
  29   17   28 1
  30   18   29 1
  31   19   30 1
  32   19   31 1
  33   19   32 1

#	End of record

