#	Name: ASD01880880
#	Creating user name:	WinNT
#	Creation time:	15. 06. 2019 19:41

#	Modifying user name:	WinNT
#	Modification time:	15. 06. 2019 19:41

#	Program:	/corina/corina34_cracker 3.40 0067  02.08.2006

@<TRIPOS>MOLECULE
ASD01880880
  53   56    0    0    0
SMALL
NO_CHARGES


@<TRIPOS>ATOM
   1 N1             0.0054     1.3326    -0.1726 N.ar    
   2 C2             0.0073     0.0111    -0.1816 C.ar    
   3 N3             1.1213    -0.6850    -0.0178 N.ar    
   4 C4             2.2837    -0.0784     0.1624 C.ar    
   5 C5             2.3296     1.3048     0.1791 C.ar    
   6 C6             1.1373     2.0115     0.0035 C.ar    
   7 C7             3.6344     2.0311     0.3821 C.3     
   8 O8             4.6667     1.0851     0.6674 O.3     
   9 C9             5.9134     1.5784     0.8779 C.ar    
  10 C10            6.9651     0.7122     1.1605 C.ar    
  11 C11            8.2257     1.2124     1.3727 C.ar    
  12 C12            8.4611     2.5897     1.3068 C.ar    
  13 C13            7.4013     3.4553     1.0222 C.ar    
  14 C14            6.1396     2.9477     0.8053 C.ar    
  15 C15            9.5520     0.5687     1.6922 C.3     
  16 N16           10.5237     1.6631     1.7976 N.am    
  17 C17            9.8901     2.8272     1.5745 C.2     
  18 O18           10.4210     3.9209     1.5910 O.2     
  19 C19            7.6397     4.9415     0.9486 C.3     
  20 C20            1.1325     3.4941     0.0126 C.ar    
  21 C21            2.1002     4.1987    -0.7038 C.ar    
  22 C22            2.0964     5.5756    -0.6964 C.ar    
  23 C23            1.1229     6.2671     0.0290 C.ar    
  24 C24            0.1542     5.5604     0.7461 C.ar    
  25 C25            0.1568     4.1835     0.7329 C.ar    
  26 C26            1.1182     7.6991     0.0378 C.1     
  27 N27            1.1145     8.8351     0.0448 N.1     
  28 O28           -1.1619    -0.6487    -0.3627 O.3     
  29 C29           -1.1074    -2.0767    -0.3645 C.3     
  30 C30           12.7299     1.3429     0.7918 C.3     
  31 C31           11.9498     1.5118     2.0971 C.3     
  32 H32            3.1863    -0.6563     0.2954 H       
  33 H33            3.8875     2.5833    -0.5229 H       
  34 H34            3.5374     2.7257     1.2165 H       
  35 H35            6.7898    -0.3522     1.2131 H       
  36 H36            5.3211     3.6171     0.5851 H       
  37 H37            9.4892     0.0309     2.6383 H       
  38 H38            9.8403    -0.1126     0.8917 H       
  39 H39            7.8997     5.2175    -0.0733 H       
  40 H40            6.7349     5.4699     1.2487 H       
  41 H41            8.4571     5.2119     1.6171 H       
  42 H42            2.8528     3.6639    -1.2641 H       
  43 H43            2.8459     6.1208    -1.2508 H       
  44 H44           -0.5986     6.0938     1.3075 H       
  45 H45           -0.5919     3.6370     1.2872 H       
  46 H46           -0.7187    -2.4266     0.5919 H       
  47 H47           -2.1089    -2.4783    -0.5185 H       
  48 H48           -0.4530    -2.4143    -1.1681 H       
  49 H49           13.7909     1.2303     1.0147 H       
  50 H50           12.3728     0.4567     0.2672 H       
  51 H51           12.5818     2.2213     0.1637 H       
  52 H52           12.3068     2.3980     2.6218 H       
  53 H53           12.0979     0.6333     2.7252 H       
@<TRIPOS>BOND
   1    1    2 ar
   2    1    6 ar
   3    2    3 ar
   4    2   28 1
   5    3    4 ar
   6    4    5 ar
   7    4   32 1
   8    5    6 ar
   9    5    7 1
  10    6   20 1
  11    7    8 1
  12    7   33 1
  13    7   34 1
  14    8    9 1
  15    9   10 ar
  16    9   14 ar
  17   10   11 ar
  18   10   35 1
  19   11   12 ar
  20   11   15 1
  21   12   13 ar
  22   12   17 1
  23   13   14 ar
  24   13   19 1
  25   14   36 1
  26   15   16 1
  27   15   37 1
  28   15   38 1
  29   16   17 am
  30   16   31 1
  31   17   18 2
  32   19   39 1
  33   19   40 1
  34   19   41 1
  35   20   21 ar
  36   20   25 ar
  37   21   22 ar
  38   21   42 1
  39   22   23 ar
  40   22   43 1
  41   23   24 ar
  42   23   26 1
  43   24   25 ar
  44   24   44 1
  45   25   45 1
  46   26   27 3
  47   28   29 1
  48   29   46 1
  49   29   47 1
  50   29   48 1
  51   30   31 1
  52   30   49 1
  53   30   50 1
  54   30   51 1
  55   31   52 1
  56   31   53 1

#	End of record

