#	Name: ASD01100052
#	Creating user name:	WinNT
#	Creation time:	15. 06. 2019 18:58

#	Modifying user name:	WinNT
#	Modification time:	15. 06. 2019 18:58

#	Program:	/corina/corina34_cracker 3.40 0067  02.08.2006

@<TRIPOS>MOLECULE
ASD01100052
  38   39    0    0    0
SMALL
NO_CHARGES


@<TRIPOS>ATOM
   1 C1             0.1628     1.2934    -0.9227 C.ar    
   2 C2             0.2410    -0.0861    -0.9934 C.ar    
   3 C3             1.4422    -0.7241    -0.7402 C.ar    
   4 C4             2.5632     0.0168    -0.4167 C.ar    
   5 C5             2.4844     1.3951    -0.3462 C.ar    
   6 C6             1.2845     2.0333    -0.5991 C.ar    
   7 C7             3.7070     2.2024     0.0071 C.3     
   8 C8             3.4380     3.0039     1.2822 C.3     
   9 C9             3.2227     2.0427     2.4530 C.3     
  10 C10            4.6360     3.9082     1.5785 C.3     
  11 Cl11          -1.1676    -1.0160    -1.3992 Cl      
  12 C12            4.0284     3.1474    -1.1219 C.2     
  13 N13            5.1808     3.8463    -1.1084 N.am    
  14 O14            3.2502     3.2792    -2.0425 O.2     
  15 C15            5.4399     4.7729    -2.1032 C.2     
  16 N16            4.6384     5.0429    -3.0921 N.2     
  17 C17            5.0302     5.9481    -3.9521 C.2     
  18 C18            6.2552     6.4873    -3.6733 C.2     
  19 S19            6.8540     5.7279    -2.2005 S.3     
  20 C20            6.9436     7.5150    -4.4553 C.2     
  21 N21            8.1547     7.9599    -4.0656 N.am    
  22 O22            6.4224     7.9680    -5.4579 O.2     
  23 H23           -0.7735     1.7924    -1.1246 H       
  24 H24            1.5038    -1.8010    -0.7949 H       
  25 H25            3.5009    -0.4812    -0.2187 H       
  26 H26            1.2236     3.1101    -0.5438 H       
  27 H27            4.5505     1.5316     0.1707 H       
  28 H28            2.5461     3.6155     1.1456 H       
  29 H29            4.1146     1.4311     2.5896 H       
  30 H30            3.0311     2.6137     3.3614 H       
  31 H31            2.3692     1.3984     2.2419 H       
  32 H32            4.8523     4.5227     0.7046 H       
  33 H33            4.4043     4.5520     2.4270 H       
  34 H34            5.5050     3.2942     1.8150 H       
  35 H35            5.8285     3.6998    -0.4014 H       
  36 H36            4.4387     6.2426    -4.8064 H       
  37 H37            8.5700     7.5989    -3.2668 H       
  38 H38            8.6109     8.6411    -4.5840 H       
@<TRIPOS>BOND
   1    1    2 ar
   2    1    6 ar
   3    1   23 1
   4    2    3 ar
   5    2   11 1
   6    3    4 ar
   7    3   24 1
   8    4    5 ar
   9    4   25 1
  10    5    6 ar
  11    5    7 1
  12    6   26 1
  13    7    8 1
  14    7   12 1
  15    7   27 1
  16    8    9 1
  17    8   10 1
  18    8   28 1
  19    9   29 1
  20    9   30 1
  21    9   31 1
  22   10   32 1
  23   10   33 1
  24   10   34 1
  25   12   13 am
  26   12   14 2
  27   13   15 1
  28   13   35 1
  29   15   16 2
  30   15   19 1
  31   16   17 1
  32   17   18 2
  33   17   36 1
  34   18   19 1
  35   18   20 1
  36   20   21 am
  37   20   22 2
  38   21   37 1
  39   21   38 1

#	End of record

