#	Name: ASD01230641
#	Creating user name:	WinNT
#	Creation time:	15. 06. 2019 19:14

#	Modifying user name:	WinNT
#	Modification time:	15. 06. 2019 19:14

#	Program:	/corina/corina34_cracker 3.40 0067  02.08.2006

@<TRIPOS>MOLECULE
ASD01230641
  37   39    0    0    0
SMALL
NO_CHARGES


@<TRIPOS>ATOM
   1 C1            -0.0169     1.3984     0.0097 C.ar    
   2 C2             0.0021    -0.0041     0.0020 C.ar    
   3 C3             1.2330    -0.6605    -0.0133 C.ar    
   4 C4             2.3883     0.1054    -0.0203 C.ar    
   5 C5             2.2901     1.4833    -0.0119 C.ar    
   6 N6             1.1147     2.0836     0.0026 N.ar    
   7 N7            -1.2305     2.0715     0.0191 N.pl3   
   8 C8            -3.6304    -2.2183     0.0269 C.ar    
   9 C9            -2.6405    -2.5132    -0.9101 C.ar    
  10 C10           -1.4645    -1.7964    -0.9184 C.ar    
  11 C11           -1.2635    -0.7752     0.0105 C.ar    
  12 C12           -2.2538    -0.4804     0.9477 C.ar    
  13 C13           -3.4297    -1.1975     0.9557 C.ar    
  14 C14           -4.8990    -2.9866     0.0322 C.ar    
  15 C15           -5.8893    -2.6938     0.9673 C.ar    
  16 C16           -7.0718    -3.4146     0.9666 C.ar    
  17 C17           -7.2680    -4.4262     0.0361 C.ar    
  18 C18           -6.2858    -4.7172    -0.8918 C.ar    
  19 C19           -5.1062    -4.0000    -0.9022 C.ar    
  20 O20           -8.0403    -3.1319     1.8772 O.3     
  21 C21           -9.2342    -3.9150     1.8187 C.3     
  22 H22            1.2845    -1.7393    -0.0192 H       
  23 H23            3.3574    -0.3713    -0.0318 H       
  24 H24            3.1905     2.0796    -0.0174 H       
  25 H25           -2.0621     1.5722     0.0204 H       
  26 H26           -1.2471     3.0414     0.0245 H       
  27 H27           -2.7961    -3.3038    -1.6292 H       
  28 H28           -0.6976    -2.0253    -1.6436 H       
  29 H29           -2.0986     0.3103     1.6668 H       
  30 H30           -4.1966    -0.9690     1.6810 H       
  31 H31           -5.7351    -1.9070     1.6909 H       
  32 H32           -8.1905    -4.9877     0.0377 H       
  33 H33           -6.4433    -5.5052    -1.6135 H       
  34 H34           -4.3424    -4.2271    -1.6312 H       
  35 H35           -9.7038    -3.7893     0.8431 H       
  36 H36           -8.9873    -4.9658     1.9704 H       
  37 H37           -9.9222    -3.5873     2.5980 H       
@<TRIPOS>BOND
   1    1    2 ar
   2    1    6 ar
   3    1    7 1
   4    2    3 ar
   5    2   11 1
   6    3    4 ar
   7    3   22 1
   8    4    5 ar
   9    4   23 1
  10    5    6 ar
  11    5   24 1
  12    7   25 1
  13    7   26 1
  14    8    9 ar
  15    8   13 ar
  16    8   14 1
  17    9   10 ar
  18    9   27 1
  19   10   11 ar
  20   10   28 1
  21   11   12 ar
  22   12   13 ar
  23   12   29 1
  24   13   30 1
  25   14   15 ar
  26   14   19 ar
  27   15   16 ar
  28   15   31 1
  29   16   17 ar
  30   16   20 1
  31   17   18 ar
  32   17   32 1
  33   18   19 ar
  34   18   33 1
  35   19   34 1
  36   20   21 1
  37   21   35 1
  38   21   36 1
  39   21   37 1

#	End of record

