#	Name: ASD01028127
#	Creating user name:	WinNT
#	Creation time:	15. 06. 2019 18:56

#	Modifying user name:	WinNT
#	Modification time:	15. 06. 2019 18:56

#	Program:	/corina/corina34_cracker 3.40 0067  02.08.2006

@<TRIPOS>MOLECULE
ASD01028127
  71   75    0    0    0
SMALL
NO_CHARGES


@<TRIPOS>ATOM
   1 C1            -0.0901     1.8373    -0.1082 C.3     
   2 C2            -0.3831     0.3629    -0.3804 C.3     
   3 C3            -0.8490    -0.3241     0.9027 C.3     
   4 C4             1.8529     2.4522     1.3403 C.3     
   5 N5             1.3811     2.0256    -0.0002 N.am    
   6 N6             3.9920     1.9888     2.4517 N.3     
   7 N7             2.8928    -1.9140     3.2772 N.pl3   
   8 C8             4.0159    -1.4167     3.9180 C.ar    
   9 C9             4.4683    -0.1635     3.5249 C.ar    
  10 C10            3.7336     0.5476     2.4193 C.3     
  11 C11            4.6856    -2.1142     4.9194 C.ar    
  12 C12            5.7977    -1.5440     5.5277 C.ar    
  13 C13            6.2334    -0.2837     5.1338 C.ar    
  14 C14            5.5664     0.3997     4.1356 C.ar    
  15 O15           -1.2919    -1.6540     0.6198 O.3     
  16 C16           -0.6526    -2.6691     1.2576 C.ar    
  17 C17            0.5062    -2.3966     1.9317 C.ar    
  18 C18            1.1804    -3.4317     2.5883 C.ar    
  19 C19            2.3944    -3.1827     3.2943 C.ar    
  20 N20            2.9709    -4.2000     3.9088 N.ar    
  21 O21            4.4567    -3.3388     5.4706 O.3     
  22 C22            5.5085    -3.5932     6.4080 C.3     
  23 O23            6.2885    -2.3957     6.4713 O.3     
  24 C24           -1.1692    -3.9706     1.2247 C.ar    
  25 C25           -0.5192    -5.0051     1.8645 C.ar    
  26 C26            0.6690    -4.7504     2.5628 C.ar    
  27 N27            1.3443    -5.7083     3.2182 N.ar    
  28 C28            2.4507    -5.4188     3.8627 C.ar    
  29 O29           -2.3251    -4.2169     0.5546 O.3     
  30 C30            3.3669     2.6584     1.2995 C.3     
  31 C31            3.5318     2.5778     3.7163 C.3     
  32 C32            2.2187     1.8245    -1.0368 C.2     
  33 O33            3.3223     2.3329    -1.0336 O.2     
  34 O34            1.8326     1.0603    -2.0758 O.3     
  35 C35            2.7862     0.8871    -3.1570 C.3     
  36 C36            4.0582     0.2320    -2.6151 C.3     
  37 C37            2.1742    -0.0050    -4.2389 C.3     
  38 C38            3.1310     2.2520    -3.7563 C.3     
  39 H39           -0.4763     2.4434    -0.9278 H       
  40 H40           -0.5659     2.1376     0.8254 H       
  41 H41           -1.1634     0.2830    -1.1373 H       
  42 H42            0.5217    -0.1245    -0.7435 H       
  43 H43           -0.0226    -0.3622     1.6124 H       
  44 H44           -1.6702     0.2447     1.3389 H       
  45 H45            1.3656     3.3870     1.6173 H       
  46 H46            1.6100     1.6831     2.0735 H       
  47 H47            2.3942    -1.2738     2.7457 H       
  48 H48            2.6634     0.3741     2.5325 H       
  49 H49            4.0596     0.1478     1.4591 H       
  50 H50            7.0946     0.1619     5.6093 H       
  51 H51            5.9073     1.3789     3.8333 H       
  52 H52            0.8977    -1.3904     1.9564 H       
  53 H53            5.0898    -3.8196     7.3885 H       
  54 H54            6.1246    -4.4236     6.0633 H       
  55 H55           -0.9233    -6.0059     1.8274 H       
  56 H56            2.9637    -6.2144     4.3824 H       
  57 H57           -2.1984    -4.4527    -0.3746 H       
  58 H58            3.7652     2.2379     0.3761 H       
  59 H59            3.5885     3.7250     1.3360 H       
  60 H60            2.4499     2.4707     3.7945 H       
  61 H61            4.0090     2.0646     4.5511 H       
  62 H62            3.7949     3.6353     3.7415 H       
  63 H63            3.8126    -0.7403    -2.1882 H       
  64 H64            4.7741     0.1021    -3.4268 H       
  65 H65            4.4942     0.8676    -1.8444 H       
  66 H66            1.2679     0.4617    -4.6249 H       
  67 H67            2.8900    -0.1350    -5.0505 H       
  68 H68            1.9285    -0.9773    -3.8119 H       
  69 H69            3.5670     2.8876    -2.9856 H       
  70 H70            3.8468     2.1220    -4.5680 H       
  71 H71            2.2248     2.7187    -4.1424 H       
@<TRIPOS>BOND
   1    1    2 1
   2    1    5 1
   3    1   39 1
   4    1   40 1
   5    2    3 1
   6    2   41 1
   7    2   42 1
   8    3   15 1
   9    3   43 1
  10    3   44 1
  11    4    5 1
  12    4   30 1
  13    4   45 1
  14    4   46 1
  15    5   32 am
  16    6   30 1
  17    6   31 1
  18    6   10 1
  19    7    8 1
  20    7   19 1
  21    7   47 1
  22    8    9 ar
  23    8   11 ar
  24    9   10 1
  25    9   14 ar
  26   10   48 1
  27   10   49 1
  28   11   12 ar
  29   11   21 1
  30   12   13 ar
  31   12   23 1
  32   13   14 ar
  33   13   50 1
  34   14   51 1
  35   15   16 1
  36   16   17 ar
  37   16   24 ar
  38   17   18 ar
  39   17   52 1
  40   18   19 ar
  41   18   26 ar
  42   19   20 ar
  43   20   28 ar
  44   21   22 1
  45   22   23 1
  46   22   53 1
  47   22   54 1
  48   24   25 ar
  49   24   29 1
  50   25   26 ar
  51   25   55 1
  52   26   27 ar
  53   27   28 ar
  54   28   56 1
  55   29   57 1
  56   30   58 1
  57   30   59 1
  58   31   60 1
  59   31   61 1
  60   31   62 1
  61   32   33 2
  62   32   34 1
  63   34   35 1
  64   35   36 1
  65   35   37 1
  66   35   38 1
  67   36   63 1
  68   36   64 1
  69   36   65 1
  70   37   66 1
  71   37   67 1
  72   37   68 1
  73   38   69 1
  74   38   70 1
  75   38   71 1

#	End of record

