#	Name: ASD01001117
#	Creating user name:	WinNT
#	Creation time:	15. 06. 2019 18:55

#	Modifying user name:	WinNT
#	Modification time:	15. 06. 2019 18:55

#	Program:	/corina/corina34_cracker 3.40 0067  02.08.2006

@<TRIPOS>MOLECULE
ASD01001117
  49   51    0    0    0
SMALL
NO_CHARGES


@<TRIPOS>ATOM
   1 C1             0.0460     1.2741     0.0912 C.2     
   2 C2             0.0384    -0.0637     0.0619 C.2     
   3 C3            -1.3066    -0.6091     0.0520 C.2     
   4 C4            -2.2805     0.3500     0.0747 C.2     
   5 S5            -1.5919     1.9068     0.1004 S.3     
   6 N6            -3.6415     0.0908     0.0708 N.am    
   7 C7            -4.5219     1.1109     0.0947 C.2     
   8 C8            -1.5926    -2.0467     0.0199 C.2     
   9 O9            -1.6168    -2.6856     1.0556 O.2     
  10 N10           -1.8286    -2.6608    -1.1564 N.am    
  11 C11           -2.0024    -4.1147    -1.2017 C.3     
  12 C12           -1.9113    -1.8743    -2.3896 C.3     
  13 C13           -3.4603    -4.4638    -0.8960 C.3     
  14 C14           -0.5480    -1.8699    -3.0841 C.3     
  15 C15           -5.9737     0.8344     0.0905 C.ar    
  16 O16           -4.1219     2.2586     0.1198 O.2     
  17 C17            1.3036     2.1217     0.1076 C.3     
  18 C18            2.4889     1.2361     0.5015 C.3     
  19 C19            2.4808    -0.0251    -0.3676 C.3     
  20 C20            1.3013    -0.9101     0.0420 C.3     
  21 C21           -6.8883     1.8888     0.1152 C.ar    
  22 C22           -8.2421     1.6236     0.1112 C.ar    
  23 C23           -8.6941     0.3162     0.0827 C.ar    
  24 C24           -7.7929    -0.7335     0.0585 C.ar    
  25 C25           -6.4365    -0.4822     0.0560 C.ar    
  26 H26           -3.9607    -0.8250     0.0508 H       
  27 H27           -1.7416    -4.4810    -2.1947 H       
  28 H28           -1.3539    -4.5815    -0.4604 H       
  29 H29           -2.6554    -2.3156    -3.0527 H       
  30 H30           -2.2000    -0.8511    -2.1493 H       
  31 H31           -3.7475    -4.0215     0.0578 H       
  32 H32           -4.1011    -4.0719    -1.6859 H       
  33 H33           -3.5710    -5.5469    -0.8423 H       
  34 H34           -0.6312    -1.3613    -4.0445 H       
  35 H35            0.1767    -1.3488    -2.4585 H       
  36 H36           -0.2183    -2.8965    -3.2439 H       
  37 H37            1.4745     2.5413    -0.8838 H       
  38 H38            1.1921     2.9272     0.8334 H       
  39 H39            3.4195     1.7813     0.3442 H       
  40 H40            2.4018     0.9561     1.5513 H       
  41 H41            2.3790     0.2556    -1.4159 H       
  42 H42            3.4130    -0.5717    -0.2249 H       
  43 H43            1.4811    -1.3220     1.0350 H       
  44 H44            1.1862    -1.7212    -0.6770 H       
  45 H45           -6.5369     2.9097     0.1379 H       
  46 H46           -8.9508     2.4384     0.1307 H       
  47 H47           -9.7550     0.1141     0.0796 H       
  48 H48           -8.1523    -1.7517     0.0370 H       
  49 H49           -5.7342    -1.3025     0.0371 H       
@<TRIPOS>BOND
   1    1    2 2
   2    1   17 1
   3    1    5 1
   4    2    3 1
   5    2   20 1
   6    3    4 2
   7    3    8 1
   8    4    5 1
   9    4    6 1
  10    6    7 am
  11    6   26 1
  12    7   15 1
  13    7   16 2
  14    8    9 2
  15    8   10 am
  16   10   11 1
  17   10   12 1
  18   11   13 1
  19   11   27 1
  20   11   28 1
  21   12   14 1
  22   12   29 1
  23   12   30 1
  24   13   31 1
  25   13   32 1
  26   13   33 1
  27   14   34 1
  28   14   35 1
  29   14   36 1
  30   15   21 ar
  31   15   25 ar
  32   17   18 1
  33   17   37 1
  34   17   38 1
  35   18   19 1
  36   18   39 1
  37   18   40 1
  38   19   20 1
  39   19   41 1
  40   19   42 1
  41   20   43 1
  42   20   44 1
  43   21   22 ar
  44   21   45 1
  45   22   23 ar
  46   22   46 1
  47   23   24 ar
  48   23   47 1
  49   24   25 ar
  50   24   48 1
  51   25   49 1

#	End of record

