#	Name: ASD01913582
#	Creating user name:	WinNT
#	Creation time:	15. 06. 2019 20:01

#	Modifying user name:	WinNT
#	Modification time:	15. 06. 2019 20:01

#	Program:	/corina/corina34_cracker 3.40 0067  02.08.2006

@<TRIPOS>MOLECULE
ASD01913582
  33   35    0    0    0
SMALL
NO_CHARGES


@<TRIPOS>ATOM
   1 C1            -2.9828     0.0702    -1.3176 C.ar    
   2 C2            -2.3933    -0.1638    -0.0794 C.ar    
   3 C3            -3.1041     0.1826     1.0651 C.ar    
   4 N4            -4.3067     0.7183     0.9364 N.ar    
   5 C5            -4.8313     0.9244    -0.2549 C.ar    
   6 N6            -4.1897     0.6099    -1.3622 N.ar    
   7 C7            -1.0661    -2.0680     0.1060 C.ar    
   8 C8             0.1632    -2.6891     0.3081 C.ar    
   9 C9             0.2166    -4.0680     0.4073 C.ar    
  10 N10           -0.8751    -4.7965     0.3130 N.ar    
  11 C11           -2.0688    -4.2465     0.1203 C.ar    
  12 C12           -2.2033    -2.8665     0.0109 C.ar    
  13 C13           -3.2677    -5.1109     0.0205 C.2     
  14 N14           -3.1443    -6.4489     0.1252 N.am    
  15 O15           -1.1550    -0.7170     0.0097 O.3     
  16 O16           -4.3624    -4.6136    -0.1558 O.2     
  17 C17           -4.2726    -7.2625     0.0313 C.ar    
  18 C18           -4.1382    -8.6440     0.1403 C.ar    
  19 C19           -5.2686    -9.4397     0.0449 C.ar    
  20 C20           -6.5555    -7.4475    -0.2497 C.ar    
  21 N21           -5.4627    -6.7145    -0.1554 N.ar    
  22 C22           -6.4962    -8.8241    -0.1566 C.ar    
  23 F23           -2.9229    -9.2009     0.3358 F       
  24 H24           -2.4609    -0.1809    -2.2291 H       
  25 H25           -2.6804     0.0162     2.0445 H       
  26 H26           -5.8154     1.3637    -0.3257 H       
  27 H27            1.0656    -2.1008     0.3863 H       
  28 H28            1.1685    -4.5536     0.5641 H       
  29 H29           -3.1746    -2.4210    -0.1455 H       
  30 H30           -2.2705    -6.8459     0.2659 H       
  31 H31           -5.1960   -10.5143     0.1252 H       
  32 H32           -7.5094    -6.9646    -0.4020 H       
  33 H33           -7.3964    -9.4154    -0.2357 H       
@<TRIPOS>BOND
   1    1    2 ar
   2    1    6 ar
   3    1   24 1
   4    2    3 ar
   5    2   15 1
   6    3    4 ar
   7    3   25 1
   8    4    5 ar
   9    5    6 ar
  10    5   26 1
  11    7    8 ar
  12    7   12 ar
  13    7   15 1
  14    8    9 ar
  15    8   27 1
  16    9   10 ar
  17    9   28 1
  18   10   11 ar
  19   11   12 ar
  20   11   13 1
  21   12   29 1
  22   13   14 am
  23   13   16 2
  24   14   17 1
  25   14   30 1
  26   17   18 ar
  27   17   21 ar
  28   18   19 ar
  29   18   23 1
  30   19   22 ar
  31   19   31 1
  32   20   21 ar
  33   20   22 ar
  34   20   32 1
  35   22   33 1

#	End of record

