#	Name: ASD01882885
#	Creating user name:	WinNT
#	Creation time:	15. 06. 2019 19:45

#	Modifying user name:	WinNT
#	Modification time:	15. 06. 2019 19:45

#	Program:	/corina/corina34_cracker 3.40 0067  02.08.2006

@<TRIPOS>MOLECULE
ASD01882885
  42   44    0    0    0
SMALL
NO_CHARGES


@<TRIPOS>ATOM
   1 C1            -0.0159     1.3220     0.0093 C.2     
   2 N2             0.0021    -0.0041     0.0020 N.2     
   3 C3             1.1523    -0.6857    -0.0126 C.2     
   4 C4             2.3835     0.0173    -0.0206 C.2     
   5 C5             2.3523     1.3664    -0.0131 C.2     
   6 N6             1.1484     2.0132     0.0019 N.pl3   
   7 O7            -1.0993     2.1290     0.0184 O.3     
   8 C8             0.8540     3.4562     0.0125 C.3     
   9 C9            -0.6831     3.5211     0.0242 C.3     
  10 O10            1.1423    -1.9071    -0.0187 O.2     
  11 C11           -1.1944     4.2379    -1.2270 C.3     
  12 O12           -2.6209     4.3119    -1.1842 O.3     
  13 C13           -3.2386     4.9234    -2.2289 C.ar    
  14 C14           -4.6216     5.0305    -2.2523 C.ar    
  15 C15           -5.2471     5.6525    -3.3154 C.ar    
  16 C16           -4.4961     6.1681    -4.3555 C.ar    
  17 C17           -3.1176     6.0622    -4.3348 C.ar    
  18 C18           -2.4869     5.4466    -3.2710 C.ar    
  19 C19           -5.1811     6.8461    -5.5140 C.3     
  20 C20           -5.9792     8.0471    -5.0026 C.3     
  21 C21           -4.1309     7.3225    -6.5196 C.3     
  22 C22           -6.1286     5.8572    -6.1960 C.3     
  23 H23            3.3237    -0.5140    -0.0321 H       
  24 H24            3.2727     1.9314    -0.0185 H       
  25 H25            1.2651     3.9237     0.9072 H       
  26 H26            1.2480     3.9334    -0.8848 H       
  27 H27           -1.0396     4.0220     0.9243 H       
  28 H28           -0.7793     5.2451    -1.2639 H       
  29 H29           -0.8857     3.6850    -2.1142 H       
  30 H30           -5.2087     4.6276    -1.4403 H       
  31 H31           -6.3237     5.7358    -3.3343 H       
  32 H32           -2.5332     6.4651    -5.1488 H       
  33 H33           -1.4099     5.3684    -3.2529 H       
  34 H34           -5.3042     8.7516    -4.5167 H       
  35 H35           -6.4747     8.5375    -5.8405 H       
  36 H36           -6.7274     7.7077    -4.2862 H       
  37 H37           -3.5624     6.4669    -6.8839 H       
  38 H38           -4.6264     7.8129    -7.3575 H       
  39 H39           -3.4559     8.0270    -6.0337 H       
  40 H40           -6.8767     5.5178    -5.4796 H       
  41 H41           -6.6240     6.3476    -7.0339 H       
  42 H42           -5.5600     5.0016    -6.5604 H       
@<TRIPOS>BOND
   1    1    2 2
   2    1    6 1
   3    1    7 1
   4    2    3 1
   5    3    4 1
   6    3   10 2
   7    4    5 2
   8    4   23 1
   9    5    6 1
  10    5   24 1
  11    6    8 1
  12    7    9 1
  13    8    9 1
  14    8   25 1
  15    8   26 1
  16    9   11 1
  17    9   27 1
  18   11   12 1
  19   11   28 1
  20   11   29 1
  21   12   13 1
  22   13   14 ar
  23   13   18 ar
  24   14   15 ar
  25   14   30 1
  26   15   16 ar
  27   15   31 1
  28   16   17 ar
  29   16   19 1
  30   17   18 ar
  31   17   32 1
  32   18   33 1
  33   19   20 1
  34   19   22 1
  35   19   21 1
  36   20   34 1
  37   20   35 1
  38   20   36 1
  39   21   37 1
  40   21   38 1
  41   21   39 1
  42   22   40 1
  43   22   41 1
  44   22   42 1

#	End of record

