#	Name: ASD01890575
#	Creating user name:	WinNT
#	Creation time:	15. 06. 2019 19:51

#	Modifying user name:	WinNT
#	Modification time:	15. 06. 2019 19:51

#	Program:	/corina/corina34_cracker 3.40 0067  02.08.2006

@<TRIPOS>MOLECULE
ASD01890575
  33   34    0    0    0
SMALL
NO_CHARGES


@<TRIPOS>ATOM
   1 C1            -0.0184     1.5084     0.0103 C.2     
   2 C2             0.0021    -0.0041     0.0020 C.3     
   3 C3            -0.8921    -0.5103     1.1413 C.3     
   4 C4            -2.2769     0.1358     1.0043 C.3     
   5 C5            -2.1019     1.6363     0.9266 C.2     
   6 O6             1.0093     2.1435     0.0039 O.2     
   7 O7            -2.7304     2.3731     1.6490 O.2     
   8 O8            -1.2209     2.1304     0.0195 O.3     
   9 C9            -1.0227    -2.0090     1.0535 C.ar    
  10 C10           -0.6006    -2.8023     2.1039 C.ar    
  11 C11           -0.7203    -4.1771     2.0233 C.ar    
  12 C12           -1.2627    -4.7586     0.8925 C.ar    
  13 C13           -1.6856    -3.9653    -0.1575 C.ar    
  14 C14           -1.5699    -2.5902    -0.0752 C.ar    
  15 C15           -1.3923    -6.2574     0.8043 C.3     
  16 C16           -2.7503    -6.6857     1.3641 C.3     
  17 C17           -2.8819    -8.2074     1.2745 C.3     
  18 H18           -0.3778    -0.3701    -0.9518 H       
  19 H19            1.0222    -0.3572     0.1528 H       
  20 H20           -0.4534    -0.2348     2.1003 H       
  21 H21           -2.7604    -0.2239     0.0960 H       
  22 H22           -2.8864    -0.1173     1.8717 H       
  23 H23           -0.1769    -2.3481     2.9873 H       
  24 H24           -0.3899    -4.7970     2.8437 H       
  25 H25           -2.1090    -4.4196    -1.0411 H       
  26 H26           -1.9037    -1.9702    -0.8940 H       
  27 H27           -1.3144    -6.5681    -0.2376 H       
  28 H28           -0.5965    -6.7257     1.3836 H       
  29 H29           -2.8282    -6.3750     2.4059 H       
  30 H30           -3.5461    -6.2174     0.7848 H       
  31 H31           -2.8040    -8.5181     0.2326 H       
  32 H32           -2.0861    -8.6756     1.8537 H       
  33 H33           -3.8494    -8.5125     1.6733 H       
@<TRIPOS>BOND
   1    1    2 1
   2    1    6 2
   3    1    8 1
   4    2    3 1
   5    2   18 1
   6    2   19 1
   7    3    4 1
   8    3    9 1
   9    3   20 1
  10    4    5 1
  11    4   21 1
  12    4   22 1
  13    5    7 2
  14    5    8 1
  15    9   10 ar
  16    9   14 ar
  17   10   11 ar
  18   10   23 1
  19   11   12 ar
  20   11   24 1
  21   12   13 ar
  22   12   15 1
  23   13   14 ar
  24   13   25 1
  25   14   26 1
  26   15   16 1
  27   15   27 1
  28   15   28 1
  29   16   17 1
  30   16   29 1
  31   16   30 1
  32   17   31 1
  33   17   32 1
  34   17   33 1

#	End of record

