#	Name: ASD05740030
#	Creating user name:	WinNT
#	Creation time:	15. 06. 2019 21:02

#	Modifying user name:	WinNT
#	Modification time:	15. 06. 2019 21:02

#	Program:	/corina/corina34_cracker 3.40 0067  02.08.2006

@<TRIPOS>MOLECULE
ASD05740030
  47   50    0    0    0
SMALL
NO_CHARGES


@<TRIPOS>ATOM
   1 C1            -0.0184     1.5028     0.0103 C.3     
   2 C2             1.2422    -0.7052    -0.0136 C.2     
   3 C3             1.2252    -2.0887    -0.0204 C.2     
   4 C4             0.0021    -0.0041     0.0020 C.2     
   5 C5            -1.1619    -0.7046     0.0098 C.2     
   6 C6            -1.1260    -2.1083     0.0024 C.2     
   7 O7             0.0469    -2.7569    -0.0123 O.3     
   8 C8            -2.4830     0.0202     0.0268 C.3     
   9 C9            -2.9971     0.1608    -1.3828 C.ar    
  10 C10           -2.7548     1.3159    -2.1153 C.ar    
  11 O11           -2.1684    -2.7412     0.0098 O.2     
  12 C12           -4.1745    -0.6931    -3.2845 C.ar    
  13 N13           -3.9267     0.4259    -3.9462 N.ar    
  14 C14           -3.2387     1.4134    -3.4039 C.ar    
  15 N15           -4.9037    -1.7086    -3.8954 N.am    
  16 S16           -5.4574    -1.5141    -5.4439 S.o2    
  17 O17           -6.1637    -2.7164    -5.7171 O.2     
  18 O18           -6.1260    -0.2604    -5.4221 O.2     
  19 S19            2.8739    -2.7055    -0.0389 S.3     
  20 C20            3.5509    -1.0886    -0.0372 C.2     
  21 C21            2.5963    -0.1718    -0.0182 C.2     
  22 O22            4.8808    -0.8127    -0.0482 O.3     
  23 C23            5.7468    -1.8550    -0.0620 C.2     
  24 N24            5.4041    -3.1043    -0.0712 N.2     
  25 S25            7.4504    -1.7126    -0.0773 S.3     
  26 C26            7.6076    -3.4672    -0.0895 C.2     
  27 C27            6.3812    -3.9922    -0.0851 C.2     
  28 C28           -3.9534    -1.4159    -6.4534 C.3     
  29 C29           -4.3368    -1.2334    -7.9233 C.3     
  30 C30           -3.7165    -0.8606    -1.9793 C.ar    
  31 F31           -3.9705    -2.0038    -1.3055 F       
  32 H32            1.0042     1.8801     0.0026 H       
  33 H33           -0.5455     1.8639    -0.8728 H       
  34 H34           -0.5286     1.8543     0.9071 H       
  35 H35           -3.2006    -0.5463     0.6204 H       
  36 H36           -2.3493     1.0092     0.4651 H       
  37 H37           -2.1936     2.1297    -1.6805 H       
  38 H38           -3.0523     2.3100    -3.9764 H       
  39 H39           -5.0877    -2.5305    -3.4142 H       
  40 H40            2.8055     0.8877    -0.0139 H       
  41 H41            8.5347    -4.0210    -0.1020 H       
  42 H42            6.2022    -5.0573    -0.0901 H       
  43 H43           -3.3514    -0.5679    -6.1270 H       
  44 H44           -3.3786    -2.3349    -6.3392 H       
  45 H45           -3.4331    -1.1745    -8.5299 H       
  46 H46           -4.9388    -2.0815    -8.2497 H       
  47 H47           -4.9117    -0.3144    -8.0375 H       
@<TRIPOS>BOND
   1    1    4 1
   2    1   32 1
   3    1   33 1
   4    1   34 1
   5    2    3 2
   6    2    4 1
   7    2   21 1
   8    3   19 1
   9    3    7 1
  10    4    5 2
  11    5    6 1
  12    5    8 1
  13    6    7 1
  14    6   11 2
  15    8    9 1
  16    8   35 1
  17    8   36 1
  18    9   10 ar
  19    9   30 ar
  20   10   14 ar
  21   10   37 1
  22   12   13 ar
  23   12   15 1
  24   12   30 ar
  25   13   14 ar
  26   14   38 1
  27   15   16 am
  28   15   39 1
  29   16   17 2
  30   16   18 2
  31   16   28 1
  32   19   20 1
  33   20   21 2
  34   20   22 1
  35   21   40 1
  36   22   23 1
  37   23   25 1
  38   23   24 2
  39   24   27 1
  40   25   26 1
  41   26   27 2
  42   26   41 1
  43   27   42 1
  44   28   29 1
  45   28   43 1
  46   28   44 1
  47   29   45 1
  48   29   46 1
  49   29   47 1
  50   30   31 1

#	End of record

