#	Name: ASD04560016
#	Creating user name:	WinNT
#	Creation time:	15. 06. 2019 20:49

#	Modifying user name:	WinNT
#	Modification time:	15. 06. 2019 20:49

#	Program:	/corina/corina34_cracker 3.40 0067  02.08.2006

@<TRIPOS>MOLECULE
ASD04560016
  50   52    0    0    0
SMALL
NO_CHARGES


@<TRIPOS>ATOM
   1 C1             0.2703     0.9543     0.1495 C.ar    
   2 C2             0.4136    -0.4090     0.1667 C.ar    
   3 C3             1.6771    -0.9797     0.0312 C.ar    
   4 C4             2.7985    -0.1674    -0.1217 C.ar    
   5 C5             2.6614     1.1964    -0.1396 C.ar    
   6 C6             1.3942     1.7722    -0.0042 C.ar    
   7 C7             1.2433     3.2389    -0.0236 C.2     
   8 O8             2.2214     3.9491    -0.1574 O.2     
   9 N9             0.0214     3.7924     0.1070 N.am    
  10 C10           -0.1105     5.1824     0.2034 C.ar    
  11 C11           -1.2105     5.8171    -0.3583 C.ar    
  12 C12            0.7235     7.2998     0.9599 C.ar    
  13 C13            0.8556     5.9282     0.8659 C.ar    
  14 F14           -0.4986     9.2731     0.4871 F       
  15 S15            1.8574    -2.7323     0.0538 S.3     
  16 C16            3.6450    -2.9613    -0.1525 C.3     
  17 C17           -1.3387     7.1889    -0.2620 C.ar    
  18 C18           -0.3713     7.9313     0.3941 C.ar    
  19 C19            3.9659    -4.4338    -0.1536 C.ar    
  20 C20            3.9722    -5.1412    -1.3465 C.ar    
  21 C21            4.2672    -6.4968    -1.3475 C.ar    
  22 C22            4.5545    -7.1418    -0.1608 C.ar    
  23 C23            4.5487    -6.4341     1.0324 C.ar    
  24 C24            4.2594    -5.0776     1.0327 C.ar    
  25 O25            3.6889    -4.5062    -2.5151 O.3     
  26 C26            4.6807    -3.8009    -3.0816 C.2     
  27 O27            5.7897    -3.8259    -2.6026 O.2     
  28 C28            4.4110    -2.9779    -4.3149 C.3     
  29 O29            4.8315    -7.0691     2.2009 O.3     
  30 C30            5.1256    -8.4655     2.1257 C.3     
  31 F31            6.2449    -8.6630     1.3099 F       
  32 F32            5.3913    -8.9559     3.4087 F       
  33 F33            4.0287    -9.1446     1.5847 F       
  34 H34           -0.7100     1.3960     0.2502 H       
  35 H35           -0.4539    -1.0412     0.2858 H       
  36 H36            3.7769    -0.6127    -0.2258 H       
  37 H37            3.5312     1.8256    -0.2578 H       
  38 H38           -0.7666     3.2274     0.1341 H       
  39 H39           -1.9651     5.2385    -0.8704 H       
  40 H40            1.4746     7.8801     1.4750 H       
  41 H41            1.7094     5.4360     1.3076 H       
  42 H42            3.9613    -2.5198    -1.0975 H       
  43 H43            4.1708    -2.4755     0.6695 H       
  44 H44           -2.1939     7.6829    -0.6991 H       
  45 H45            4.2717    -7.0478    -2.2764 H       
  46 H46            4.7834    -8.1973    -0.1615 H       
  47 H47            4.2551    -4.5266     1.9616 H       
  48 H48            3.3630    -3.0789    -4.5971 H       
  49 H49            4.6324    -1.9308    -4.1085 H       
  50 H50            5.0425    -3.3288    -5.1311 H       
@<TRIPOS>BOND
   1    1    2 ar
   2    1    6 ar
   3    1   34 1
   4    2    3 ar
   5    2   35 1
   6    3    4 ar
   7    3   15 1
   8    4    5 ar
   9    4   36 1
  10    5    6 ar
  11    5   37 1
  12    6    7 1
  13    7    8 2
  14    7    9 am
  15    9   10 1
  16    9   38 1
  17   10   11 ar
  18   10   13 ar
  19   11   17 ar
  20   11   39 1
  21   12   13 ar
  22   12   18 ar
  23   12   40 1
  24   13   41 1
  25   14   18 1
  26   15   16 1
  27   16   19 1
  28   16   42 1
  29   16   43 1
  30   17   18 ar
  31   17   44 1
  32   19   20 ar
  33   19   24 ar
  34   20   21 ar
  35   20   25 1
  36   21   22 ar
  37   21   45 1
  38   22   23 ar
  39   22   46 1
  40   23   24 ar
  41   23   29 1
  42   24   47 1
  43   25   26 1
  44   26   27 2
  45   26   28 1
  46   28   48 1
  47   28   49 1
  48   28   50 1
  49   29   30 1
  50   30   31 1
  51   30   32 1
  52   30   33 1

#	End of record

