#	Name: ASD01813746
#	Creating user name:	WinNT
#	Creation time:	15. 06. 2019 19:31

#	Modifying user name:	WinNT
#	Modification time:	15. 06. 2019 19:31

#	Program:	/corina/corina34_cracker 3.40 0067  02.08.2006

@<TRIPOS>MOLECULE
ASD01813746
  33   35    0    0    0
SMALL
NO_CHARGES


@<TRIPOS>ATOM
   1 C1            -0.0168     1.3835    -0.0513 C.ar    
   2 C2             0.0020    -0.0038    -0.0583 C.ar    
   3 C3             1.1977    -0.6920    -0.0534 C.ar    
   4 C4             2.4035     0.0084    -0.0411 C.ar    
   5 C5             2.3796     1.4130    -0.0341 C.ar    
   6 C6             1.1627     2.0947    -0.0392 C.ar    
   7 N7             3.6056    -0.6668    -0.0350 N.pl3   
   8 C8             4.7891    -0.0410    -0.0219 C.2     
   9 C9             4.8932     1.3356    -0.0135 C.2     
  10 C10            3.6619     2.1417    -0.0212 C.2     
  11 O11            3.7002     3.3596    -0.0146 O.2     
  12 C12            6.2115     1.9851     0.0018 C.2     
  13 O13            6.3001     3.3302     0.0099 O.3     
  14 O14            7.2220     1.3094     0.0072 O.2     
  15 C15            3.5871    -2.1316    -0.0427 C.3     
  16 C16            3.4445    -2.6248    -1.4595 C.ar    
  17 N17            2.2453    -2.7326    -2.0029 N.ar    
  18 N18            2.0714    -3.1469    -3.2052 N.ar    
  19 C19            3.0897    -3.4954    -3.9842 C.ar    
  20 C20            4.3961    -3.4133    -3.4918 C.ar    
  21 C21            4.5726    -2.9593    -2.1929 C.ar    
  22 F22            1.2003    -2.0429    -0.0599 F       
  23 C23            2.8509    -3.9530    -5.3200 C.1     
  24 N24            2.6614    -4.3159    -6.3796 N.1     
  25 H25           -0.9607     1.9082    -0.0599 H       
  26 H26           -0.9292    -0.5507    -0.0675 H       
  27 H27            1.1454     3.1746    -0.0341 H       
  28 H28            5.6925    -0.6328    -0.0174 H       
  29 H29            7.1887     3.7116     0.0199 H       
  30 H30            4.5175    -2.5090     0.3815 H       
  31 H31            2.7459    -2.4875     0.5522 H       
  32 H32            5.2410    -3.6907    -4.1047 H       
  33 H33            5.5597    -2.8760    -1.7627 H       
@<TRIPOS>BOND
   1    1    2 ar
   2    1    6 ar
   3    1   25 1
   4    2    3 ar
   5    2   26 1
   6    3   22 1
   7    3    4 ar
   8    4    5 ar
   9    4    7 1
  10    5    6 ar
  11    5   10 1
  12    6   27 1
  13    7    8 1
  14    7   15 1
  15    8    9 2
  16    8   28 1
  17    9   10 1
  18    9   12 1
  19   10   11 2
  20   12   13 1
  21   12   14 2
  22   13   29 1
  23   15   16 1
  24   15   30 1
  25   15   31 1
  26   16   17 ar
  27   16   21 ar
  28   17   18 ar
  29   18   19 ar
  30   19   20 ar
  31   19   23 1
  32   20   21 ar
  33   20   32 1
  34   21   33 1
  35   23   24 3

#	End of record

