#	Name: ASD01883126
#	Creating user name:	WinNT
#	Creation time:	15. 06. 2019 19:45

#	Modifying user name:	WinNT
#	Modification time:	15. 06. 2019 19:45

#	Program:	/corina/corina34_cracker 3.40 0067  02.08.2006

@<TRIPOS>MOLECULE
ASD01883126
  38   39    0    0    0
SMALL
NO_CHARGES


@<TRIPOS>ATOM
   1 N1            -0.0162     1.3417     0.0094 N.am    
   2 C2             0.0021    -0.0041     0.0020 C.2     
   3 C3            -1.2166    -0.7275     0.0102 C.2     
   4 C4            -2.4257    -0.0118     0.0261 C.2     
   5 C5            -2.3786     1.3954     0.0332 C.2     
   6 C6            -1.1848     2.0319     0.0299 C.2     
   7 O7             1.0656    -0.6000    -0.0121 O.2     
   8 C8            -1.2158    -2.1595     0.0021 C.1     
   9 N9            -1.2152    -3.2954    -0.0044 N.1     
  10 C10            1.2511     2.0766     0.0013 C.3     
  11 C11            1.6785     2.3402    -1.4440 C.3     
  12 C12            2.9345     3.2139    -1.4531 C.3     
  13 C13           -3.7229    -0.7230     0.0347 C.ar    
  14 C14            3.2901     3.5807    -2.8953 C.3     
  15 C15           -4.5720    -0.6188     1.1376 C.ar    
  16 C16           -5.7803    -1.2846     1.1392 C.ar    
  17 C17           -6.1508    -2.0546     0.0510 C.ar    
  18 C18           -5.3137    -2.1620    -1.0455 C.ar    
  19 C19           -4.1055    -1.4964    -1.0624 C.ar    
  20 C20            1.9776     1.0099    -2.1381 C.3     
  21 H21           -3.2952     1.9665     0.0453 H       
  22 H22           -1.1612     3.1116     0.0354 H       
  23 H23            1.1240     3.0260     0.5214 H       
  24 H24            2.0167     1.4862     0.5046 H       
  25 H25            0.8752     2.8533    -1.9726 H       
  26 H26            2.7485     4.1235    -0.8821 H       
  27 H27            3.7620     2.6653    -1.0032 H       
  28 H28            4.1849     4.2032    -2.9018 H       
  29 H29            3.4761     2.6711    -3.4663 H       
  30 H30            2.4626     4.1293    -3.3452 H       
  31 H31           -4.2836    -0.0187     1.9879 H       
  32 H32           -6.4382    -1.2049     1.9920 H       
  33 H33           -7.0975    -2.5744     0.0576 H       
  34 H34           -5.6088    -2.7647    -1.8917 H       
  35 H35           -3.4531    -1.5807    -1.9190 H       
  36 H36            2.7810     0.4968    -1.6094 H       
  37 H37            1.0828     0.3875    -2.1316 H       
  38 H38            2.2821     1.1977    -3.1677 H       
@<TRIPOS>BOND
   1    1    2 am
   2    1   10 1
   3    1    6 1
   4    2    3 1
   5    2    7 2
   6    3    4 2
   7    3    8 1
   8    4    5 1
   9    4   13 1
  10    5    6 2
  11    5   21 1
  12    6   22 1
  13    8    9 3
  14   10   11 1
  15   10   23 1
  16   10   24 1
  17   11   12 1
  18   11   20 1
  19   11   25 1
  20   12   14 1
  21   12   26 1
  22   12   27 1
  23   13   15 ar
  24   13   19 ar
  25   14   28 1
  26   14   29 1
  27   14   30 1
  28   15   16 ar
  29   15   31 1
  30   16   17 ar
  31   16   32 1
  32   17   18 ar
  33   17   33 1
  34   18   19 ar
  35   18   34 1
  36   19   35 1
  37   20   36 1
  38   20   37 1
  39   20   38 1

#	End of record

