#	Name: ASD07110017
#	Creating user name:	WinNT
#	Creation time:	15. 06. 2019 21:09

#	Modifying user name:	WinNT
#	Modification time:	15. 06. 2019 21:09

#	Program:	/corina/corina34_cracker 3.40 0067  02.08.2006

@<TRIPOS>MOLECULE
ASD07110017
 432  441    0    0    0
SMALL
NO_CHARGES


@<TRIPOS>ATOM
   1 C1            -4.2825    18.2825   -72.0860 C.2     
   2 O2            -5.1673    18.1304   -72.9013 O.2     
   3 N3            -5.2576    16.3579   -70.9679 N.3     
   4 C4            -4.1792    17.3534   -70.9040 C.3     
   5 C5            -3.2194    19.5276   -74.6585 C.2     
   6 O6            -3.1369    18.3178   -74.6799 O.2     
   7 N7            -3.3882    19.2790   -72.2399 N.am    
   8 C8            -3.3685    20.2496   -73.3441 C.3     
   9 C9            -2.1579    21.1790   -73.1155 C.3     
  10 C10           -1.2345    20.3290   -72.2034 C.3     
  11 C11           -2.2716    19.5803   -71.3257 C.3     
  12 C12           -2.4136    20.4510   -78.1025 C.2     
  13 O13           -2.1219    21.5857   -77.7891 O.2     
  14 N14           -3.1779    20.2264   -75.8102 N.am    
  15 C15           -3.0330    19.5246   -77.0880 C.3     
  16 C16           -4.4095    19.0746   -77.5816 C.3     
  17 O17           -5.2109    20.2222   -77.8694 O.3     
  18 C18           -1.9741    20.4795   -81.7314 C.2     
  19 O19           -2.4005    19.3590   -81.9146 O.2     
  20 N20           -2.1838    20.0184   -79.3581 N.am    
  21 C21           -1.5817    20.9190   -80.3444 C.3     
  22 C22           -0.0583    20.8788   -80.2085 C.3     
  23 C23            0.3500    21.4839   -78.8639 C.3     
  24 C24            1.8581    21.3176   -78.6667 C.3     
  25 C25           -0.0058    22.9718   -78.8451 C.3     
  26 C26           -2.4170    23.4957   -81.8006 C.2     
  27 O27           -3.3219    22.9053   -81.2497 O.2     
  28 N28           -1.8512    21.3317   -82.7683 N.am    
  29 C29           -1.4479    22.7424   -82.6749 C.3     
  30 C30           -1.4720    23.3215   -84.1052 C.3     
  31 C31           -2.4326    22.3598   -84.8533 C.3     
  32 C32           -2.0928    21.0019   -84.1847 C.3     
  33 C33           -4.4775    25.8455   -81.7342 C.2     
  34 O34           -4.4967    25.4519   -82.8812 O.2     
  35 N35           -2.2780    24.8255   -81.6307 N.am    
  36 C36           -3.2771    25.5744   -80.8645 C.3     
  37 C37           -2.6737    26.9015   -80.3999 C.3     
  38 C38           -1.5534    26.6314   -79.4288 C.2     
  39 C39           -1.6526    26.5732   -78.0914 C.2     
  40 N40           -0.4273    26.3069   -77.5438 N.pl3   
  41 C41            0.5144    26.1841   -78.5408 C.ar    
  42 C42            1.8803    25.9219   -78.5409 C.ar    
  43 C43            2.5649    25.8590   -79.7351 C.ar    
  44 C44            1.9052    26.0549   -80.9404 C.ar    
  45 C45            0.5637    26.3142   -80.9634 C.ar    
  46 C46           -0.1508    26.3762   -79.7657 C.ar    
  47 C47           -7.4179    28.0117   -81.5769 C.2     
  48 O48           -7.3268    28.3300   -80.4102 O.2     
  49 N49           -5.5299    26.5254   -81.2374 N.am    
  50 C50           -6.6969    26.7889   -82.0829 C.3     
  51 C51           -7.6407    25.5856   -82.0389 C.3     
  52 C52           -6.9799    24.4044   -82.7016 C.ar    
  53 C53           -6.2091    23.5347   -81.9524 C.ar    
  54 C54           -5.6020    22.4515   -82.5576 C.ar    
  55 C55           -5.7665    22.2363   -83.9183 C.ar    
  56 O56           -5.1706    21.1711   -84.5159 O.3     
  57 C57           -6.5408    23.1101   -84.6677 C.ar    
  58 C58           -7.1501    24.1890   -84.0568 C.ar    
  59 C59          -10.0440    29.4674   -81.0451 C.2     
  60 O60          -10.0911    28.3121   -80.6791 O.2     
  61 N61           -8.1641    28.7515   -82.4210 N.am    
  62 C62           -9.0008    29.8998   -82.0430 C.3     
  63 C63           -9.6845    30.4114   -83.3285 C.3     
  64 C64           -9.6369    29.1740   -84.2634 C.3     
  65 C65           -8.2715    28.5472   -83.8770 C.3     
  66 C66          -12.7906    31.1277   -79.2083 C.2     
  67 O67          -12.5721    32.2151   -79.6990 O.2     
  68 N68          -10.9246    30.3646   -80.5593 N.am    
  69 C69          -11.9387    29.9443   -79.5891 C.3     
  70 C70          -14.0507    33.0065   -77.0157 C.2     
  71 O71          -12.9530    32.7412   -76.5735 O.2     
  72 N72          -13.7952    30.9776   -78.3225 N.am    
  73 C73          -14.6918    32.0999   -78.0347 C.3     
  74 C74          -16.0151    31.5668   -77.4821 C.3     
  75 C75          -16.7132    30.7571   -78.5442 C.2     
  76 O76          -16.2547    30.7043   -79.6657 O.2     
  77 N77          -17.8471    30.0915   -78.2477 N.am    
  78 C78          -15.1445    35.7512   -74.8632 C.2     
  79 O79          -16.3129    35.5727   -75.1349 O.2     
  80 N80          -14.6972    34.1120   -76.5959 N.am    
  81 C81          -14.0740    34.9933   -75.6054 C.3     
  82 C82          -13.1472    35.9827   -76.3145 C.3     
  83 C83          -11.9898    35.2216   -76.9641 C.3     
  84 C84          -11.0630    36.2111   -77.6733 C.3     
  85 C85           -9.9056    35.4499   -78.3229 C.3     
  86 N86           -9.0157    36.3999   -79.0037 N.3     
  87 C87          -15.2686    38.6486   -72.6377 C.2     
  88 O88          -14.0829    38.7271   -72.3948 O.2     
  89 N89          -14.8034    36.6272   -73.8975 N.am    
  90 C90          -15.8440    37.3640   -73.1760 C.3     
  91 C91          -16.3613    36.5113   -72.0158 C.3     
  92 C92          -14.9224    40.9569   -70.6756 C.2     
  93 O93          -14.7941    39.8820   -70.1287 O.2     
  94 N94          -16.0715    39.7102   -72.4263 N.am    
  95 C95          -15.6304    41.0473   -72.0028 C.3     
  96 C96          -16.8929    41.9241   -71.8656 C.3     
  97 C97          -18.0227    40.8785   -71.6713 C.3     
  98 C98          -17.5368    39.7248   -72.5874 C.3     
  99 C99          -13.8378    43.3081   -68.0952 C.2     
 100 O100         -14.2592    44.2823   -68.6819 O.2     
 101 N101         -14.4317    42.0706   -70.0964 N.am    
 102 C102         -13.7434    41.9827   -68.8061 C.3     
 103 C103         -12.2722    41.6309   -69.0358 C.3     
 104 C104         -12.1710    40.2246   -69.6301 C.3     
 105 C105         -11.6518    42.6397   -70.0044 C.3     
 106 C106         -12.6535    44.7619   -64.9572 C.2     
 107 O107         -11.8550    43.8666   -64.7790 O.2     
 108 N108         -13.4540    43.4108   -66.8073 N.am    
 109 C109         -13.6520    44.6682   -66.0820 C.3     
 110 C110         -15.0703    44.7088   -65.5096 C.3     
 111 C111         -16.0825    44.7394   -66.6565 C.3     
 112 C112         -17.4795    44.7794   -66.0927 C.2     
 113 O113         -17.6482    44.7831   -64.8963 O.2     
 114 O114         -18.5363    44.8109   -66.9196 O.3     
 115 C115         -12.0565    45.3043   -61.8576 C.2     
 116 O116         -13.1365    44.7542   -61.8128 O.2     
 117 N117         -12.6478    45.8407   -64.1493 N.am    
 118 C118         -11.6092    45.9840   -63.1261 C.3     
 119 C119         -11.3664    47.4693   -62.8504 C.3     
 120 C120         -10.8058    48.1245   -64.0864 C.2     
 121 O121         -10.5226    47.4510   -65.0543 O.2     
 122 N122         -10.6193    49.4590   -64.1160 N.am    
 123 C123         -10.9900    45.2712   -58.3613 C.2     
 124 O124         -10.2044    46.1789   -58.5342 O.2     
 125 N125         -11.2564    45.3076   -60.7731 N.am    
 126 C126         -11.6912    44.6468   -59.5400 C.3     
 127 C127         -11.3446    43.1582   -59.6096 C.3     
 128 C128         -12.1523    42.4982   -60.7290 C.3     
 129 C129         -11.8109    41.0320   -60.7975 C.2     
 130 O130         -11.0013    40.5613   -60.0270 O.2     
 131 N131         -12.4053    40.2439   -61.7152 N.am    
 132 C132         -10.4910    44.4343   -54.8380 C.2     
 133 O133         -10.9682    43.3278   -54.9755 O.2     
 134 N134         -11.2359    44.8211   -57.1149 N.am    
 135 C135         -10.5543    45.4281   -55.9691 C.3     
 136 C136         -11.3261    46.6688   -55.5152 C.3     
 137 C137         -11.2839    47.7277   -56.6188 C.3     
 138 C138         -12.0441    48.9497   -56.1717 C.2     
 139 O139         -12.5661    48.9714   -55.0822 O.2     
 140 O140         -12.1413    50.0140   -56.9839 O.3     
 141 C141          -9.7315    44.5453   -51.2639 C.2     
 142 O142          -9.7064    45.7577   -51.2500 O.2     
 143 N143          -9.9040    44.7750   -53.6736 N.am    
 144 C144          -9.8424    43.8089   -52.5741 C.3     
 145 C145          -8.6209    42.9058   -52.7565 C.3     
 146 C146          -8.7921    42.0661   -54.0240 C.3     
 147 C147          -7.5706    41.1631   -54.2064 C.3     
 148 N148          -7.7345    40.3591   -55.4200 N.pl3   
 149 C149          -6.7561    39.4675   -55.7913 C.2     
 150 N150          -5.6826    39.3375   -55.0635 N.2     
 151 N151          -6.9100    38.7130   -56.9303 N.pl3   
 152 C152          -8.8929    43.6827   -47.8120 C.2     
 153 O153          -8.5469    42.5611   -48.1174 O.2     
 154 N154          -9.6603    43.8564   -50.1077 N.am    
 155 C155          -9.5525    44.5723   -48.8340 C.3     
 156 C156         -10.9502    44.9597   -48.3468 C.3     
 157 C157         -11.5618    45.9461   -49.3081 C.ar    
 158 C158         -12.3120    45.4945   -50.3778 C.ar    
 159 C159         -12.8729    46.3993   -51.2595 C.ar    
 160 C160         -12.6841    47.7557   -51.0714 C.ar    
 161 C161         -11.9347    48.2073   -50.0012 C.ar    
 162 C162         -11.3773    47.3026   -49.1170 C.ar    
 163 C163          -8.9068    42.3949   -44.8798 C.2     
 164 O164         -10.0895    42.4250   -45.1465 O.2     
 165 N165          -8.6875    44.1334   -46.5586 N.am    
 166 C166          -7.9492    43.3116   -45.5964 C.3     
 167 C167          -7.2535    44.2184   -44.5792 C.3     
 168 C168          -6.2108    45.0514   -45.2793 C.2     
 169 O169          -5.9690    44.8599   -46.4523 O.2     
 170 N170          -5.5471    46.0091   -44.6020 N.am    
 171 C171          -9.9437    41.5487   -42.0308 C.2     
 172 O172          -9.5860    42.6979   -41.8814 O.2     
 173 N173          -8.4488    41.5415   -43.9425 N.am    
 174 C174          -9.3909    40.7294   -43.1684 C.3     
 175 C175          -8.6670    39.5030   -42.6089 C.3     
 176 C176          -8.2584    38.5997   -43.7439 C.2     
 177 O177          -8.4447    38.9455   -44.8913 O.2     
 178 N178          -7.6861    37.4075   -43.4838 N.am    
 179 C179         -11.7209    40.9752   -38.9201 C.2     
 180 O180         -11.4427    39.7948   -38.9330 O.2     
 181 N181         -10.8356    41.0045   -41.1794 N.am    
 182 C182         -11.4448    41.8276   -40.1318 C.3     
 183 C183         -12.7573    42.4207   -40.6479 C.3     
 184 C184         -13.6441    41.2994   -41.1932 C.3     
 185 C185         -14.0985    40.4022   -40.0402 C.3     
 186 C186         -12.4597    43.4239   -41.7641 C.3     
 187 C187         -13.7344    41.3386   -35.8908 C.2     
 188 O188         -14.1778    42.4098   -36.2470 O.2     
 189 N189         -12.2769    41.5246   -37.8222 N.am    
 190 C190         -12.6332    40.6789   -36.6803 C.3     
 191 C191         -11.4074    40.4882   -35.7847 C.3     
 192 C192         -10.3512    39.7194   -36.5360 C.2     
 193 C193          -9.0788    40.1123   -36.7365 C.2     
 194 N194          -8.4685    39.1237   -37.4603 N.pl3   
 195 C195          -9.3898    38.1605   -37.6770 C.2     
 196 N196         -10.5120    38.5213   -37.1170 N.2     
 197 C197         -15.2033    40.8457   -32.5702 C.2     
 198 O198         -14.7655    39.7300   -32.3847 O.2     
 199 N199         -14.2263    40.7383   -34.7890 N.am    
 200 C200         -15.2181    41.4279   -33.9601 C.3     
 201 C201         -16.6084    41.2488   -34.5732 C.3     
 202 C202         -17.6186    42.1032   -33.8048 C.3     
 203 C203         -17.3160    43.5846   -34.0386 C.3     
 204 C204         -19.0324    41.7876   -34.2970 C.3     
 205 C205         -16.6272    41.6560   -29.3023 C.2     
 206 O206         -17.4192    42.4407   -29.7798 O.2     
 207 N207         -15.6765    41.5649   -31.5332 N.am    
 208 C208         -15.5522    41.0501   -30.1673 C.3     
 209 C209         -14.1776    41.4194   -29.6062 C.3     
 210 C210         -13.0898    40.7033   -30.4092 C.3     
 211 C211         -11.7358    41.0671   -29.8565 C.2     
 212 O212         -11.6494    41.8245   -28.9132 O.2     
 213 N213         -10.6209    40.5508   -30.4104 N.am    
 214 C214         -17.2886    43.2524   -26.6411 C.2     
 215 O215         -16.1964    43.6705   -26.9445 O.2     
 216 N216         -16.7086    41.3260   -27.9981 N.am    
 217 C217         -17.7536    41.9151   -27.1572 C.3     
 218 C218         -18.0429    40.9854   -25.9770 C.3     
 219 C219         -18.6237    39.6918   -26.4871 C.2     
 220 C220         -18.1473    38.4573   -26.2369 C.2     
 221 N221         -18.9684    37.5764   -26.8876 N.pl3   
 222 C222         -19.9187    38.3038   -27.5133 C.2     
 223 N223         -19.7092    39.5678   -27.2652 N.2     
 224 O224         -18.0879    43.9790   -25.8443 O.3     
 225 H225          -5.2352    15.8562   -71.8430 H       
 226 H226          -5.2101    15.7226   -70.1855 H       
 227 H227          -3.2147    16.8459   -70.9239 H       
 228 H228          -4.2688    17.9274   -69.9817 H       
 229 H229          -4.2905    20.8309   -73.3431 H       
 230 H230          -1.6633    21.4072   -74.0596 H       
 231 H231          -2.4645    22.0940   -72.6086 H       
 232 H232          -0.6393    19.6309   -72.7920 H       
 233 H233          -0.5953    20.9661   -71.5921 H       
 234 H234          -2.6113    20.2174   -70.5091 H       
 235 H235          -1.8419    18.6580   -70.9349 H       
 236 H236          -3.2439    21.1940   -75.7931 H       
 237 H237          -2.3925    18.6530   -76.9531 H       
 238 H238          -4.2936    18.4764   -78.4854 H       
 239 H239          -4.8946    18.4768   -76.8100 H       
 240 H240          -6.0993    20.0116   -78.1880 H       
 241 H241          -2.4171    19.1109   -79.6088 H       
 242 H242          -1.9352    21.9355   -80.1717 H       
 243 H243           0.2841    19.8453   -80.2608 H       
 244 H244           0.3939    21.4527   -81.0174 H       
 245 H245          -0.1800    20.9734   -78.0598 H       
 246 H246           2.3882    21.8282   -79.4707 H       
 247 H247           2.1490    21.7487   -77.7087 H       
 248 H248           2.1116    20.2576   -78.6801 H       
 249 H249           0.4711    23.4702   -79.6890 H       
 250 H250          -1.0872    23.0878   -78.9184 H       
 251 H251           0.3451    23.4176   -77.9143 H       
 252 H252          -0.4423    22.8138   -82.2605 H       
 253 H253          -1.8674    24.3373   -84.1033 H       
 254 H254          -0.4768    23.2947   -84.5489 H       
 255 H255          -3.4732    22.6346   -84.6806 H       
 256 H256          -2.2085    22.3352   -85.9197 H       
 257 H257          -1.1975    20.5699   -84.6317 H       
 258 H258          -2.9332    20.3138   -84.2760 H       
 259 H259          -1.5165    25.2866   -82.0159 H       
 260 H260          -3.5819    24.9902   -79.9962 H       
 261 H261          -2.2850    27.4451   -81.2610 H       
 262 H262          -3.4430    27.4987   -79.9102 H       
 263 H263          -2.5645    26.7158   -77.5306 H       
 264 H264          -0.2486    26.2179   -76.5945 H       
 265 H265           2.4026    25.7684   -77.6082 H       
 266 H266           3.6256    25.6556   -79.7331 H       
 267 H267           2.4566    26.0022   -81.8675 H       
 268 H268           0.0571    26.4660   -81.9051 H       
 269 H269          -5.5145    26.8403   -80.3201 H       
 270 H270          -6.3712    26.9579   -83.1093 H       
 271 H271          -7.8681    25.3399   -81.0016 H       
 272 H272          -8.5637    25.8283   -82.5656 H       
 273 H273          -6.0813    23.7026   -80.8932 H       
 274 H274          -4.9994    21.7728   -81.9721 H       
 275 H275          -5.7131    20.3707   -84.5246 H       
 276 H276          -6.6701    22.9450   -85.7271 H       
 277 H277          -7.7565    24.8670   -84.6389 H       
 278 H278          -8.3797    30.6854   -81.6129 H       
 279 H279         -10.7152    30.7032   -83.1272 H       
 280 H280          -9.1245    31.2416   -83.7589 H       
 281 H281         -10.4588    28.4908   -84.0494 H       
 282 H282          -9.6441    29.4753   -85.3109 H       
 283 H283          -7.4578    29.0572   -84.3927 H       
 284 H284          -8.2630    27.4829   -84.1124 H       
 285 H285         -10.8870    31.2886   -80.8520 H       
 286 H286         -11.4486    29.5483   -78.6997 H       
 287 H287         -12.5672    29.1717   -80.0321 H       
 288 H288         -13.9246    30.1265   -77.8755 H       
 289 H289         -14.8797    32.6591   -78.9513 H       
 290 H290         -15.8190    30.9363   -76.6148 H       
 291 H291         -16.6491    32.4031   -77.1874 H       
 292 H292         -18.2138    30.1338   -77.3507 H       
 293 H293         -18.2964    29.5704   -78.9313 H       
 294 H294         -15.5752    34.3242   -76.9496 H       
 295 H295         -13.4964    34.3959   -74.9000 H       
 296 H296         -13.7062    36.5182   -77.0819 H       
 297 H297         -12.7525    36.6945   -75.5894 H       
 298 H298         -11.4308    34.6862   -76.1967 H       
 299 H299         -12.3845    34.5099   -77.6892 H       
 300 H300         -11.6219    36.7465   -78.4407 H       
 301 H301         -10.6682    36.9228   -76.9482 H       
 302 H302          -9.3466    34.9145   -77.5554 H       
 303 H303         -10.3003    34.7382   -79.0480 H       
 304 H304          -8.6874    37.1091   -78.3654 H       
 305 H305          -8.2426    35.9214   -79.4412 H       
 306 H306         -13.8689    36.7700   -73.6802 H       
 307 H307         -16.6660    37.5905   -73.8551 H       
 308 H308         -17.0698    37.0924   -71.4254 H       
 309 H309         -16.8580    35.6246   -72.4098 H       
 310 H310         -15.5248    36.2093   -71.3856 H       
 311 H311         -14.9614    41.4713   -72.7516 H       
 312 H312         -16.8169    42.5760   -70.9953 H       
 313 H313         -17.0583    42.5066   -72.7719 H       
 314 H314         -18.0831    40.5572   -70.6314 H       
 315 H315         -18.9806    41.2701   -72.0138 H       
 316 H316         -17.8023    39.9243   -73.6256 H       
 317 H317         -17.9638    38.7765   -72.2613 H       
 318 H318         -14.5343    42.9302   -70.5338 H       
 319 H319         -14.2111    41.2094   -68.1968 H       
 320 H320         -11.7383    41.6633   -68.0861 H       
 321 H321         -12.6041    40.2208   -70.6303 H       
 322 H322         -11.1234    39.9286   -69.6866 H       
 323 H323         -12.7132    39.5226   -68.9967 H       
 324 H324         -11.7239    43.6416   -69.5811 H       
 325 H325         -10.6037    42.3891   -70.1681 H       
 326 H326         -12.1857    42.6073   -70.9541 H       
 327 H327         -13.0466    42.6523   -66.3607 H       
 328 H328         -13.5112    45.5070   -66.7637 H       
 329 H329         -15.2408    43.8228   -64.8980 H       
 330 H330         -15.1892    45.6020   -64.8962 H       
 331 H331         -15.9120    45.6254   -67.2681 H       
 332 H332         -15.9637    43.8462   -67.2699 H       
 333 H333         -19.4126    44.8360   -66.5114 H       
 334 H334         -13.3313    46.5222   -64.2454 H       
 335 H335         -10.6859    45.5242   -63.4786 H       
 336 H336         -12.3081    47.9475   -62.5810 H       
 337 H337         -10.6571    47.5753   -62.0295 H       
 338 H338         -10.8459    49.9977   -63.3418 H       
 339 H339         -10.2586    49.8807   -64.9115 H       
 340 H340         -10.3926    45.7475   -60.8090 H       
 341 H341         -12.7688    44.7639   -59.4256 H       
 342 H342         -10.2800    43.0421   -59.8127 H       
 343 H343         -11.5868    42.6839   -58.6586 H       
 344 H344         -13.2169    42.6143   -60.5258 H       
 345 H345         -11.9101    42.9726   -61.6800 H       
 346 H346         -13.0528    40.6204   -62.3315 H       
 347 H347         -12.1855    39.3002   -61.7593 H       
 348 H348         -11.8643    44.0951   -56.9767 H       
 349 H349          -9.5431    45.7148   -56.2579 H       
 350 H350         -12.3620    46.3978   -55.3111 H       
 351 H351         -10.8701    47.0693   -54.6098 H       
 352 H352         -10.2480    47.9987   -56.8229 H       
 353 H353         -11.7398    47.3272   -57.5242 H       
 354 H354         -12.6389    50.7744   -56.6534 H       
 355 H355          -9.5223    45.6599   -53.5636 H       
 356 H356         -10.7470    43.2007   -52.5737 H       
 357 H357          -7.7249    43.5201   -52.8459 H       
 358 H358          -8.5246    42.2463   -51.8940 H       
 359 H359          -9.6880    41.4518   -53.9345 H       
 360 H360          -8.8884    42.7257   -54.8864 H       
 361 H361          -6.6747    41.7774   -54.2958 H       
 362 H362          -7.4743    40.5035   -53.3439 H       
 363 H363          -8.5334    40.4558   -55.9616 H       
 364 H364          -4.9923    38.7084   -55.3255 H       
 365 H365          -7.7089    38.8097   -57.4719 H       
 366 H366          -6.2197    38.0839   -57.1922 H       
 367 H367          -9.6803    42.8867   -50.1188 H       
 368 H368          -8.9537    45.4725   -48.9727 H       
 369 H369         -11.5760    44.0689   -48.2931 H       
 370 H370         -10.8777    45.4129   -47.3582 H       
 371 H371         -12.4595    44.4348   -50.5248 H       
 372 H372         -13.4585    46.0465   -52.0956 H       
 373 H373         -13.1218    48.4626   -51.7607 H       
 374 H374         -11.7868    49.2670   -49.8544 H       
 375 H375         -10.7949    47.6556   -48.2788 H       
 376 H376          -9.0285    45.0020   -46.2935 H       
 377 H377          -7.2029    42.7173   -46.1235 H       
 378 H378          -7.9895    44.8738   -44.1135 H       
 379 H379          -6.7759    43.6066   -43.8139 H       
 380 H380          -5.7406    46.1622   -43.6639 H       
 381 H381          -4.8760    46.5452   -45.0526 H       
 382 H382          -7.4955    41.4650   -43.7804 H       
 383 H383         -10.2076    40.4061   -43.8138 H       
 384 H384          -7.7802    39.8228   -42.0617 H       
 385 H385          -9.3337    38.9629   -41.9366 H       
 386 H386          -7.5372    37.1309   -42.5660 H       
 387 H387          -7.4231    36.8261   -44.2143 H       
 388 H388         -11.0741    40.0677   -41.2604 H       
 389 H389         -10.7633    42.6341   -39.8611 H       
 390 H390         -13.2728    42.9273   -39.8320 H       
 391 H391         -14.5167    41.7318   -41.6828 H       
 392 H392         -13.0794    40.7073   -41.9135 H       
 393 H393         -13.2614    39.7904   -39.7041 H       
 394 H394         -14.4504    41.0213   -39.2150 H       
 395 H395         -14.9076    39.7557   -40.3801 H       
 396 H396         -11.9227    42.9227   -42.5695 H       
 397 H397         -13.3961    43.8284   -42.1484 H       
 398 H398         -11.8481    44.2354   -41.3697 H       
 399 H399         -12.4411    42.4800   -37.7881 H       
 400 H400         -12.9751    39.7083   -37.0397 H       
 401 H401         -11.0123    41.4625   -35.4974 H       
 402 H402         -11.6933    39.9340   -34.8907 H       
 403 H403          -8.6269    41.0309   -36.3926 H       
 404 H404          -7.5464    39.1164   -37.7613 H       
 405 H405          -9.2242    37.2418   -38.2202 H       
 406 H406         -13.9238    39.8496   -34.5448 H       
 407 H407         -14.9763    42.4896   -33.9119 H       
 408 H408         -16.5881    41.5613   -35.6173 H       
 409 H409         -16.8996    40.2001   -34.5134 H       
 410 H410         -17.5465    41.8814   -32.7400 H       
 411 H411         -18.0911    44.1920   -33.5712 H       
 412 H412         -16.3483    43.8312   -33.6017 H       
 413 H413         -17.2930    43.7861   -35.1096 H       
 414 H414         -19.2480    40.7322   -34.1303 H       
 415 H415         -19.7521    42.3962   -33.7495 H       
 416 H416         -19.1044    42.0094   -35.3617 H       
 417 H417         -16.0994    42.4235   -31.6913 H       
 418 H418         -15.6615    39.9656   -30.1765 H       
 419 H419         -14.0330    42.4973   -29.6792 H       
 420 H420         -14.1179    41.1147   -28.5613 H       
 421 H421         -13.2344    39.6254   -30.3362 H       
 422 H422         -13.1495    41.0080   -31.4540 H       
 423 H423         -10.6900    39.9450   -31.1649 H       
 424 H424          -9.7494    40.7849   -30.0547 H       
 425 H425         -16.0751    40.6984   -27.6163 H       
 426 H426         -18.6613    42.0484   -27.7457 H       
 427 H427         -17.1167    40.7810   -25.4399 H       
 428 H428         -18.7552    41.4632   -25.3043 H       
 429 H429         -17.2831    38.2099   -25.6382 H       
 430 H430         -18.8835    36.6102   -26.8975 H       
 431 H431         -20.7216    37.9053   -28.1158 H       
 432 H432         -17.7462    44.8303   -25.5382 H       
@<TRIPOS>BOND
   1    1    2 2
   2    1    4 1
   3    1    7 am
   4    3    4 1
   5    3  225 1
   6    3  226 1
   7    4  227 1
   8    4  228 1
   9    5    6 2
  10    5   14 am
  11    5    8 1
  12    7    8 1
  13    7   11 1
  14    8    9 1
  15    8  229 1
  16    9   10 1
  17    9  230 1
  18    9  231 1
  19   10   11 1
  20   10  232 1
  21   10  233 1
  22   11  234 1
  23   11  235 1
  24   12   13 2
  25   12   15 1
  26   12   20 am
  27   14   15 1
  28   14  236 1
  29   15   16 1
  30   15  237 1
  31   16   17 1
  32   16  238 1
  33   16  239 1
  34   17  240 1
  35   18   19 2
  36   18   21 1
  37   18   28 am
  38   20   21 1
  39   20  241 1
  40   21   22 1
  41   21  242 1
  42   22   23 1
  43   22  243 1
  44   22  244 1
  45   23   24 1
  46   23   25 1
  47   23  245 1
  48   24  246 1
  49   24  247 1
  50   24  248 1
  51   25  249 1
  52   25  250 1
  53   25  251 1
  54   26   27 2
  55   26   35 am
  56   26   29 1
  57   28   29 1
  58   28   32 1
  59   29   30 1
  60   29  252 1
  61   30   31 1
  62   30  253 1
  63   30  254 1
  64   31   32 1
  65   31  255 1
  66   31  256 1
  67   32  257 1
  68   32  258 1
  69   33   34 2
  70   33   36 1
  71   33   49 am
  72   35   36 1
  73   35  259 1
  74   36   37 1
  75   36  260 1
  76   37   38 1
  77   37  261 1
  78   37  262 1
  79   38   39 2
  80   38   46 1
  81   39   40 1
  82   39  263 1
  83   40   41 1
  84   40  264 1
  85   41   42 ar
  86   41   46 ar
  87   42   43 ar
  88   42  265 1
  89   43   44 ar
  90   43  266 1
  91   44   45 ar
  92   44  267 1
  93   45   46 ar
  94   45  268 1
  95   47   48 2
  96   47   50 1
  97   47   61 am
  98   49   50 1
  99   49  269 1
 100   50   51 1
 101   50  270 1
 102   51   52 1
 103   51  271 1
 104   51  272 1
 105   52   53 ar
 106   52   58 ar
 107   53   54 ar
 108   53  273 1
 109   54   55 ar
 110   54  274 1
 111   55   56 1
 112   55   57 ar
 113   56  275 1
 114   57   58 ar
 115   57  276 1
 116   58  277 1
 117   59   60 2
 118   59   68 am
 119   59   62 1
 120   61   62 1
 121   61   65 1
 122   62   63 1
 123   62  278 1
 124   63   64 1
 125   63  279 1
 126   63  280 1
 127   64   65 1
 128   64  281 1
 129   64  282 1
 130   65  283 1
 131   65  284 1
 132   66   67 2
 133   66   69 1
 134   66   72 am
 135   68   69 1
 136   68  285 1
 137   69  286 1
 138   69  287 1
 139   70   71 2
 140   70   73 1
 141   70   80 am
 142   72   73 1
 143   72  288 1
 144   73   74 1
 145   73  289 1
 146   74   75 1
 147   74  290 1
 148   74  291 1
 149   75   76 2
 150   75   77 am
 151   77  292 1
 152   77  293 1
 153   78   79 2
 154   78   81 1
 155   78   89 am
 156   80   81 1
 157   80  294 1
 158   81   82 1
 159   81  295 1
 160   82   83 1
 161   82  296 1
 162   82  297 1
 163   83   84 1
 164   83  298 1
 165   83  299 1
 166   84   85 1
 167   84  300 1
 168   84  301 1
 169   85   86 1
 170   85  302 1
 171   85  303 1
 172   86  304 1
 173   86  305 1
 174   87   88 2
 175   87   90 1
 176   87   94 am
 177   89   90 1
 178   89  306 1
 179   90   91 1
 180   90  307 1
 181   91  308 1
 182   91  309 1
 183   91  310 1
 184   92   93 2
 185   92  101 am
 186   92   95 1
 187   94   95 1
 188   94   98 1
 189   95   96 1
 190   95  311 1
 191   96   97 1
 192   96  312 1
 193   96  313 1
 194   97   98 1
 195   97  314 1
 196   97  315 1
 197   98  316 1
 198   98  317 1
 199   99  100 2
 200   99  102 1
 201   99  108 am
 202  101  102 1
 203  101  318 1
 204  102  103 1
 205  102  319 1
 206  103  104 1
 207  103  105 1
 208  103  320 1
 209  104  321 1
 210  104  322 1
 211  104  323 1
 212  105  324 1
 213  105  325 1
 214  105  326 1
 215  106  107 2
 216  106  109 1
 217  106  117 am
 218  108  109 1
 219  108  327 1
 220  109  110 1
 221  109  328 1
 222  110  111 1
 223  110  329 1
 224  110  330 1
 225  111  112 1
 226  111  331 1
 227  111  332 1
 228  112  113 2
 229  112  114 1
 230  114  333 1
 231  115  116 2
 232  115  118 1
 233  115  125 am
 234  117  118 1
 235  117  334 1
 236  118  119 1
 237  118  335 1
 238  119  120 1
 239  119  336 1
 240  119  337 1
 241  120  121 2
 242  120  122 am
 243  122  338 1
 244  122  339 1
 245  123  124 2
 246  123  126 1
 247  123  134 am
 248  125  126 1
 249  125  340 1
 250  126  127 1
 251  126  341 1
 252  127  128 1
 253  127  342 1
 254  127  343 1
 255  128  129 1
 256  128  344 1
 257  128  345 1
 258  129  130 2
 259  129  131 am
 260  131  346 1
 261  131  347 1
 262  132  133 2
 263  132  135 1
 264  132  143 am
 265  134  135 1
 266  134  348 1
 267  135  136 1
 268  135  349 1
 269  136  137 1
 270  136  350 1
 271  136  351 1
 272  137  138 1
 273  137  352 1
 274  137  353 1
 275  138  139 2
 276  138  140 1
 277  140  354 1
 278  141  142 2
 279  141  144 1
 280  141  154 am
 281  143  144 1
 282  143  355 1
 283  144  145 1
 284  144  356 1
 285  145  146 1
 286  145  357 1
 287  145  358 1
 288  146  147 1
 289  146  359 1
 290  146  360 1
 291  147  148 1
 292  147  361 1
 293  147  362 1
 294  148  149 1
 295  148  363 1
 296  149  150 2
 297  149  151 1
 298  150  364 1
 299  151  365 1
 300  151  366 1
 301  152  153 2
 302  152  155 1
 303  152  165 am
 304  154  155 1
 305  154  367 1
 306  155  156 1
 307  155  368 1
 308  156  157 1
 309  156  369 1
 310  156  370 1
 311  157  158 ar
 312  157  162 ar
 313  158  159 ar
 314  158  371 1
 315  159  160 ar
 316  159  372 1
 317  160  161 ar
 318  160  373 1
 319  161  162 ar
 320  161  374 1
 321  162  375 1
 322  163  164 2
 323  163  166 1
 324  163  173 am
 325  165  166 1
 326  165  376 1
 327  166  167 1
 328  166  377 1
 329  167  168 1
 330  167  378 1
 331  167  379 1
 332  168  169 2
 333  168  170 am
 334  170  380 1
 335  170  381 1
 336  171  172 2
 337  171  174 1
 338  171  181 am
 339  173  174 1
 340  173  382 1
 341  174  175 1
 342  174  383 1
 343  175  176 1
 344  175  384 1
 345  175  385 1
 346  176  177 2
 347  176  178 am
 348  178  386 1
 349  178  387 1
 350  179  180 2
 351  179  182 1
 352  179  189 am
 353  181  182 1
 354  181  388 1
 355  182  183 1
 356  182  389 1
 357  183  184 1
 358  183  186 1
 359  183  390 1
 360  184  185 1
 361  184  391 1
 362  184  392 1
 363  185  393 1
 364  185  394 1
 365  185  395 1
 366  186  396 1
 367  186  397 1
 368  186  398 1
 369  187  188 2
 370  187  190 1
 371  187  199 am
 372  189  190 1
 373  189  399 1
 374  190  191 1
 375  190  400 1
 376  191  192 1
 377  191  401 1
 378  191  402 1
 379  192  193 2
 380  192  196 1
 381  193  194 1
 382  193  403 1
 383  194  195 1
 384  194  404 1
 385  195  196 2
 386  195  405 1
 387  197  198 2
 388  197  200 1
 389  197  207 am
 390  199  200 1
 391  199  406 1
 392  200  201 1
 393  200  407 1
 394  201  202 1
 395  201  408 1
 396  201  409 1
 397  202  203 1
 398  202  204 1
 399  202  410 1
 400  203  411 1
 401  203  412 1
 402  203  413 1
 403  204  414 1
 404  204  415 1
 405  204  416 1
 406  205  206 2
 407  205  208 1
 408  205  216 am
 409  207  208 1
 410  207  417 1
 411  208  209 1
 412  208  418 1
 413  209  210 1
 414  209  419 1
 415  209  420 1
 416  210  211 1
 417  210  421 1
 418  210  422 1
 419  211  212 2
 420  211  213 am
 421  213  423 1
 422  213  424 1
 423  214  215 2
 424  214  217 1
 425  214  224 1
 426  216  217 1
 427  216  425 1
 428  217  218 1
 429  217  426 1
 430  218  219 1
 431  218  427 1
 432  218  428 1
 433  219  220 2
 434  219  223 1
 435  220  221 1
 436  220  429 1
 437  221  222 1
 438  221  430 1
 439  222  223 2
 440  222  431 1
 441  224  432 1

#	End of record

