#	Name: ASD03330582
#	Creating user name:	WinNT
#	Creation time:	15. 06. 2019 20:37

#	Modifying user name:	WinNT
#	Modification time:	15. 06. 2019 20:37

#	Program:	/corina/corina34_cracker 3.40 0067  02.08.2006

@<TRIPOS>MOLECULE
ASD03330582
  60   62    0    0    0
SMALL
NO_CHARGES


@<TRIPOS>ATOM
   1 C1            -0.3241     1.1695     0.8513 C.2     
   2 N2            -0.3532    -0.1694     1.0855 N.pl3   
   3 C3             0.9811     1.5555     0.8965 C.2     
   4 N4             1.7281     0.4560     1.1380 N.2     
   5 C5             0.9361    -0.5849     1.2472 C.2     
   6 C6             1.3692    -1.9760     1.5028 C.ar    
   7 C7             1.4879     2.9272     0.7144 C.2     
   8 O8             0.7119     3.8390     0.5011 O.2     
   9 C9             3.3155     4.5349     0.6034 C.3     
  10 N10            2.8116     3.1713     0.7844 N.am    
  11 C11            3.4906     4.8200    -0.8896 C.3     
  12 C12            2.1230     4.8052    -1.5754 C.3     
  13 C13            4.1387     6.1937    -1.0739 C.3     
  14 C14            4.3851     3.7463    -1.5124 C.3     
  15 C15            4.6438     4.6763     1.3009 C.2     
  16 N16            5.1804     5.8985     1.4873 N.am    
  17 O17            5.2300     3.6902     1.6946 O.2     
  18 C18            6.5044     6.0315     2.1003 C.3     
  19 C19           -1.5631    -0.9929     1.1607 C.3     
  20 C20           -2.4704    -0.6624    -0.0285 C.3     
  21 C21           -3.3818     0.5077     0.3276 C.3     
  22 N22           -2.7046     1.4503     1.2203 N.3     
  23 C23           -1.5221     2.0409     0.5762 C.3     
  24 C24           -3.6290     2.4943     1.6825 C.3     
  25 C25            0.9337    -4.1551     2.4142 C.ar    
  26 C26            2.1789    -4.5818     1.9823 C.ar    
  27 C27            3.0241    -3.7070     1.3155 C.ar    
  28 C28            2.6251    -2.4081     1.0745 C.ar    
  29 C29            0.5257    -2.8586     2.1780 C.ar    
  30 F30            2.5737    -5.8525     2.2161 F       
  31 Cl31           4.5831    -4.2488     0.7773 Cl      
  32 H32            2.6049     5.2442     1.0278 H       
  33 H33            3.4305     2.4441     0.9545 H       
  34 H34            1.4857     5.5701    -1.1318 H       
  35 H35            2.2477     5.0083    -2.6391 H       
  36 H36            1.6613     3.8266    -1.4441 H       
  37 H37            5.0979     6.2152    -0.5566 H       
  38 H38            4.2944     6.3823    -2.1361 H       
  39 H39            3.4855     6.9620    -0.6604 H       
  40 H40            3.9234     2.7677    -1.3810 H       
  41 H41            4.5098     3.9494    -2.5760 H       
  42 H42            5.3594     3.7569    -1.0237 H       
  43 H43            4.6900     6.6901     1.2155 H       
  44 H44            7.2416     5.5106     1.4893 H       
  45 H45            6.7690     7.0868     2.1681 H       
  46 H46            6.4875     5.5962     3.0994 H       
  47 H47           -1.2888    -2.0473     1.1277 H       
  48 H48           -2.0903    -0.7816     2.0910 H       
  49 H49           -1.8571    -0.3952    -0.8891 H       
  50 H50           -3.0779    -1.5334    -0.2740 H       
  51 H51           -3.6720     1.0260    -0.5863 H       
  52 H52           -4.2760     0.1271     0.8212 H       
  53 H53           -1.3474     3.0384     0.9795 H       
  54 H54           -1.6868     2.1051    -0.4994 H       
  55 H55           -4.4562     2.0340     2.2228 H       
  56 H56           -3.1003     3.1808     2.3438 H       
  57 H57           -4.0162     3.0428     0.8238 H       
  58 H58            0.2793    -4.8401     2.9328 H       
  59 H59            3.2833    -1.7274     0.5551 H       
  60 H60           -0.4452    -2.5273     2.5156 H       
@<TRIPOS>BOND
   1    1    2 1
   2    1    3 2
   3    1   23 1
   4    2   19 1
   5    2    5 1
   6    3    4 1
   7    3    7 1
   8    4    5 2
   9    5    6 1
  10    6   29 ar
  11    6   28 ar
  12    7    8 2
  13    7   10 am
  14    9   10 1
  15    9   11 1
  16    9   15 1
  17    9   32 1
  18   10   33 1
  19   11   12 1
  20   11   13 1
  21   11   14 1
  22   12   34 1
  23   12   35 1
  24   12   36 1
  25   13   37 1
  26   13   38 1
  27   13   39 1
  28   14   40 1
  29   14   41 1
  30   14   42 1
  31   15   16 am
  32   15   17 2
  33   16   18 1
  34   16   43 1
  35   18   44 1
  36   18   45 1
  37   18   46 1
  38   19   20 1
  39   19   47 1
  40   19   48 1
  41   20   21 1
  42   20   49 1
  43   20   50 1
  44   21   22 1
  45   21   51 1
  46   21   52 1
  47   22   23 1
  48   22   24 1
  49   23   53 1
  50   23   54 1
  51   24   55 1
  52   24   56 1
  53   24   57 1
  54   25   26 ar
  55   25   29 ar
  56   25   58 1
  57   26   27 ar
  58   26   30 1
  59   27   28 ar
  60   27   31 1
  61   28   59 1
  62   29   60 1

#	End of record

