#	Name: ASD08150342
#	Creating user name:	WinNT
#	Creation time:	15. 06. 2019 21:15

#	Modifying user name:	WinNT
#	Modification time:	15. 06. 2019 21:15

#	Program:	/corina/corina34_cracker 3.40 0067  02.08.2006

@<TRIPOS>MOLECULE
ASD08150342
  74   80    0    0    0
SMALL
NO_CHARGES


@<TRIPOS>ATOM
   1 N1             0.0747     1.4878     0.2012 N.am    
   2 C2             0.0757     0.1598    -0.0119 C.2     
   3 C3             1.2686    -0.5676    -0.1225 C.2     
   4 C4             2.4742     0.0709    -0.0137 C.2     
   5 C5             2.4741     1.5184     0.2185 C.ar    
   6 C6             3.6700     2.2449     0.3418 C.ar    
   7 N7             3.6587     3.5368     0.5499 N.ar    
   8 C8             2.5184     4.2354     0.6562 C.ar    
   9 C9             1.2660     3.5826     0.5440 C.ar    
  10 C10            1.2450     2.1862     0.3194 C.ar    
  11 C11            0.0835     4.3201     0.6573 C.ar    
  12 C12            0.1500     5.6861     0.8788 C.ar    
  13 C13            1.3931     6.3253     0.9886 C.ar    
  14 C14            2.5517     5.6218     0.8803 C.ar    
  15 O15           -0.9894    -0.4269    -0.1112 O.2     
  16 C16           -1.0994     6.4760     0.9996 C.ar    
  17 C17           -1.1464     2.1688     0.2981 C.ar    
  18 C18           -1.7345     2.7054    -0.8401 C.ar    
  19 C19           -2.9370     3.3760    -0.7448 C.ar    
  20 C20           -3.5593     3.5143     0.4896 C.ar    
  21 C21           -2.9711     2.9776     1.6277 C.ar    
  22 C22           -1.7710     2.3020     1.5311 C.ar    
  23 N23           -4.7773     4.1941     0.5864 N.3     
  24 C24           -2.3373     5.8940     0.6836 C.ar    
  25 C25           -5.9055     3.2535     0.5995 C.3     
  26 C26           -7.2013     4.0192     0.8876 C.3     
  27 N27           -7.3196     5.1187    -0.0820 N.am    
  28 C28           -6.1728     6.0241    -0.2509 C.3     
  29 C29           -4.9175     5.1794    -0.4941 C.3     
  30 C30           -8.4490     5.2924    -0.7966 C.2     
  31 O31           -9.3852     4.5366    -0.6443 O.2     
  32 C32           -8.5487     6.4258    -1.7848 C.3     
  33 N33           -3.4556     6.5672     0.7804 N.ar    
  34 C34           -3.4753     7.8415     1.1853 C.ar    
  35 C35           -2.2659     8.4997     1.5232 C.ar    
  36 C36           -1.0540     7.7938     1.4314 C.ar    
  37 C37           -9.9232     6.3977    -2.4562 C.3     
  38 C38           -4.6865     8.5484     1.2825 C.ar    
  39 C39           -4.6817     9.8449     1.6966 C.ar    
  40 C40           -3.4917    10.4901     2.0279 C.ar    
  41 C41           -2.2988     9.8392     1.9466 C.ar    
  42 O42            3.6358    -0.6158    -0.1175 O.3     
  43 C43           -3.6456     3.1279     2.9669 C.3     
  44 F44           -2.8045     2.6356     3.9705 F       
  45 F45           -3.9137     4.4802     3.2048 F       
  46 F46           -4.8448     2.4074     2.9684 F       
  47 H47            1.2363    -1.6335    -0.2933 H       
  48 H48            4.6152     1.7283     0.2637 H       
  49 H49           -0.8744     3.8287     0.5724 H       
  50 H50            1.4309     7.3908     1.1613 H       
  51 H51            3.5004     6.1304     0.9679 H       
  52 H52           -1.2506     2.5982    -1.7996 H       
  53 H53           -3.3940     3.7936    -1.6298 H       
  54 H54           -1.3160     1.8805     2.4153 H       
  55 H55           -2.3676     4.8665     0.3523 H       
  56 H56           -5.9811     2.7626    -0.3707 H       
  57 H57           -5.7456     2.5044     1.3751 H       
  58 H58           -8.0538     3.3477     0.7855 H       
  59 H59           -7.1699     4.4246     1.8989 H       
  60 H60           -6.3453     6.6781    -1.1056 H       
  61 H61           -6.0426     6.6222     0.6510 H       
  62 H62           -4.0410     5.8272    -0.5116 H       
  63 H63           -5.0069     4.6617    -1.4491 H       
  64 H64           -8.4181     7.3745    -1.2640 H       
  65 H65           -7.7722     6.3171    -2.5420 H       
  66 H66           -0.1151     8.2653     1.6816 H       
  67 H67          -10.6997     6.5065    -1.6990 H       
  68 H68           -9.9953     7.2175    -3.1709 H       
  69 H69          -10.0539     5.4491    -2.9769 H       
  70 H70           -5.6180     8.0643     1.0290 H       
  71 H71           -5.6154    10.3827     1.7693 H       
  72 H72           -3.5162    11.5197     2.3530 H       
  73 H73           -1.3830    10.3494     2.2063 H       
  74 H74            3.5200    -1.5637    -0.2699 H       
@<TRIPOS>BOND
   1    1    2 am
   2    1   10 1
   3    1   17 1
   4    2    3 1
   5    2   15 2
   6    3    4 2
   7    3   47 1
   8    4    5 1
   9    4   42 1
  10    5    6 ar
  11    5   10 ar
  12    6    7 ar
  13    6   48 1
  14    7    8 ar
  15    8    9 ar
  16    8   14 ar
  17    9   10 ar
  18    9   11 ar
  19   11   12 ar
  20   11   49 1
  21   12   13 ar
  22   12   16 1
  23   13   14 ar
  24   13   50 1
  25   14   51 1
  26   16   24 ar
  27   16   36 ar
  28   17   18 ar
  29   17   22 ar
  30   18   19 ar
  31   18   52 1
  32   19   20 ar
  33   19   53 1
  34   20   21 ar
  35   20   23 1
  36   21   22 ar
  37   21   43 1
  38   22   54 1
  39   23   25 1
  40   23   29 1
  41   24   33 ar
  42   24   55 1
  43   25   26 1
  44   25   56 1
  45   25   57 1
  46   26   27 1
  47   26   58 1
  48   26   59 1
  49   27   28 1
  50   27   30 am
  51   28   29 1
  52   28   60 1
  53   28   61 1
  54   29   62 1
  55   29   63 1
  56   30   31 2
  57   30   32 1
  58   32   37 1
  59   32   64 1
  60   32   65 1
  61   33   34 ar
  62   34   35 ar
  63   34   38 ar
  64   35   36 ar
  65   35   41 ar
  66   36   66 1
  67   37   67 1
  68   37   68 1
  69   37   69 1
  70   38   39 ar
  71   38   70 1
  72   39   40 ar
  73   39   71 1
  74   40   41 ar
  75   40   72 1
  76   41   73 1
  77   42   74 1
  78   43   44 1
  79   43   45 1
  80   43   46 1

#	End of record

