#	Name: ASD01911078
#	Creating user name:	WinNT
#	Creation time:	15. 06. 2019 19:57

#	Modifying user name:	WinNT
#	Modification time:	15. 06. 2019 19:57

#	Program:	/corina/corina34_cracker 3.40 0067  02.08.2006

@<TRIPOS>MOLECULE
ASD01911078
  47   50    0    0    0
SMALL
NO_CHARGES


@<TRIPOS>ATOM
   1 C1             1.0108     1.1720     0.8170 C.ar    
   2 C2             0.5774    -0.0885     0.4421 C.ar    
   3 C3            -0.7585    -0.3043     0.1619 C.ar    
   4 C4            -1.6621     0.7377     0.2558 C.ar    
   5 C5            -1.2306     1.9967     0.6300 C.ar    
   6 C6             0.1039     2.2135     0.9163 C.ar    
   7 F7             2.3166     1.3841     1.0912 F       
   8 C8            -3.1186     0.5013    -0.0506 C.3     
   9 C9            -3.8379     0.0969     1.2104 C.2     
  10 N10           -4.4183     0.8993     2.0699 N.2     
  11 C11           -4.9231     0.1006     3.0270 C.2     
  12 N12           -4.6295    -1.1241     2.7067 N.2     
  13 O13           -4.0112    -1.1484     1.6634 O.3     
  14 C14           -5.6884     0.5443     4.2471 C.3     
  15 C15           -7.0848    -0.0817     4.2299 C.3     
  16 C16           -7.8742     0.3943     5.4515 C.3     
  17 C17           -7.1566    -0.0592     6.7267 C.3     
  18 N18           -5.7675     0.4174     6.6827 N.am    
  19 C19           -4.9460     0.0925     5.5086 C.3     
  20 C20           -5.2565     1.1389     7.6999 C.2     
  21 O21           -4.0866     1.4688     7.6835 O.2     
  22 C22           -6.1181     1.5290     8.8346 C.ar    
  23 C23           -6.8947     0.5691     9.4872 C.ar    
  24 C24           -7.6969     0.9385    10.5454 C.ar    
  25 C25           -7.7337     2.2604    10.9623 C.ar    
  26 C26           -6.9651     3.2176    10.3177 C.ar    
  27 C27           -6.1547     2.8579     9.2623 C.ar    
  28 F28           -8.5218     2.6172    12.0001 F       
  29 H29            1.2832    -0.9026     0.3684 H       
  30 H30           -1.0967    -1.2873    -0.1309 H       
  31 H31           -1.9373     2.8101     0.7026 H       
  32 H32            0.4408     3.1970     1.2090 H       
  33 H33           -3.5606     1.4169    -0.4433 H       
  34 H34           -3.2097    -0.2930    -0.7915 H       
  35 H35           -5.7768     1.6307     4.2459 H       
  36 H36           -7.6062     0.2185     3.3210 H       
  37 H37           -6.9961    -1.1678     4.2555 H       
  38 H38           -7.9420     1.4822     5.4395 H       
  39 H39           -8.8764    -0.0334     5.4263 H       
  40 H40           -7.6595     0.3605     7.5979 H       
  41 H41           -7.1678    -1.1476     6.7848 H       
  42 H42           -4.7770    -0.9836     5.4674 H       
  43 H43           -3.9904     0.6123     5.5762 H       
  44 H44           -6.8670    -0.4607     9.1630 H       
  45 H45           -8.2981     0.1971    11.0506 H       
  46 H46           -6.9978     4.2459    10.6461 H       
  47 H47           -5.5561     3.6042     8.7611 H       
@<TRIPOS>BOND
   1    1    2 ar
   2    1    7 1
   3    1    6 ar
   4    2    3 ar
   5    2   29 1
   6    3    4 ar
   7    3   30 1
   8    4    5 ar
   9    4    8 1
  10    5    6 ar
  11    5   31 1
  12    6   32 1
  13    8    9 1
  14    8   33 1
  15    8   34 1
  16    9   10 2
  17    9   13 1
  18   10   11 1
  19   11   12 2
  20   11   14 1
  21   12   13 1
  22   14   15 1
  23   14   19 1
  24   14   35 1
  25   15   16 1
  26   15   36 1
  27   15   37 1
  28   16   17 1
  29   16   38 1
  30   16   39 1
  31   17   18 1
  32   17   40 1
  33   17   41 1
  34   18   19 1
  35   18   20 am
  36   19   42 1
  37   19   43 1
  38   20   21 2
  39   20   22 1
  40   22   23 ar
  41   22   27 ar
  42   23   24 ar
  43   23   44 1
  44   24   25 ar
  45   24   45 1
  46   25   26 ar
  47   25   28 1
  48   26   27 ar
  49   26   46 1
  50   27   47 1

#	End of record

