#	Name: ASD01884822
#	Creating user name:	WinNT
#	Creation time:	15. 06. 2019 19:48

#	Modifying user name:	WinNT
#	Modification time:	15. 06. 2019 19:48

#	Program:	/corina/corina34_cracker 3.40 0067  02.08.2006

@<TRIPOS>MOLECULE
ASD01884822
  36   39    0    0    0
SMALL
NO_CHARGES


@<TRIPOS>ATOM
   1 C1            -0.0178     1.4608     0.0101 C.3     
   2 N2             0.0021    -0.0041     0.0020 N.am    
   3 C3            -1.1962    -0.7038     0.0039 C.2     
   4 C4            -2.4863    -0.2633     0.0129 C.2     
   5 C5            -3.3269    -1.3896     0.0106 C.2     
   6 N6            -2.5710    -2.4679     0.0006 N.2     
   7 N7            -1.2278    -2.0653    -0.0038 N.pl3   
   8 C8            -0.0472    -2.8008    -0.0136 C.ar    
   9 C9            -0.0692    -4.1877    -0.0220 C.ar    
  10 C10            1.1175    -4.8935    -0.0321 C.ar    
  11 C11            2.3336    -4.2290    -0.0338 C.ar    
  12 C12            2.3750    -2.8504    -0.0250 C.ar    
  13 C13            1.1843    -2.1264    -0.0153 C.ar    
  14 C14            1.1849    -0.6524    -0.0128 C.2     
  15 O15            2.2318    -0.0326    -0.0193 O.2     
  16 C16           -4.8103    -1.3676     0.0186 C.ar    
  17 C17           -5.5102    -0.1579     0.0237 C.ar    
  18 C18           -6.8898    -0.1828     0.0306 C.ar    
  19 N19           -7.5463    -1.3271     0.0324 N.ar    
  20 C20           -6.9239    -2.4905     0.0278 C.ar    
  21 C21           -7.7290    -3.7644     0.0297 C.3     
  22 C22           -5.5460    -2.5563     0.0154 C.ar    
  23 H23            1.0048     1.8381     0.0023 H       
  24 H24           -0.5450     1.8219    -0.8730 H       
  25 H25           -0.5280     1.8123     0.9069 H       
  26 H26           -2.8058     0.7683     0.0208 H       
  27 H27           -1.0122    -4.7141    -0.0204 H       
  28 H28            1.0978    -5.9733    -0.0383 H       
  29 H29            3.2541    -4.7938    -0.0417 H       
  30 H30            3.3242    -2.3352    -0.0257 H       
  31 H31           -4.9791     0.7825     0.0226 H       
  32 H32           -7.4395     0.7468     0.0349 H       
  33 H33           -7.9279    -4.0700    -0.9975 H       
  34 H34           -7.1684    -4.5477     0.5398 H       
  35 H35           -8.6730    -3.5968     0.5482 H       
  36 H36           -5.0431    -3.5120     0.0074 H       
@<TRIPOS>BOND
   1    1    2 1
   2    1   23 1
   3    1   24 1
   4    1   25 1
   5    2   14 am
   6    2    3 1
   7    3    7 1
   8    3    4 2
   9    4    5 1
  10    4   26 1
  11    5    6 2
  12    5   16 1
  13    6    7 1
  14    7    8 1
  15    8   13 ar
  16    8    9 ar
  17    9   10 ar
  18    9   27 1
  19   10   11 ar
  20   10   28 1
  21   11   12 ar
  22   11   29 1
  23   12   13 ar
  24   12   30 1
  25   13   14 1
  26   14   15 2
  27   16   22 ar
  28   16   17 ar
  29   17   18 ar
  30   17   31 1
  31   18   19 ar
  32   18   32 1
  33   19   20 ar
  34   20   21 1
  35   20   22 ar
  36   21   33 1
  37   21   34 1
  38   21   35 1
  39   22   36 1

#	End of record

