#	Name: ASD01000047
#	Creating user name:	WinNT
#	Creation time:	15. 06. 2019 18:54

#	Modifying user name:	WinNT
#	Modification time:	15. 06. 2019 18:54

#	Program:	/corina/corina34_cracker 3.40 0067  02.08.2006

@<TRIPOS>MOLECULE
ASD01000047
  64   68    0    0    0
SMALL
NO_CHARGES


@<TRIPOS>ATOM
   1 C1             0.6652     1.0272    -0.3478 C.ar    
   2 C2             0.5517    -0.3440    -0.2127 C.ar    
   3 C3             1.6408    -1.0939     0.1924 C.ar    
   4 C4             2.8451    -0.4743     0.4632 C.ar    
   5 C5             2.9618     0.9020     0.3284 C.ar    
   6 C6             1.8677     1.6519    -0.0782 C.ar    
   7 C7             1.5133    -2.5883     0.3391 C.3     
   8 C8             0.5372    -2.8960     1.4391 C.2     
   9 C9             1.0487    -3.1754    -0.9635 C.2     
  10 C10           -0.2219    -3.5857    -1.1346 C.2     
  11 N11           -1.1326    -3.4869    -0.1196 N.pl3   
  12 C12           -0.7128    -3.3172     1.1703 C.2     
  13 C13            1.9661    -3.3001    -2.0327 C.2     
  14 C14           -1.6609    -3.6058     2.3055 C.3     
  15 O15            2.2664    -2.3228    -2.6945 O.2     
  16 C16            2.5611    -4.6180    -2.3473 C.ar    
  17 C17            3.3754    -4.7692    -3.4707 C.ar    
  18 C18            3.9273    -6.0004    -3.7581 C.ar    
  19 O19            4.1454     1.5140     0.5946 O.3     
  20 C20           -0.6460    -4.1606    -2.4615 C.3     
  21 C21            4.2367     2.8512     0.3707 C.ar    
  22 C22            3.6849     3.7467     1.2758 C.ar    
  23 C23            3.7791     5.1055     1.0458 C.ar    
  24 C24            4.4224     5.5736    -0.0851 C.ar    
  25 C25            4.9727     4.6834    -0.9888 C.ar    
  26 C26            4.8867     3.3238    -0.7604 C.ar    
  27 C27            0.9405    -2.7401     2.7857 C.2     
  28 O28            0.4261    -1.8819     3.4800 O.2     
  29 C29            1.9874    -3.6200     3.3511 C.ar    
  30 C30            2.3643    -3.4906     4.6887 C.ar    
  31 C31            3.3407    -4.3143     5.2098 C.ar    
  32 C32            3.9462    -5.2667     4.4093 C.ar    
  33 C33            3.5771    -5.4000     3.0825 C.ar    
  34 C34            2.5980    -4.5865     2.5507 C.ar    
  35 C35            3.6748    -7.0841    -2.9358 C.ar    
  36 C36            2.8683    -6.9409    -1.8205 C.ar    
  37 C37            2.3150    -5.7138    -1.5188 C.ar    
  38 H38           -0.1855     1.6100    -0.6686 H       
  39 H39           -0.3892    -0.8304    -0.4236 H       
  40 H40            3.6952    -1.0603     0.7799 H       
  41 H41            1.9559     2.7231    -0.1842 H       
  42 H42            2.4862    -3.0081     0.5946 H       
  43 H43           -2.0812    -3.5371    -0.3157 H       
  44 H44           -2.6196    -3.9338     1.9038 H       
  45 H45           -1.2438    -4.3905     2.9367 H       
  46 H46           -1.8051    -2.7018     2.8973 H       
  47 H47            3.5726    -3.9242    -4.1137 H       
  48 H48            4.5576    -6.1187    -4.6271 H       
  49 H49           -0.5577    -5.2466    -2.4318 H       
  50 H50           -1.6814    -3.8856    -2.6624 H       
  51 H51           -0.0056    -3.7655    -3.2500 H       
  52 H52            3.1820     3.3815     2.1591 H       
  53 H53            3.3495     5.8029     1.7498 H       
  54 H54            4.4949     6.6364    -0.2630 H       
  55 H55            5.4740     5.0516    -1.8717 H       
  56 H56            5.3167     2.6289    -1.4666 H       
  57 H57            1.8929    -2.7471     5.3143 H       
  58 H58            3.6333    -4.2152     6.2447 H       
  59 H59            4.7105    -5.9086     4.8219 H       
  60 H60            4.0538    -6.1451     2.4628 H       
  61 H61            2.3106    -4.6918     1.5150 H       
  62 H62            4.1087    -8.0460    -3.1655 H       
  63 H63            2.6748    -7.7908    -1.1828 H       
  64 H64            1.6860    -5.6032    -0.6478 H       
@<TRIPOS>BOND
   1    1    2 ar
   2    1    6 ar
   3    1   38 1
   4    2    3 ar
   5    2   39 1
   6    3    4 ar
   7    3    7 1
   8    4    5 ar
   9    4   40 1
  10    5    6 ar
  11    5   19 1
  12    6   41 1
  13    7    8 1
  14    7    9 1
  15    7   42 1
  16    8   27 1
  17    8   12 2
  18    9   10 2
  19    9   13 1
  20   10   11 1
  21   10   20 1
  22   11   12 1
  23   11   43 1
  24   12   14 1
  25   13   15 2
  26   13   16 1
  27   14   44 1
  28   14   45 1
  29   14   46 1
  30   16   17 ar
  31   16   37 ar
  32   17   18 ar
  33   17   47 1
  34   18   35 ar
  35   18   48 1
  36   19   21 1
  37   20   49 1
  38   20   50 1
  39   20   51 1
  40   21   22 ar
  41   21   26 ar
  42   22   23 ar
  43   22   52 1
  44   23   24 ar
  45   23   53 1
  46   24   25 ar
  47   24   54 1
  48   25   26 ar
  49   25   55 1
  50   26   56 1
  51   27   28 2
  52   27   29 1
  53   29   30 ar
  54   29   34 ar
  55   30   31 ar
  56   30   57 1
  57   31   32 ar
  58   31   58 1
  59   32   33 ar
  60   32   59 1
  61   33   34 ar
  62   33   60 1
  63   34   61 1
  64   35   36 ar
  65   35   62 1
  66   36   37 ar
  67   36   63 1
  68   37   64 1

#	End of record

