#	Name: ASD05503016
#	Creating user name:	WinNT
#	Creation time:	15. 06. 2019 21:01

#	Modifying user name:	WinNT
#	Modification time:	15. 06. 2019 21:01

#	Program:	/corina/corina34_cracker 3.40 0067  02.08.2006

@<TRIPOS>MOLECULE
ASD05503016
  42   43    0    0    0
SMALL
NO_CHARGES


@<TRIPOS>ATOM
   1 C1            -0.1502     1.3616     0.4404 C.ar    
   2 C2            -0.0924    -0.0174     0.2840 C.ar    
   3 C3             1.1379    -0.6541     0.2035 C.ar    
   4 C4             2.3068     0.0895     0.2795 C.ar    
   5 C5             2.2420     1.4688     0.4359 C.ar    
   6 C6             1.0157     2.0995     0.5158 C.ar    
   7 N7            -1.2735    -0.7638     0.2083 N.am    
   8 C8            -1.3332    -1.8522    -0.5843 C.2     
   9 C9            -2.5620    -2.7246    -0.5750 C.3     
  10 O10           -0.3980    -2.1295    -1.3051 O.2     
  11 C11           -2.3725    -3.8829    -1.5566 C.3     
  12 C12           -3.6200    -4.7686    -1.5471 C.3     
  13 N13            3.5487    -0.5484     0.1992 N.am    
  14 C14            4.5817     0.0626    -0.4141 C.2     
  15 C15            5.8638    -0.6516    -0.5902 C.ar    
  16 O16            4.4589     1.2010    -0.8225 O.2     
  17 C17            6.0080    -1.9587    -0.1225 C.ar    
  18 C18            7.2074    -2.6198    -0.2905 C.ar    
  19 C19            8.2655    -1.9899    -0.9209 C.ar    
  20 C20            8.1293    -0.6940    -1.3866 C.ar    
  21 C21            6.9339    -0.0237    -1.2302 C.ar    
  22 C22            9.2875    -0.0156    -2.0717 C.3     
  23 H23           -1.1075     1.8582     0.4986 H       
  24 H24            1.1855    -1.7262     0.0823 H       
  25 H25            3.1515     2.0482     0.4955 H       
  26 H26            0.9680     3.1716     0.6370 H       
  27 H27           -2.0494    -0.4978     0.7262 H       
  28 H28           -2.7189    -3.1206     0.4283 H       
  29 H29           -3.4288    -2.1345    -0.8723 H       
  30 H30           -2.2157    -3.4869    -2.5599 H       
  31 H31           -1.5057    -4.4730    -1.2592 H       
  32 H32           -3.4851    -5.5938    -2.2464 H       
  33 H33           -3.7769    -5.1646    -0.5438 H       
  34 H34           -4.4869    -4.1785    -1.8444 H       
  35 H35            3.6667    -1.4305     0.5850 H       
  36 H36            5.1828    -2.4514     0.3702 H       
  37 H37            7.3204    -3.6311     0.0713 H       
  38 H38            9.2022    -2.5119    -1.0499 H       
  39 H39            6.8288     0.9876    -1.5945 H       
  40 H40            9.2416    -0.2118    -3.1430 H       
  41 H41            9.2346     1.0589    -1.8966 H       
  42 H42           10.2242    -0.4033    -1.6712 H       
@<TRIPOS>BOND
   1    1    2 ar
   2    1    6 ar
   3    1   23 1
   4    2    3 ar
   5    2    7 1
   6    3    4 ar
   7    3   24 1
   8    4    5 ar
   9    4   13 1
  10    5    6 ar
  11    5   25 1
  12    6   26 1
  13    7    8 am
  14    7   27 1
  15    8    9 1
  16    8   10 2
  17    9   11 1
  18    9   28 1
  19    9   29 1
  20   11   12 1
  21   11   30 1
  22   11   31 1
  23   12   32 1
  24   12   33 1
  25   12   34 1
  26   13   14 am
  27   13   35 1
  28   14   15 1
  29   14   16 2
  30   15   17 ar
  31   15   21 ar
  32   17   18 ar
  33   17   36 1
  34   18   19 ar
  35   18   37 1
  36   19   20 ar
  37   19   38 1
  38   20   21 ar
  39   20   22 1
  40   21   39 1
  41   22   40 1
  42   22   41 1
  43   22   42 1

#	End of record

