#	Name: ASD01881698
#	Creating user name:	WinNT
#	Creation time:	15. 06. 2019 19:43

#	Modifying user name:	WinNT
#	Modification time:	15. 06. 2019 19:43

#	Program:	/corina/corina34_cracker 3.40 0067  02.08.2006

@<TRIPOS>MOLECULE
ASD01881698
  46   49    0    0    0
SMALL
NO_CHARGES


@<TRIPOS>ATOM
   1 C1             0.0229     1.3726     0.1196 C.ar    
   2 C2             0.0344    -0.0053     0.0952 C.ar    
   3 C3             1.2464    -0.6974     0.1347 C.ar    
   4 C4             2.4516     0.0096     0.1987 C.ar    
   5 C5             1.2278     2.0807     0.1837 C.ar    
   6 C6             1.5269     3.5236     0.2225 C.2     
   7 C7             2.4389     1.3812     0.2225 C.ar    
   8 C8             3.5295     2.4215     0.2871 C.3     
   9 N9             2.8544     3.7242     0.2826 N.am    
  10 C10            1.2558    -2.1749     0.1093 C.2     
  11 Cl11          -1.4859     2.2294     0.0637 Cl      
  12 O12            0.6915     4.4067     0.2030 O.2     
  13 C13            3.5183     5.0291     0.3348 C.3     
  14 C14            3.1598     5.8342    -0.9158 C.3     
  15 C15            3.0548     5.7877     1.5800 C.3     
  16 C16            3.6384     7.1822     1.8158 C.3     
  17 C17            2.1835     7.0274     1.3684 C.3     
  18 C18            0.1674    -3.0005     0.0487 C.2     
  19 C19            0.7302    -4.3037     0.0494 C.2     
  20 N20            2.0297    -4.1434     0.1071 N.2     
  21 O21            2.3367    -2.9747     0.1354 O.3     
  22 C22           -0.0058    -5.5905    -0.0042 C.2     
  23 N23            0.6704    -6.7485    -0.1387 N.am    
  24 O24           -1.2183    -5.6005     0.0733 O.2     
  25 C25           -0.0404    -8.0265    -0.0499 C.3     
  26 C26            2.1163    -6.7294    -0.3738 C.3     
  27 H27           -0.8962    -0.5510     0.0458 H       
  28 H28            3.3904    -0.5233     0.2297 H       
  29 H29            4.1067     2.3028     1.2041 H       
  30 H30            4.1826     2.3340    -0.5812 H       
  31 H31            4.5981     4.8859     0.3776 H       
  32 H32            2.0801     5.9773    -0.9586 H       
  33 H33            3.6538     6.8050    -0.8770 H       
  34 H34            3.4900     5.2937    -1.8029 H       
  35 H35            2.8510     5.1726     2.4565 H       
  36 H36            3.8183     7.4846     2.8474 H       
  37 H37            4.3527     7.5591     1.0838 H       
  38 H38            1.9406     7.3026     0.3420 H       
  39 H39            1.4062     7.2282     2.1056 H       
  40 H40           -0.8763    -2.7255     0.0097 H       
  41 H41           -0.3819    -8.3220    -1.0420 H       
  42 H42            0.6308    -8.7889     0.3454 H       
  43 H43           -0.8991    -7.9193     0.6129 H       
  44 H44            2.4478    -5.7007    -0.5151 H       
  45 H45            2.6298    -7.1619     0.4849 H       
  46 H46            2.3471    -7.3114    -1.2661 H       
@<TRIPOS>BOND
   1    1    2 ar
   2    1    5 ar
   3    1   11 1
   4    2    3 ar
   5    2   27 1
   6    3    4 ar
   7    3   10 1
   8    4    7 ar
   9    4   28 1
  10    5    7 ar
  11    5    6 1
  12    6    9 am
  13    6   12 2
  14    7    8 1
  15    8    9 1
  16    8   29 1
  17    8   30 1
  18    9   13 1
  19   10   18 2
  20   10   21 1
  21   13   14 1
  22   13   15 1
  23   13   31 1
  24   14   32 1
  25   14   33 1
  26   14   34 1
  27   15   16 1
  28   15   17 1
  29   15   35 1
  30   16   17 1
  31   16   36 1
  32   16   37 1
  33   17   38 1
  34   17   39 1
  35   18   19 1
  36   18   40 1
  37   19   20 2
  38   19   22 1
  39   20   21 1
  40   22   23 am
  41   22   24 2
  42   23   25 1
  43   23   26 1
  44   25   41 1
  45   25   42 1
  46   25   43 1
  47   26   44 1
  48   26   45 1
  49   26   46 1

#	End of record

