#	Name: ASD03240025
#	Creating user name:	WinNT
#	Creation time:	15. 06. 2019 20:34

#	Modifying user name:	WinNT
#	Modification time:	15. 06. 2019 20:34

#	Program:	/corina/corina34_cracker 3.40 0067  02.08.2006

@<TRIPOS>MOLECULE
ASD03240025
  87   94    0    0    0
SMALL
NO_CHARGES


@<TRIPOS>ATOM
   1 C1            -0.0005     1.3855     0.0518 C.ar    
   2 C2             0.0047    -0.0282     0.1636 C.ar    
   3 N3             1.1506     2.0668     0.0564 N.ar    
   4 C4             2.2985     1.4230     0.1655 C.ar    
   5 C5             2.3035    -0.0347     0.2807 C.ar    
   6 N6             1.1602    -0.6942     0.2751 N.ar    
   7 C7             3.5851    -0.7675     0.4035 C.ar    
   8 C8             3.5750     2.1740     0.1705 C.ar    
   9 C9             3.7148     3.3226    -0.6084 C.ar    
  10 C10            4.9064     4.0182    -0.5991 C.ar    
  11 C11            5.9613     3.5785     0.1807 C.ar    
  12 C12            5.8288     2.4399     0.9554 C.ar    
  13 C13            4.6404     1.7387     0.9586 C.ar    
  14 C14            3.6628    -1.9146     1.1928 C.ar    
  15 C15            4.8594    -2.5928     1.3033 C.ar    
  16 C16            5.9805    -2.1370     0.6332 C.ar    
  17 C17            5.9097    -0.9997    -0.1513 C.ar    
  18 C18            4.7173    -0.3162    -0.2742 C.ar    
  19 C19            7.2844    -2.8821     0.7585 C.3     
  20 N20            7.3693    -3.9013    -0.2960 N.3     
  21 C21            8.7153    -4.4853    -0.3563 C.3     
  22 C22            8.8084    -5.4330    -1.5544 C.3     
  23 C23            7.7586    -6.5378    -1.4077 C.3     
  24 C24            6.3705    -5.9008    -1.2984 C.3     
  25 C25            6.3480    -4.9396    -0.1078 C.3     
  26 N26            7.8038    -7.4149    -2.5804 N.am    
  27 C27            8.0708    -8.7818    -2.5661 C.ar    
  28 C28            8.0141    -9.2180    -3.8913 C.ar    
  29 N29            7.7144    -8.1025    -4.6697 N.am    
  30 C30            7.5886    -7.0380    -3.8549 C.2     
  31 C31            8.3540    -9.6856    -1.5532 C.ar    
  32 C32            8.5788   -11.0133    -1.8597 C.ar    
  33 C33            8.5226   -11.4457    -3.1736 C.ar    
  34 C34            8.2412   -10.5530    -4.1891 C.ar    
  35 O35            7.3284    -5.9056    -4.2164 O.2     
  36 C36           -1.2156    -0.7249     0.1566 C.ar    
  37 C37           -2.4035    -0.0230     0.0410 C.ar    
  38 C38           -2.3950     1.3787    -0.0692 C.ar    
  39 C39           -1.2268     2.0693    -0.0585 C.ar    
  40 C40           -3.6892    -0.7523     0.0328 C.2     
  41 O41           -4.6456    -0.3048     0.6349 O.2     
  42 N42           -3.8010    -1.9135    -0.6422 N.am    
  43 C43           -5.0285    -2.7195    -0.5595 C.3     
  44 C44           -5.4942    -3.0446    -1.9828 C.3     
  45 N45           -4.3906    -3.6679    -2.7254 N.3     
  46 C46           -3.2563    -2.7455    -2.8681 C.3     
  47 C47           -2.7012    -2.4051    -1.4859 C.3     
  48 C48           -4.8447    -4.1508    -4.0363 C.3     
  49 H49            2.8922     3.6666    -1.2178 H       
  50 H50            5.0160     4.9075    -1.2020 H       
  51 H51            6.8921     4.1261     0.1844 H       
  52 H52            6.6559     2.1014     1.5618 H       
  53 H53            4.5381     0.8501     1.5638 H       
  54 H54            2.7883    -2.2712     1.7168 H       
  55 H55            4.9209    -3.4811     1.9146 H       
  56 H56            6.7882    -0.6487    -0.6721 H       
  57 H57            4.6632     0.5716    -0.8869 H       
  58 H58            8.1140    -2.1827     0.6554 H       
  59 H59            7.3349    -3.3643     1.7348 H       
  60 H60            9.4520    -3.6893    -0.4648 H       
  61 H61            8.9122    -5.0396     0.5614 H       
  62 H62            8.6253    -4.8766    -2.4736 H       
  63 H63            9.8028    -5.8781    -1.5898 H       
  64 H64            7.9645    -7.1190    -0.5089 H       
  65 H65            6.1489    -5.3518    -2.2136 H       
  66 H66            5.6229    -6.6803    -1.1510 H       
  67 H67            6.5560    -5.4917     0.8087 H       
  68 H68            5.3653    -4.4736    -0.0358 H       
  69 H69            7.6103    -8.0946    -5.6340 H       
  70 H70            8.3990    -9.3518    -0.5271 H       
  71 H71            8.7997   -11.7172    -1.0709 H       
  72 H72            8.6995   -12.4856    -3.4055 H       
  73 H73            8.1979   -10.8941    -5.2130 H       
  74 H74           -1.2268    -1.8015     0.2407 H       
  75 H75           -3.3296     1.9124    -0.1592 H       
  76 H76           -1.2371     3.1459    -0.1438 H       
  77 H77           -4.8233    -3.6448    -0.0211 H       
  78 H78           -5.8031    -2.1548    -0.0408 H       
  79 H79           -6.3387    -3.7324    -1.9410 H       
  80 H80           -5.7974    -2.1259    -2.4850 H       
  81 H81           -2.4778    -3.2164    -3.4683 H       
  82 H82           -3.5906    -1.8309    -3.3580 H       
  83 H83           -1.9358    -1.6345    -1.5783 H       
  84 H84           -2.2720    -3.2991    -1.0334 H       
  85 H85           -5.2288    -3.3134    -4.6188 H       
  86 H86           -4.0080    -4.6076    -4.5650 H       
  87 H87           -5.6340    -4.8895    -3.8979 H       
@<TRIPOS>BOND
   1    1    2 ar
   2    1    3 ar
   3    1   39 ar
   4    2   36 ar
   5    2    6 ar
   6    3    4 ar
   7    4    5 ar
   8    4    8 1
   9    5    6 ar
  10    5    7 1
  11    7   14 ar
  12    7   18 ar
  13    8    9 ar
  14    8   13 ar
  15    9   10 ar
  16    9   49 1
  17   10   11 ar
  18   10   50 1
  19   11   12 ar
  20   11   51 1
  21   12   13 ar
  22   12   52 1
  23   13   53 1
  24   14   15 ar
  25   14   54 1
  26   15   16 ar
  27   15   55 1
  28   16   17 ar
  29   16   19 1
  30   17   18 ar
  31   17   56 1
  32   18   57 1
  33   19   20 1
  34   19   58 1
  35   19   59 1
  36   20   21 1
  37   20   25 1
  38   21   22 1
  39   21   60 1
  40   21   61 1
  41   22   23 1
  42   22   62 1
  43   22   63 1
  44   23   24 1
  45   23   26 1
  46   23   64 1
  47   24   25 1
  48   24   65 1
  49   24   66 1
  50   25   67 1
  51   25   68 1
  52   26   27 1
  53   26   30 am
  54   27   28 ar
  55   27   31 ar
  56   28   29 1
  57   28   34 ar
  58   29   30 am
  59   29   69 1
  60   30   35 2
  61   31   32 ar
  62   31   70 1
  63   32   33 ar
  64   32   71 1
  65   33   34 ar
  66   33   72 1
  67   34   73 1
  68   36   37 ar
  69   36   74 1
  70   37   38 ar
  71   37   40 1
  72   38   39 ar
  73   38   75 1
  74   39   76 1
  75   40   41 2
  76   40   42 am
  77   42   43 1
  78   42   47 1
  79   43   44 1
  80   43   77 1
  81   43   78 1
  82   44   45 1
  83   44   79 1
  84   44   80 1
  85   45   46 1
  86   45   48 1
  87   46   47 1
  88   46   81 1
  89   46   82 1
  90   47   83 1
  91   47   84 1
  92   48   85 1
  93   48   86 1
  94   48   87 1

#	End of record

