#	Name: ASD01917721
#	Creating user name:	WinNT
#	Creation time:	15. 06. 2019 20:09

#	Modifying user name:	WinNT
#	Modification time:	15. 06. 2019 20:09

#	Program:	/corina/corina34_cracker 3.40 0067  02.08.2006

@<TRIPOS>MOLECULE
ASD01917721
  43   46    0    0    0
SMALL
NO_CHARGES


@<TRIPOS>ATOM
   1 C1            -0.0139     1.4936     0.0247 C.3     
   2 C2             0.0205    -0.0168     0.0084 C.2     
   3 C3             2.4651    -0.1848    -0.4926 C.3     
   4 C4             2.3200     1.2814    -0.9140 C.3     
   5 N5             1.3859     1.9573    -0.0009 N.am    
   6 C6            -1.0011    -0.8652     0.2171 C.2     
   7 C7            -0.5000    -2.1781     0.0958 C.2     
   8 N8             0.7874    -2.0985    -0.1757 N.2     
   9 N9             1.1365    -0.7462    -0.2307 N.pl3   
  10 C10            1.7964     2.9700     0.7881 C.2     
  11 O11            2.9744     3.2667     0.8325 O.2     
  12 C12            0.8140     3.7200     1.5996 C.ar    
  13 C13            1.1700     4.2039     2.8589 C.ar    
  14 C14           -0.4709     3.9513     1.1063 C.ar    
  15 C15           -1.3853     4.6516     1.8665 C.ar    
  16 C16           -1.0329     5.1260     3.1162 C.ar    
  17 C17            0.2447     4.9053     3.6132 C.ar    
  18 C18           -1.2837    -3.4285     0.2475 C.ar    
  19 C19           -0.6519    -4.6617     0.0994 C.ar    
  20 C20           -1.3947    -5.8198     0.2436 C.ar    
  21 C21           -2.7497    -5.7070     0.5321 C.ar    
  22 C22           -3.3119    -4.4486     0.6657 C.ar    
  23 N23           -2.5784    -3.3627     0.5283 N.ar    
  24 F24           -3.5105    -6.8135     0.6801 F       
  25 O25            0.5872     5.3780     4.8405 O.3     
  26 C26           -0.4168     6.0928     5.5638 C.3     
  27 H27           -0.5441     1.8629    -0.8531 H       
  28 H28           -0.5054     1.8445     0.9321 H       
  29 H29            2.9468    -0.7474    -1.2923 H       
  30 H30            3.0706    -0.2454     0.4117 H       
  31 H31            3.2926     1.7713    -0.8682 H       
  32 H32            1.9340     1.3311    -1.9321 H       
  33 H33           -2.0221    -0.5909     0.4380 H       
  34 H34            2.1641     4.0316     3.2443 H       
  35 H35           -0.7493     3.5827     0.1301 H       
  36 H36           -2.3793     4.8300     1.4836 H       
  37 H37           -1.7526     5.6737     3.7065 H       
  38 H38            0.4033    -4.7126    -0.1252 H       
  39 H39           -0.9323    -6.7897     0.1340 H       
  40 H40           -4.3644    -4.3561     0.8895 H       
  41 H41           -1.2767     5.4438     5.7294 H       
  42 H42           -0.0136     6.4138     6.5242 H       
  43 H43           -0.7259     6.9661     4.9894 H       
@<TRIPOS>BOND
   1    1    2 1
   2    1    5 1
   3    1   27 1
   4    1   28 1
   5    2    6 2
   6    2    9 1
   7    3    4 1
   8    3    9 1
   9    3   29 1
  10    3   30 1
  11    4    5 1
  12    4   31 1
  13    4   32 1
  14    5   10 am
  15    6    7 1
  16    6   33 1
  17    7    8 2
  18    7   18 1
  19    8    9 1
  20   10   11 2
  21   10   12 1
  22   12   14 ar
  23   12   13 ar
  24   13   17 ar
  25   13   34 1
  26   14   15 ar
  27   14   35 1
  28   15   16 ar
  29   15   36 1
  30   16   17 ar
  31   16   37 1
  32   17   25 1
  33   18   19 ar
  34   18   23 ar
  35   19   20 ar
  36   19   38 1
  37   20   21 ar
  38   20   39 1
  39   21   22 ar
  40   21   24 1
  41   22   23 ar
  42   22   40 1
  43   25   26 1
  44   26   41 1
  45   26   42 1
  46   26   43 1

#	End of record

