#	Name: ASD07301086
#	Creating user name:	WinNT
#	Creation time:	15. 06. 2019 21:10

#	Modifying user name:	WinNT
#	Modification time:	15. 06. 2019 21:10

#	Program:	/corina/corina34_cracker 3.40 0067  02.08.2006

@<TRIPOS>MOLECULE
ASD07301086
  30   31    0    0    0
SMALL
NO_CHARGES


@<TRIPOS>ATOM
   1 C1            -0.0179     1.4667     0.0101 C.2     
   2 C2             0.0021    -0.0041     0.0020 C.2     
   3 C3             1.2776    -0.6366    -0.0136 C.2     
   4 C4             2.3787     0.1588    -0.0198 C.2     
   5 N5             2.2594     1.5103    -0.0114 N.pl3   
   6 N6             1.1310     2.1179     0.0026 N.2     
   7 O7            -1.0312    -0.6548     0.0088 O.2     
   8 O8             1.3897    -1.9914    -0.0215 O.3     
   9 C9             2.7121    -2.5328    -0.0370 C.3     
  10 C10            3.4275     2.2797    -0.0184 C.ar    
  11 C11            3.6396     3.2350     0.9712 C.ar    
  12 C12            4.7961     3.9931     0.9606 C.ar    
  13 C13            5.7402     3.8024    -0.0316 C.ar    
  14 C14            5.5318     2.8535    -1.0164 C.ar    
  15 C15            4.3811     2.0884    -1.0095 C.ar    
  16 I16            6.9669     2.5703    -2.5162 I       
  17 F17            2.7170     3.4217     1.9403 F       
  18 C18           -1.2917     2.1974     0.0202 C.2     
  19 O19           -2.3405     1.5880     0.0218 O.2     
  20 C20           -1.2959     3.7043     0.0284 C.3     
  21 H21            3.3609    -0.2900    -0.0312 H       
  22 H22            3.2343    -2.1905    -0.9304 H       
  23 H23            3.2516    -2.1995     0.8494 H       
  24 H24            2.6589    -3.6215    -0.0420 H       
  25 H25            4.9620     4.7351     1.7277 H       
  26 H26            6.6425     4.3959    -0.0378 H       
  27 H27            4.2216     1.3451    -1.7767 H       
  28 H28           -0.2693     4.0706     0.0255 H       
  29 H29           -1.8150     4.0711    -0.8572 H       
  30 H30           -1.8065     4.0614     0.9227 H       
@<TRIPOS>BOND
   1    1    2 1
   2    1    6 2
   3    1   18 1
   4    2    3 1
   5    2    7 2
   6    3    4 2
   7    3    8 1
   8    4    5 1
   9    4   21 1
  10    5    6 1
  11    5   10 1
  12    8    9 1
  13    9   22 1
  14    9   23 1
  15    9   24 1
  16   10   11 ar
  17   10   15 ar
  18   11   12 ar
  19   11   17 1
  20   12   13 ar
  21   12   25 1
  22   13   14 ar
  23   13   26 1
  24   14   15 ar
  25   14   16 1
  26   15   27 1
  27   18   19 2
  28   18   20 1
  29   20   28 1
  30   20   29 1
  31   20   30 1

#	End of record

