#	Name: ASD01885473
#	Creating user name:	WinNT
#	Creation time:	15. 06. 2019 19:49

#	Modifying user name:	WinNT
#	Modification time:	15. 06. 2019 19:49

#	Program:	/corina/corina34_cracker 3.40 0067  02.08.2006

@<TRIPOS>MOLECULE
ASD01885473
  63   67    0    0    0
SMALL
NO_CHARGES


@<TRIPOS>ATOM
   1 C1            -0.3201     1.6231    -0.1364 C.ar    
   2 C2            -0.3648     0.3783    -0.7645 C.ar    
   3 N3            -1.5102    -0.3146    -0.9881 N.2     
   4 C4            -2.6264     0.1715    -1.3929 C.2     
   5 C5            -2.8044     1.6462    -1.6426 C.3     
   6 C6            -2.6077     2.3713    -0.3353 C.2     
   7 N7            -1.4464     2.2991     0.3140 N.am    
   8 C8             0.9112     2.2481     0.0572 C.ar    
   9 C9             2.0836     1.6488    -0.3715 C.ar    
  10 C10            2.0394     0.4096    -1.0030 C.ar    
  11 C11            0.8332    -0.2182    -1.1974 C.ar    
  12 C12           -3.7636    -0.7364    -1.6200 C.ar    
  13 O13           -3.5156     3.0280     0.1291 O.2     
  14 C14           -3.5804    -2.1210    -1.5510 C.ar    
  15 C15           -4.6465    -2.9712    -1.7634 C.ar    
  16 C16           -5.8992    -2.4614    -2.0449 C.ar    
  17 C17           -6.0959    -1.0822    -2.1167 C.ar    
  18 C18           -5.0294    -0.2174    -1.8991 C.ar    
  19 N19            3.3099     2.2880    -0.1705 N.pl3   
  20 C20            4.4516     1.5481    -0.0273 C.2     
  21 N21            5.6298     2.0997    -0.2590 N.2     
  22 N22            4.3735     0.2371     0.3558 N.pl3   
  23 C23            5.5420    -0.4867     0.6143 C.ar    
  24 C24            5.7151     3.4226    -0.5393 C.1     
  25 N25            5.7867     4.5318    -0.7743 N.1     
  26 C26           -7.4430    -0.5388    -2.4199 C.ar    
  27 C27            6.6445     0.1477     1.1722 C.ar    
  28 C28            7.7967    -0.5700     1.4267 C.ar    
  29 C29            7.8534    -1.9187     1.1268 C.ar    
  30 C30            6.7575    -2.5533     0.5713 C.ar    
  31 C31            5.6005    -1.8426     0.3192 C.ar    
  32 C32           -8.5288    -1.3916    -2.6369 C.ar    
  33 C33           -9.7644    -0.8444    -2.9161 C.ar    
  34 N34           -9.9272     0.4632    -2.9790 N.ar    
  35 C35           -8.9288     1.3025    -2.7807 C.ar    
  36 C36           -7.6617     0.8397    -2.4905 C.ar    
  37 C37           -9.1770     2.7865    -2.8659 C.3     
  38 C38          -10.9434    -1.7526    -3.1526 C.3     
  39 H39           -2.0660     1.9883    -2.3677 H       
  40 H40           -3.8086     1.8366    -2.0214 H       
  41 H41           -1.3829     2.7517     1.1695 H       
  42 H42            0.9508     3.2101     0.5465 H       
  43 H43            2.9526    -0.0581    -1.3402 H       
  44 H44            0.8043    -1.1800    -1.6879 H       
  45 H45           -2.6033    -2.5255    -1.3316 H       
  46 H46           -4.5008    -4.0400    -1.7095 H       
  47 H47           -6.7288    -3.1328    -2.2104 H       
  48 H48           -5.1776     0.8510    -1.9534 H       
  49 H49            3.3515     3.2564    -0.1325 H       
  50 H50            3.5078    -0.1905     0.4480 H       
  51 H51            6.6009     1.2011     1.4063 H       
  52 H52            8.6544    -0.0772     1.8602 H       
  53 H53            8.7557    -2.4776     1.3265 H       
  54 H54            6.8050    -3.6068     0.3382 H       
  55 H55            4.7449    -2.3388    -0.1147 H       
  56 H56           -8.4026    -2.4630    -2.5872 H       
  57 H57           -6.8490     1.5325    -2.3292 H       
  58 H58           -9.4542     3.1655    -1.8822 H       
  59 H59           -8.2707     3.2874    -3.2061 H       
  60 H60           -9.9855     2.9798    -3.5709 H       
  61 H61          -11.4453    -1.9507    -2.2055 H       
  62 H62          -11.6402    -1.2721    -3.8395 H       
  63 H63          -10.5976    -2.6920    -3.5840 H       
@<TRIPOS>BOND
   1    1    2 ar
   2    1    8 ar
   3    1    7 1
   4    2    3 1
   5    2   11 ar
   6    3    4 2
   7    4    5 1
   8    4   12 1
   9    5    6 1
  10    5   39 1
  11    5   40 1
  12    6    7 am
  13    6   13 2
  14    7   41 1
  15    8    9 ar
  16    8   42 1
  17    9   10 ar
  18    9   19 1
  19   10   11 ar
  20   10   43 1
  21   11   44 1
  22   12   14 ar
  23   12   18 ar
  24   14   15 ar
  25   14   45 1
  26   15   16 ar
  27   15   46 1
  28   16   17 ar
  29   16   47 1
  30   17   18 ar
  31   17   26 1
  32   18   48 1
  33   19   20 1
  34   19   49 1
  35   20   21 2
  36   20   22 1
  37   21   24 1
  38   22   23 1
  39   22   50 1
  40   23   27 ar
  41   23   31 ar
  42   24   25 3
  43   26   32 ar
  44   26   36 ar
  45   27   28 ar
  46   27   51 1
  47   28   29 ar
  48   28   52 1
  49   29   30 ar
  50   29   53 1
  51   30   31 ar
  52   30   54 1
  53   31   55 1
  54   32   33 ar
  55   32   56 1
  56   33   34 ar
  57   33   38 1
  58   34   35 ar
  59   35   36 ar
  60   35   37 1
  61   36   57 1
  62   37   58 1
  63   37   59 1
  64   37   60 1
  65   38   61 1
  66   38   62 1
  67   38   63 1

#	End of record

