#	Name: ASD04660028
#	Creating user name:	WinNT
#	Creation time:	15. 06. 2019 20:52

#	Modifying user name:	WinNT
#	Modification time:	15. 06. 2019 20:52

#	Program:	/corina/corina34_cracker 3.40 0067  02.08.2006

@<TRIPOS>MOLECULE
ASD04660028
  43   46    0    0    0
SMALL
NO_CHARGES


@<TRIPOS>ATOM
   1 N1             0.0006     1.8614     0.0974 N.am    
   2 C2            -0.1058     0.5202     0.2914 C.2     
   3 C3             1.2503    -0.0380     0.3526 C.ar    
   4 C4             2.0888     1.0736     0.1812 C.ar    
   5 C5             3.4827     1.0127     0.1708 C.ar    
   6 C6             4.1731     2.2222    -0.0122 C.ar    
   7 C7             3.4467     3.3718    -0.1669 C.ar    
   8 C8             2.0528     3.4034    -0.1519 C.ar    
   9 C9             1.3370     2.2338     0.0254 C.ar    
  10 C10            4.0718    -0.2514     0.3445 C.ar    
  11 C11            3.2616    -1.3424     0.5128 C.ar    
  12 C12            1.8693    -1.2642     0.5205 C.ar    
  13 S13            5.9344     2.2588    -0.0412 S.o2    
  14 O14            6.3423     1.2335    -0.9365 O.2     
  15 O15            6.3050     3.6214    -0.1994 O.2     
  16 N16            6.4590     1.8030     1.4619 N.am    
  17 C17            6.1360     2.6248     2.6309 C.3     
  18 C18            6.8329     3.9814     2.5089 C.3     
  19 O19            4.9946     2.7825     2.6865 O.2     
  20 C20            6.6083     1.9280     3.8809 C.ar    
  21 C21            5.9379     2.1199     5.0744 C.ar    
  22 C22            6.3712     1.4808     6.2210 C.ar    
  23 C23            7.4746     0.6494     6.1739 C.ar    
  24 C24            8.1445     0.4568     4.9802 C.ar    
  25 C25            7.7086     1.0925     3.8327 C.ar    
  26 N26            7.9392    -0.0342     7.4019 N.pl3   
  27 O27            7.3492     0.1359     8.4538 O.2     
  28 O28            8.9114    -0.7667     7.3604 O.2     
  29 O29           -1.1430    -0.1074     0.3958 O.2     
  30 H30           -0.7496     2.4709     0.0166 H       
  31 H31            3.9796     4.3006    -0.3073 H       
  32 H32            1.5324     4.3412    -0.2782 H       
  33 H33            5.1462    -0.3607     0.3449 H       
  34 H34            3.7229    -2.3098     0.6458 H       
  35 H35            1.2767    -2.1566     0.6576 H       
  36 H36            6.9802     0.9918     1.5684 H       
  37 H37            6.4005     4.5386     1.6778 H       
  38 H38            6.6977     4.5437     3.4328 H       
  39 H39            7.8970     3.8283     2.3291 H       
  40 H40            5.0759     2.7694     5.1112 H       
  41 H41            5.8479     1.6313     7.1537 H       
  42 H42            9.0067    -0.1924     4.9434 H       
  43 H43            8.2297     0.9392     2.8992 H       
@<TRIPOS>BOND
   1    1    2 am
   2    1    9 1
   3    1   30 1
   4    2    3 1
   5    2   29 2
   6    3    4 ar
   7    3   12 ar
   8    4    5 ar
   9    4    9 ar
  10    5    6 ar
  11    5   10 ar
  12    6    7 ar
  13    6   13 1
  14    7    8 ar
  15    7   31 1
  16    8    9 ar
  17    8   32 1
  18   10   11 ar
  19   10   33 1
  20   11   12 ar
  21   11   34 1
  22   12   35 1
  23   13   14 2
  24   13   15 2
  25   13   16 am
  26   16   17 1
  27   16   36 1
  28   17   18 1
  29   17   19 2
  30   17   20 1
  31   18   37 1
  32   18   38 1
  33   18   39 1
  34   20   21 ar
  35   20   25 ar
  36   21   22 ar
  37   21   40 1
  38   22   23 ar
  39   22   41 1
  40   23   24 ar
  41   23   26 1
  42   24   25 ar
  43   24   42 1
  44   25   43 1
  45   26   27 2
  46   26   28 2

#	End of record

