#	Name: ASD01912241
#	Creating user name:	WinNT
#	Creation time:	15. 06. 2019 19:59

#	Modifying user name:	WinNT
#	Modification time:	15. 06. 2019 19:59

#	Program:	/corina/corina34_cracker 3.40 0067  02.08.2006

@<TRIPOS>MOLECULE
ASD01912241
  43   45    0    0    0
SMALL
NO_CHARGES


@<TRIPOS>ATOM
   1 C1             2.3743     4.3017     0.0815 C.1     
   2 C2             1.1538     3.5535     0.0482 C.ar    
   3 C3             1.1863     2.1506     0.0023 C.ar    
   4 C4            -0.0040     1.4365    -0.0292 C.ar    
   5 C5            -1.2121     2.1047    -0.0154 C.ar    
   6 C6            -1.2478     3.4887     0.0294 C.ar    
   7 C7            -0.0766     4.2146     0.0669 C.ar    
   8 N8             3.3426     4.8952     0.1079 N.1     
   9 N9             2.4041     1.4799    -0.0120 N.3     
  10 C10            3.1331     1.7394    -1.2598 C.3     
  11 C11            4.5593     1.1903    -1.1399 C.3     
  12 C12            4.4740    -0.2664    -0.7350 C.2     
  13 C13            3.5792    -0.6229     0.4335 C.3     
  14 C14            2.2152     0.0414     0.2136 C.3     
  15 C15            5.1629    -1.2032    -1.3854 C.2     
  16 C16            5.0645    -2.5737    -0.9823 C.1     
  17 C17            4.9839    -3.6974    -0.6518 C.1     
  18 C18            4.8855    -5.0679    -0.2486 C.ar    
  19 C19            5.6104    -6.0469    -0.9345 C.ar    
  20 C20            5.5042    -7.3656    -0.5324 C.ar    
  21 C21            4.6776    -7.6673     0.5421 C.ar    
  22 C22            3.9884    -6.6498     1.1763 C.ar    
  23 N23            4.1094    -5.3999     0.7791 N.ar    
  24 C24            3.0909    -6.9751     2.3424 C.3     
  25 H25            0.0151     0.3573    -0.0649 H       
  26 H26           -2.1353     1.5447    -0.0400 H       
  27 H27           -2.1982     4.0016     0.0391 H       
  28 H28           -0.1101     5.2934     0.1067 H       
  29 H29            2.6227     1.2477    -2.0880 H       
  30 H30            3.1711     2.8133    -1.4421 H       
  31 H31            5.0681     1.2758    -2.1001 H       
  32 H32            5.1066     1.7510    -0.3822 H       
  33 H33            3.4569    -1.7047     0.4863 H       
  34 H34            4.0213    -0.2567     1.3601 H       
  35 H35            1.5911    -0.1096     1.0944 H       
  36 H36            1.7307    -0.4024    -0.6561 H       
  37 H37            5.7955    -0.9289    -2.2167 H       
  38 H38            6.2440    -5.7772    -1.7665 H       
  39 H39            6.0518    -8.1440    -1.0429 H       
  40 H40            4.5737    -8.6880     0.8793 H       
  41 H41            3.6639    -6.9205     3.2681 H       
  42 H42            2.2704    -6.2586     2.3803 H       
  43 H43            2.6895    -7.9813     2.2223 H       
@<TRIPOS>BOND
   1    1    2 1
   2    1    8 3
   3    2    3 ar
   4    2    7 ar
   5    3    4 ar
   6    3    9 1
   7    4    5 ar
   8    4   25 1
   9    5    6 ar
  10    5   26 1
  11    6    7 ar
  12    6   27 1
  13    7   28 1
  14    9   10 1
  15    9   14 1
  16   10   11 1
  17   10   29 1
  18   10   30 1
  19   11   12 1
  20   11   31 1
  21   11   32 1
  22   12   13 1
  23   12   15 2
  24   13   14 1
  25   13   33 1
  26   13   34 1
  27   14   35 1
  28   14   36 1
  29   15   16 1
  30   15   37 1
  31   16   17 3
  32   17   18 1
  33   18   19 ar
  34   18   23 ar
  35   19   20 ar
  36   19   38 1
  37   20   21 ar
  38   20   39 1
  39   21   22 ar
  40   21   40 1
  41   22   23 ar
  42   22   24 1
  43   24   41 1
  44   24   42 1
  45   24   43 1

#	End of record

