#	Name: ASD01912230
#	Creating user name:	WinNT
#	Creation time:	15. 06. 2019 19:59

#	Modifying user name:	WinNT
#	Modification time:	15. 06. 2019 19:59

#	Program:	/corina/corina34_cracker 3.40 0067  02.08.2006

@<TRIPOS>MOLECULE
ASD01912230
  49   50    0    0    0
SMALL
NO_CHARGES


@<TRIPOS>ATOM
   1 N1            -0.0178     1.4650     0.0101 N.am    
   2 C2             0.0021    -0.0041     0.0020 C.3     
   3 C3             0.8803    -0.4916     1.1586 C.3     
   4 C4             2.2627     0.1563     1.0525 C.3     
   5 C5             2.1248     1.6768     1.1584 C.3     
   6 C6             1.2607     2.1889     0.0018 C.3     
   7 C7            -1.1868     2.1359     0.0193 C.2     
   8 O8            -2.2375     1.5256     0.0210 O.2     
   9 O9            -1.1902     3.4822     0.0266 O.3     
  10 C10            3.1537    -0.3549     2.1863 C.3     
  11 C11            4.5167     0.1741     2.0159 C.1     
  12 C12            5.6038     0.5960     1.8799 C.1     
  13 C13            6.9298     1.1106     1.7141 C.ar    
  14 C14            7.9226     0.7762     2.6358 C.ar    
  15 C15            9.1987     1.2814     2.4618 C.ar    
  16 C16            9.4426     2.1054     1.3715 C.ar    
  17 C17            8.4122     2.3962     0.4966 C.ar    
  18 N18            7.2066     1.8982     0.6813 N.ar    
  19 C19            8.6732     3.2908    -0.6877 C.3     
  20 C20           -2.4856     4.1381     0.0364 C.3     
  21 C21           -3.2605     3.7182     1.2870 C.3     
  22 C22           -2.2890     5.6554     0.0437 C.3     
  23 C23           -3.2723     3.7317    -1.2114 C.3     
  24 H24           -1.0118    -0.3840     0.1278 H       
  25 H25            0.4128    -0.3587    -0.9433 H       
  26 H26            0.4202    -0.2139     2.1069 H       
  27 H27            0.9816    -1.5757     1.1066 H       
  28 H28            2.7120    -0.1016     0.0934 H       
  29 H29            1.6530     1.9341     2.1067 H       
  30 H30            3.1119     2.1361     1.1062 H       
  31 H31            1.7740     2.0131    -0.9436 H       
  32 H32            1.0772     3.2560     0.1274 H       
  33 H33            2.7515    -0.0214     3.1430 H       
  34 H34            3.1813    -1.4443     2.1637 H       
  35 H35            7.6980     0.1324     3.4734 H       
  36 H36            9.9877     1.0404     3.1589 H       
  37 H37           10.4281     2.5158     1.2084 H       
  38 H38            8.9846     2.6852    -1.5388 H       
  39 H39            7.7623     3.8329    -0.9414 H       
  40 H40            9.4617     4.0013    -0.4396 H       
  41 H41           -2.7000     4.0076     2.1759 H       
  42 H42           -4.2329     4.2105     1.2943 H       
  43 H43           -3.4005     2.6372     1.2818 H       
  44 H44           -1.7370     5.9545    -0.8473 H       
  45 H45           -3.2615     6.1477     0.0510 H       
  46 H46           -1.7285     5.9448     0.9326 H       
  47 H47           -3.4124     2.6508    -1.2166 H       
  48 H48           -4.2448     4.2241    -1.2041 H       
  49 H49           -2.7203     4.0309    -2.1024 H       
@<TRIPOS>BOND
   1    1    2 1
   2    1    6 1
   3    1    7 am
   4    2    3 1
   5    2   24 1
   6    2   25 1
   7    3    4 1
   8    3   26 1
   9    3   27 1
  10    4    5 1
  11    4   10 1
  12    4   28 1
  13    5    6 1
  14    5   29 1
  15    5   30 1
  16    6   31 1
  17    6   32 1
  18    7    8 2
  19    7    9 1
  20    9   20 1
  21   10   11 1
  22   10   33 1
  23   10   34 1
  24   11   12 3
  25   12   13 1
  26   13   14 ar
  27   13   18 ar
  28   14   15 ar
  29   14   35 1
  30   15   16 ar
  31   15   36 1
  32   16   17 ar
  33   16   37 1
  34   17   18 ar
  35   17   19 1
  36   19   38 1
  37   19   39 1
  38   19   40 1
  39   20   21 1
  40   20   23 1
  41   20   22 1
  42   21   41 1
  43   21   42 1
  44   21   43 1
  45   22   44 1
  46   22   45 1
  47   22   46 1
  48   23   47 1
  49   23   48 1
  50   23   49 1

#	End of record

