#	Name: ASD03730223
#	Creating user name:	WinNT
#	Creation time:	15. 06. 2019 20:44

#	Modifying user name:	WinNT
#	Modification time:	15. 06. 2019 20:44

#	Program:	/corina/corina34_cracker 3.40 0067  02.08.2006

@<TRIPOS>MOLECULE
ASD03730223
  59   64    0    0    0
SMALL
NO_CHARGES


@<TRIPOS>ATOM
   1 O1            -0.4187     1.1763     1.1210 O.3     
   2 C2            -0.3576    -0.2609     1.1836 C.3     
   3 O3             0.7473    -0.5936     0.3224 O.3     
   4 C4             1.5728     0.4940     0.3513 C.ar    
   5 C5             0.8544     1.5826     0.8406 C.ar    
   6 C6             2.9011     0.6454    -0.0039 C.ar    
   7 C7             3.5276     1.8819     0.1200 C.ar    
   8 C8             2.7968     2.9643     0.6006 C.ar    
   9 C9             1.4743     2.8147     0.9624 C.ar    
  10 O10            4.8151     2.2382    -0.1546 O.3     
  11 C11            3.7266     4.1480     0.5913 C.3     
  12 C12            4.8949     3.6709    -0.2824 C.3     
  13 N13            3.1552     6.3256     0.9848 N.am    
  14 C14            3.0742     5.3784     0.0291 C.2     
  15 C15            4.1778     4.5322     1.9689 C.ar    
  16 C16            4.8369     3.8562     2.9864 C.ar    
  17 C17            5.1210     4.5118     4.1841 C.ar    
  18 C18            4.7442     5.8299     4.3492 C.ar    
  19 C19            4.0888     6.5016     3.3373 C.ar    
  20 C20            3.7984     5.8597     2.1346 C.ar    
  21 O21            2.5726     5.4964    -1.0689 O.2     
  22 C22            2.6306     7.6853     0.8353 C.3     
  23 C23            1.1795     7.7281     1.3183 C.3     
  24 C24            0.6317     9.1480     1.1622 C.3     
  25 C25           -0.8195     9.1908     1.6452 C.3     
  26 C26           -1.3673    10.6108     1.4890 C.3     
  27 C27            5.9623    -0.1188     2.4654 C.ar    
  28 N28            6.4663     0.8027     1.6600 N.ar    
  29 C29            6.1339     2.0748     1.7929 C.ar    
  30 C30            5.2377     2.4396     2.8005 C.ar    
  31 C31            4.7290     1.4364     3.6290 C.ar    
  32 N32            5.1108     0.1867     3.4314 N.ar    
  33 O33            6.3241    -1.4126     2.2923 O.3     
  34 C34            5.7539    -2.3708     3.1861 C.3     
  35 H35           -0.1616    -0.5919     2.2035 H       
  36 H36           -1.2818    -0.7003     0.8081 H       
  37 H37            3.4557    -0.2017    -0.3796 H       
  38 H38            0.9207     3.6610     1.3415 H       
  39 H39            5.8441     4.0417     0.1044 H       
  40 H40            4.7526     3.9757    -1.3192 H       
  41 H41            5.6333     3.9906     4.9792 H       
  42 H42            4.9635     6.3384     5.2765 H       
  43 H43            3.7989     7.5323     3.4784 H       
  44 H44            3.2317     8.3740     1.4291 H       
  45 H45            2.6731     7.9778    -0.2139 H       
  46 H46            0.5785     7.0394     0.7245 H       
  47 H47            1.1371     7.4356     2.3675 H       
  48 H48            1.2327     9.8367     1.7560 H       
  49 H49            0.6741     9.4405     0.1130 H       
  50 H50           -1.4205     8.5021     1.0514 H       
  51 H51           -0.8619     8.8983     2.6944 H       
  52 H52           -0.7663    11.2994     2.0828 H       
  53 H53           -1.3249    10.9033     0.4399 H       
  54 H54           -2.4011    10.6412     1.8332 H       
  55 H55            6.5493     2.8215     1.1324 H       
  56 H56            4.0338     1.6785     4.4193 H       
  57 H57            6.1259    -3.3649     2.9385 H       
  58 H58            6.0326    -2.1232     4.2103 H       
  59 H59            4.6681    -2.3550     3.0911 H       
@<TRIPOS>BOND
   1    1    2 1
   2    1    5 1
   3    2    3 1
   4    2   35 1
   5    2   36 1
   6    3    4 1
   7    4    5 ar
   8    4    6 ar
   9    5    9 ar
  10    6    7 ar
  11    6   37 1
  12    7    8 ar
  13    7   10 1
  14    8    9 ar
  15    8   11 1
  16    9   38 1
  17   10   12 1
  18   11   12 1
  19   11   14 1
  20   11   15 1
  21   12   39 1
  22   12   40 1
  23   13   14 am
  24   13   20 1
  25   13   22 1
  26   14   21 2
  27   15   16 ar
  28   15   20 ar
  29   16   17 ar
  30   16   30 1
  31   17   18 ar
  32   17   41 1
  33   18   19 ar
  34   18   42 1
  35   19   20 ar
  36   19   43 1
  37   22   23 1
  38   22   44 1
  39   22   45 1
  40   23   24 1
  41   23   46 1
  42   23   47 1
  43   24   25 1
  44   24   48 1
  45   24   49 1
  46   25   26 1
  47   25   50 1
  48   25   51 1
  49   26   52 1
  50   26   53 1
  51   26   54 1
  52   27   28 ar
  53   27   32 ar
  54   27   33 1
  55   28   29 ar
  56   29   30 ar
  57   29   55 1
  58   30   31 ar
  59   31   32 ar
  60   31   56 1
  61   33   34 1
  62   34   57 1
  63   34   58 1
  64   34   59 1

#	End of record

