#	Name: ASD01917056
#	Creating user name:	WinNT
#	Creation time:	15. 06. 2019 20:08

#	Modifying user name:	WinNT
#	Modification time:	15. 06. 2019 20:08

#	Program:	/corina/corina34_cracker 3.40 0067  02.08.2006

@<TRIPOS>MOLECULE
ASD01917056
  42   43    0    0    0
SMALL
NO_CHARGES


@<TRIPOS>ATOM
   1 C1            -0.0184     1.5028     0.0103 C.3     
   2 C2             0.0021    -0.0041     0.0020 C.2     
   3 N3             0.5336    -0.7573    -0.9243 N.2     
   4 C4             0.3686    -2.0488    -0.6084 C.2     
   5 N5            -0.2770    -2.1240     0.5348 N.2     
   6 N6            -0.5186    -0.8043     0.9496 N.pl3   
   7 C7            -1.2101    -0.3820     2.1702 C.3     
   8 C8            -0.2100    -0.2309     3.2874 C.2     
   9 O9            -0.6194     0.1506     4.5075 O.3     
  10 O10            0.9602    -0.4531     3.0849 O.2     
  11 C11            0.3987     0.2754     5.5352 C.3     
  12 C12            0.8360    -3.2031    -1.4154 C.ar    
  13 C13            1.5112    -2.9891    -2.6151 C.ar    
  14 C14            0.6059    -4.5043    -0.9724 C.ar    
  15 C15            1.0426    -5.5745    -1.7254 C.ar    
  16 C16            1.9445    -4.0655    -3.3621 C.ar    
  17 C17            1.7091    -5.3573    -2.9207 C.ar    
  18 F18            2.1350    -6.4082    -3.6551 F       
  19 C19            0.7948    -6.9820    -1.2472 C.3     
  20 C20            1.4170     2.0324    -0.0006 C.3     
  21 C21           -0.7584     2.0096    -1.2292 C.3     
  22 C22            1.3994     3.5564     0.1335 C.3     
  23 H23           -0.5286     1.8543     0.9071 H       
  24 H24           -1.7061     0.5726     1.9950 H       
  25 H25           -1.9518    -1.1318     2.4455 H       
  26 H26            0.8901    -0.6869     5.6787 H       
  27 H27            1.1357     1.0175     5.2283 H       
  28 H28           -0.0654     0.5894     6.4702 H       
  29 H29            1.6948    -1.9824    -2.9602 H       
  30 H30            0.0868    -4.6745    -0.0407 H       
  31 H31            2.4677    -3.9005    -4.2925 H       
  32 H32           -0.1616    -7.3340    -1.6338 H       
  33 H33            1.5928    -7.6329    -1.6043 H       
  34 H34            0.7739    -6.9971    -0.1575 H       
  35 H35            1.9699     1.6006     0.8337 H       
  36 H36            1.8993     1.7557    -0.9381 H       
  37 H37           -1.7809     1.6323    -1.2215 H       
  38 H38           -0.7731     3.0995    -1.2232 H       
  39 H39           -0.2482     1.6581    -2.1260 H       
  40 H40            0.8465     3.9881    -0.7007 H       
  41 H41            0.9171     3.8331     1.0711 H       
  42 H42            2.4220     3.9336     0.1258 H       
@<TRIPOS>BOND
   1    1    2 1
   2    1   20 1
   3    1   21 1
   4    1   23 1
   5    2    3 2
   6    2    6 1
   7    3    4 1
   8    4    5 2
   9    4   12 1
  10    5    6 1
  11    6    7 1
  12    7    8 1
  13    7   24 1
  14    7   25 1
  15    8    9 1
  16    8   10 2
  17    9   11 1
  18   11   26 1
  19   11   27 1
  20   11   28 1
  21   12   13 ar
  22   12   14 ar
  23   13   16 ar
  24   13   29 1
  25   14   15 ar
  26   14   30 1
  27   15   17 ar
  28   15   19 1
  29   16   17 ar
  30   16   31 1
  31   17   18 1
  32   19   32 1
  33   19   33 1
  34   19   34 1
  35   20   22 1
  36   20   35 1
  37   20   36 1
  38   21   37 1
  39   21   38 1
  40   21   39 1
  41   22   40 1
  42   22   41 1
  43   22   42 1

#	End of record

