#	Name: ASD03082425
#	Creating user name:	WinNT
#	Creation time:	15. 06. 2019 20:27

#	Modifying user name:	WinNT
#	Modification time:	15. 06. 2019 20:27

#	Program:	/corina/corina34_cracker 3.40 0067  02.08.2006

@<TRIPOS>MOLECULE
ASD03082425
  45   48    0    0    0
SMALL
NO_CHARGES


@<TRIPOS>ATOM
   1 C1             1.9480     3.8488    -0.8508 C.ar    
   2 C2             1.0916     4.6064    -1.6393 C.ar    
   3 C3             1.2306     5.9802    -1.6896 C.ar    
   4 C4             2.2237     6.6061    -0.9537 C.ar    
   5 C5             3.0838     5.8493    -0.1617 C.ar    
   6 N6             1.8068     2.4575    -0.8015 N.pl3   
   7 C7             2.9176     1.6509    -0.5334 C.2     
   8 C8             2.8981     0.2588    -0.3410 C.2     
   9 N9             4.1591     2.0625    -0.4236 N.2     
  10 N10            4.9667     0.9505    -0.1527 N.pl3   
  11 C11            4.1663    -0.1466    -0.1072 C.2     
  12 C12            6.3521     0.9660     0.0340 C.ar    
  13 C13            7.1627    -0.0063    -0.5483 C.ar    
  14 C14            6.9588     1.9579     0.8026 C.ar    
  15 C15            8.3290     1.9381     0.9626 C.ar    
  16 N16            9.0622     0.9966     0.3993 N.ar    
  17 C17            8.5260     0.0442    -0.3398 C.ar    
  18 C18            8.9968     3.0053     1.7909 C.3     
  19 H19            9.1614    -0.7083    -0.7830 H       
  20 C20            2.9478     4.4718    -0.1160 C.ar    
  21 O21            2.5647     7.9235    -0.8318 O.3     
  22 C22            3.3755     8.0022     0.3554 C.3     
  23 O23            3.9630     6.6916     0.4558 O.3     
  24 F24            4.3689     8.9763     0.2086 F       
  25 F25            2.5820     8.2723     1.4755 F       
  26 C26            4.6124    -1.5615     0.1571 C.3     
  27 C27            4.7488    -2.3097    -1.1706 C.3     
  28 C28            5.3194    -3.6814    -0.9179 C.2     
  29 O29            5.5277    -4.5211    -1.9441 O.3     
  30 O30            5.5893    -4.0253     0.2085 O.2     
  31 H31            0.3166     4.1212    -2.2140 H       
  32 H32            0.5640     6.5673    -2.3040 H       
  33 H33            0.9386     2.0525    -0.9532 H       
  34 H34            2.0242    -0.3751    -0.3739 H       
  35 H35            6.7301    -0.7888    -1.1541 H       
  36 H36            6.3646     2.7315     1.2661 H       
  37 H37            9.0513     2.6783     2.8293 H       
  38 H38           10.0035     3.1822     1.4124 H       
  39 H39            8.4185     3.9273     1.7302 H       
  40 H40            3.6135     3.8833     0.4979 H       
  41 H41            5.5752    -1.5495     0.6679 H       
  42 H42            3.8752    -2.0640     0.7832 H       
  43 H43            3.7680    -2.4044    -1.6366 H       
  44 H44            5.4140    -1.7559    -1.8331 H       
  45 H45            5.8953    -5.3902    -1.7326 H       
@<TRIPOS>BOND
   1    1    2 ar
   2    1    6 1
   3    1   20 ar
   4    2    3 ar
   5    2   31 1
   6    3    4 ar
   7    3   32 1
   8    4    5 ar
   9    4   21 1
  10    5   20 ar
  11    5   23 1
  12    6    7 1
  13    6   33 1
  14    7    8 1
  15    7    9 2
  16    8   11 2
  17    8   34 1
  18    9   10 1
  19   10   11 1
  20   10   12 1
  21   11   26 1
  22   12   13 ar
  23   12   14 ar
  24   13   17 ar
  25   13   35 1
  26   14   15 ar
  27   14   36 1
  28   15   16 ar
  29   15   18 1
  30   16   17 ar
  31   17   19 1
  32   18   37 1
  33   18   38 1
  34   18   39 1
  35   20   40 1
  36   21   22 1
  37   22   23 1
  38   22   24 1
  39   22   25 1
  40   26   27 1
  41   26   41 1
  42   26   42 1
  43   27   28 1
  44   27   43 1
  45   27   44 1
  46   28   29 1
  47   28   30 2
  48   29   45 1

#	End of record

