#	Name: ASD01880302
#	Creating user name:	WinNT
#	Creation time:	15. 06. 2019 19:40

#	Modifying user name:	WinNT
#	Modification time:	15. 06. 2019 19:40

#	Program:	/corina/corina34_cracker 3.40 0067  02.08.2006

@<TRIPOS>MOLECULE
ASD01880302
  43   45    0    0    0
SMALL
NO_CHARGES


@<TRIPOS>ATOM
   1 C1            -0.0164     1.3595     0.0095 C.2     
   2 C2             0.0021    -0.0041     0.0020 C.2     
   3 N3            -1.1569    -0.7119     0.0098 N.am    
   4 C4            -2.3486    -0.0861     0.0245 C.2     
   5 C5            -2.4104     1.3237     0.0322 C.2     
   6 C6            -1.2517     2.0439     0.0309 C.2     
   7 O7            -3.3792    -0.7403     0.0309 O.2     
   8 C8            -1.1096    -2.1761     0.0014 C.3     
   9 C9            -1.0792    -2.6858     1.4193 C.ar    
  10 O10           -3.6135     1.9584     0.0463 O.3     
  11 C11            1.2570     2.1214     0.0015 C.ar    
  12 C12            1.5840     2.9232    -1.0906 C.ar    
  13 C13            2.7680     3.6307    -1.0950 C.ar    
  14 C14            3.6338     3.5443    -0.0134 C.ar    
  15 C15            3.3110     2.7461     1.0755 C.ar    
  16 C16            2.1255     2.0412     1.0884 C.ar    
  17 O17            4.7999     4.2421    -0.0208 O.3     
  18 C18            5.6439     4.1073     1.1245 C.3     
  19 C19           -3.5932     3.3873     0.0533 C.3     
  20 C20           -2.2510    -2.7623     2.1526 C.ar    
  21 C21           -2.2222    -3.2307     3.4553 C.ar    
  22 C22           -1.0229    -3.6216     4.0223 C.ar    
  23 C23            0.1474    -3.5444     3.2878 C.ar    
  24 C24            0.1178    -3.0822     1.9857 C.ar    
  25 Cl25          -0.9856    -4.2085     5.6557 Cl      
  26 F26           -3.4218    -2.3798     1.5977 F       
  27 H27            0.9475    -0.5261    -0.0106 H       
  28 H28           -1.2788     3.1235     0.0371 H       
  29 H29           -1.9924    -2.5653    -0.5057 H       
  30 H30           -0.2135    -2.5076    -0.5231 H       
  31 H31            0.9111     2.9903    -1.9326 H       
  32 H32            3.0219     4.2522    -1.9409 H       
  33 H33            3.9870     2.6803     1.9153 H       
  34 H34            1.8750     1.4204     1.9358 H       
  35 H35            6.5389     4.7147     0.9898 H       
  36 H36            5.1077     4.4423     2.0124 H       
  37 H37            5.9288     3.0621     1.2449 H       
  38 H38           -4.6155     3.7651     0.0645 H       
  39 H39           -3.0662     3.7388     0.9404 H       
  40 H40           -3.0823     3.7478    -0.8395 H       
  41 H41           -3.1357    -3.2905     4.0283 H       
  42 H42            1.0838    -3.8497     3.7310 H       
  43 H43            1.0317    -3.0223     1.4134 H       
@<TRIPOS>BOND
   1    1    2 2
   2    1   11 1
   3    1    6 1
   4    2    3 1
   5    2   27 1
   6    3    4 am
   7    3    8 1
   8    4    5 1
   9    4    7 2
  10    5    6 2
  11    5   10 1
  12    6   28 1
  13    8    9 1
  14    8   29 1
  15    8   30 1
  16    9   20 ar
  17    9   24 ar
  18   10   19 1
  19   11   12 ar
  20   11   16 ar
  21   12   13 ar
  22   12   31 1
  23   13   14 ar
  24   13   32 1
  25   14   15 ar
  26   14   17 1
  27   15   16 ar
  28   15   33 1
  29   16   34 1
  30   17   18 1
  31   18   35 1
  32   18   36 1
  33   18   37 1
  34   19   38 1
  35   19   39 1
  36   19   40 1
  37   20   21 ar
  38   20   26 1
  39   21   22 ar
  40   21   41 1
  41   22   23 ar
  42   22   25 1
  43   23   24 ar
  44   23   42 1
  45   24   43 1

#	End of record

