#	Name: ASD01912846
#	Creating user name:	WinNT
#	Creation time:	15. 06. 2019 20:00

#	Modifying user name:	WinNT
#	Modification time:	15. 06. 2019 20:00

#	Program:	/corina/corina34_cracker 3.40 0067  02.08.2006

@<TRIPOS>MOLECULE
ASD01912846
  45   48    0    0    0
SMALL
NO_CHARGES


@<TRIPOS>ATOM
   1 C1             0.0717     3.4184     0.7684 C.2     
   2 N2             0.6627     2.1976     0.5679 N.pl3   
   3 C3            -0.1351     1.1110     0.2415 C.2     
   4 C4            -1.4506     1.2331     0.1209 C.2     
   5 N5            -2.0944     2.4412     0.3128 N.am    
   6 C6            -1.3810     3.5422     0.6388 C.2     
   7 C7             1.0855     4.3066     1.0755 C.2     
   8 C8             2.2560     3.5505     1.0411 C.2     
   9 N9             1.9324     2.3163     0.7355 N.2     
  10 O10           -1.9330     4.6140     0.8113 O.2     
  11 C11           -3.4808     2.5230     0.1755 C.ar    
  12 C12            3.6486     4.0610     1.3080 C.3     
  13 O13            3.5949     5.4573     1.6069 O.3     
  14 C14            4.7746     6.0769     1.8739 C.ar    
  15 C15            4.7961     7.4317     2.1721 C.ar    
  16 C16            5.9965     8.0592     2.4430 C.ar    
  17 C17            7.1761     7.3382     2.4173 C.ar    
  18 C18            7.1575     5.9881     2.1199 C.ar    
  19 C19            5.9589     5.3546     1.8543 C.ar    
  20 N20           -4.0131     2.9138    -0.9722 N.ar    
  21 C21           -4.3148     2.1864     1.2493 C.ar    
  22 N22           -5.6299     2.2664     1.1101 N.ar    
  23 C23           -6.1503     2.6633    -0.0405 C.ar    
  24 C24           -5.3281     2.9901    -1.1000 C.ar    
  25 N25           -3.7647     1.7694     2.4566 N.3     
  26 C26           -4.5959     2.1973     3.5897 C.3     
  27 C27           -3.5658     0.3140     2.4697 C.3     
  28 H28            0.3238     0.1464     0.0821 H       
  29 H29           -2.0361     0.3625    -0.1353 H       
  30 H30            0.9910     5.3599     1.2950 H       
  31 H31            4.0762     3.5243     2.1550 H       
  32 H32            4.2692     3.9017     0.4262 H       
  33 H33            3.8750     7.9953     2.1920 H       
  34 H34            6.0138     9.1139     2.6749 H       
  35 H35            8.1136     7.8306     2.6294 H       
  36 H36            8.0802     5.4273     2.0997 H       
  37 H37            5.9448     4.2999     1.6221 H       
  38 H38           -7.2226     2.7276    -0.1521 H       
  39 H39           -5.7596     3.3131    -2.0359 H       
  40 H40           -5.5924     1.7665     3.4924 H       
  41 H41           -4.1428     1.8582     4.5212 H       
  42 H42           -4.6693     3.2848     3.5961 H       
  43 H43           -2.9827     0.0191     1.5972 H       
  44 H44           -3.0326     0.0282     3.3764 H       
  45 H45           -4.5344    -0.1854     2.4451 H       
@<TRIPOS>BOND
   1    1    2 1
   2    1    7 2
   3    1    6 1
   4    2    3 1
   5    2    9 1
   6    3    4 2
   7    3   28 1
   8    4    5 1
   9    4   29 1
  10    5    6 am
  11    5   11 1
  12    6   10 2
  13    7    8 1
  14    7   30 1
  15    8    9 2
  16    8   12 1
  17   11   20 ar
  18   11   21 ar
  19   12   13 1
  20   12   31 1
  21   12   32 1
  22   13   14 1
  23   14   15 ar
  24   14   19 ar
  25   15   16 ar
  26   15   33 1
  27   16   17 ar
  28   16   34 1
  29   17   18 ar
  30   17   35 1
  31   18   19 ar
  32   18   36 1
  33   19   37 1
  34   20   24 ar
  35   21   22 ar
  36   21   25 1
  37   22   23 ar
  38   23   24 ar
  39   23   38 1
  40   24   39 1
  41   25   26 1
  42   25   27 1
  43   26   40 1
  44   26   41 1
  45   26   42 1
  46   27   43 1
  47   27   44 1
  48   27   45 1

#	End of record

