#	Name: ASD01240017
#	Creating user name:	WinNT
#	Creation time:	15. 06. 2019 19:15

#	Modifying user name:	WinNT
#	Modification time:	15. 06. 2019 19:15

#	Program:	/corina/corina34_cracker 3.40 0067  02.08.2006

@<TRIPOS>MOLECULE
ASD01240017
  36   38    0    0    0
SMALL
NO_CHARGES


@<TRIPOS>ATOM
   1 C1            -0.0167     1.3824     0.0096 C.ar    
   2 C2             0.0021    -0.0041     0.0020 C.ar    
   3 C3            -1.1899    -0.7103     0.0122 C.ar    
   4 C4            -2.4046    -0.0348     0.0299 C.ar    
   5 C5            -2.4239     1.3488     0.0333 C.ar    
   6 C6            -1.2268     2.0564     0.0306 C.ar    
   7 C7            -3.6802    -0.8384     0.0510 C.3     
   8 C8            -4.8549     0.0473    -0.3714 C.3     
   9 C9            -4.7794     1.3585     0.4213 C.3     
  10 O10           -3.5887     2.0481     0.0387 O.3     
  11 C11           -7.0507     2.2432     0.9849 C.ar    
  12 C12           -5.9823     2.2107     0.1085 C.ar    
  13 C13           -6.0140     2.9581    -1.0539 C.ar    
  14 C14           -7.1186     3.7443    -1.3450 C.ar    
  15 C15           -8.1948     3.7797    -0.4664 C.ar    
  16 C16           -8.1592     3.0264     0.7009 C.ar    
  17 O17           -4.7700     0.3249    -1.7706 O.3     
  18 O18           -9.2101     3.0574     1.5636 O.3     
  19 O19           -9.2808     4.5501    -0.7485 O.3     
  20 O20           -7.1484     4.4800    -2.4884 O.3     
  21 O21            1.1502     2.0788     0.0022 O.3     
  22 O22           -1.1713    -2.0691     0.0046 O.3     
  23 H23            0.9439    -0.5324    -0.0122 H       
  24 H24           -1.2406     3.1363     0.0367 H       
  25 H25           -3.5919    -1.6773    -0.6393 H       
  26 H26           -3.8545    -1.2157     1.0587 H       
  27 H27           -5.7946    -0.4602    -0.1534 H       
  28 H28           -4.7507     1.1409     1.4889 H       
  29 H29           -7.0240     1.6544     1.8898 H       
  30 H30           -5.1772     2.9300    -1.7361 H       
  31 H31           -4.7941    -0.4635    -2.3301 H       
  32 H32           -9.8844     2.3874     1.3863 H       
  33 H33           -9.9653     4.0938    -1.2568 H       
  34 H34           -7.5277     4.0140    -3.2461 H       
  35 H35            1.4795     2.2851    -0.8832 H       
  36 H36           -1.1555    -2.4673     0.8857 H       
@<TRIPOS>BOND
   1    1    2 ar
   2    1   21 1
   3    1    6 ar
   4    2    3 ar
   5    2   23 1
   6    3    4 ar
   7    3   22 1
   8    4    5 ar
   9    4    7 1
  10    5    6 ar
  11    5   10 1
  12    6   24 1
  13    7    8 1
  14    7   25 1
  15    7   26 1
  16    8    9 1
  17    8   17 1
  18    8   27 1
  19    9   10 1
  20    9   12 1
  21    9   28 1
  22   11   12 ar
  23   11   16 ar
  24   11   29 1
  25   12   13 ar
  26   13   14 ar
  27   13   30 1
  28   14   15 ar
  29   14   20 1
  30   15   16 ar
  31   15   19 1
  32   16   18 1
  33   17   31 1
  34   18   32 1
  35   19   33 1
  36   20   34 1
  37   21   35 1
  38   22   36 1

#	End of record

