#	Name: ASD04840024
#	Creating user name:	WinNT
#	Creation time:	15. 06. 2019 20:52

#	Modifying user name:	WinNT
#	Modification time:	15. 06. 2019 20:52

#	Program:	/corina/corina34_cracker 3.40 0067  02.08.2006

@<TRIPOS>MOLECULE
ASD04840024
  68   73    0    0    0
SMALL
NO_CHARGES


@<TRIPOS>ATOM
   1 C1             2.0784     1.4122    -0.7413 C.ar    
   2 C2             2.0897     0.0306    -0.7622 C.ar    
   3 C3             1.1923     2.0875     0.0740 C.ar    
   4 C4             0.3049     1.3754     0.8806 C.ar    
   5 C5             0.3159    -0.0181     0.8600 C.ar    
   6 C6             1.2086    -0.6879     0.0374 C.ar    
   7 C7            -0.6458     2.0978     1.7566 C.2     
   8 N8            -1.4900     1.4930     2.5252 N.2     
   9 C9            -2.2917     2.4752     3.2679 C.3     
  10 C10           -1.7543     3.8376     2.7867 C.3     
  11 N11           -0.7019     3.4658     1.8262 N.pl3   
  12 N12            1.2232    -2.0863     0.0129 N.am    
  13 C13            0.0708    -2.7745     0.1348 C.2     
  14 C14            0.0725    -4.2464     0.0081 C.ar    
  15 O15           -0.9701    -2.1840     0.3491 O.2     
  16 C16           -1.1218    -4.9602     0.1344 C.ar    
  17 C17           -1.1192    -6.3318     0.0161 C.ar    
  18 C18            0.0758    -7.0092    -0.2293 C.ar    
  19 C19            1.2691    -6.2971    -0.3556 C.ar    
  20 C20            1.2675    -4.9248    -0.2438 C.ar    
  21 C21            0.0776    -8.4859    -0.3554 C.ar    
  22 C22            1.2726    -9.1633    -0.6009 C.ar    
  23 C23            1.2753   -10.5351    -0.7182 C.ar    
  24 C24            0.0811   -11.2488    -0.5914 C.ar    
  25 C25           -1.1149   -10.5699    -0.3457 C.ar    
  26 C26           -1.1147    -9.1985    -0.2230 C.ar    
  27 C27            0.0829   -12.7208    -0.7176 C.2     
  28 O28            1.1238   -13.3113    -0.9319 O.2     
  29 N29           -1.0695   -13.4090    -0.5953 N.am    
  30 C30           -1.0849   -14.7910    -0.8104 C.ar    
  31 C31            0.0008   -15.5643    -0.4287 C.ar    
  32 C32           -2.1910   -15.3902    -1.4015 C.ar    
  33 C33           -2.2108   -16.7553    -1.6150 C.ar    
  34 C34           -1.1322   -17.5324    -1.2425 C.ar    
  35 C35           -0.0196   -16.9410    -0.6448 C.ar    
  36 C36            1.1385   -17.7728    -0.2444 C.2     
  37 N37            1.1809   -19.1300    -0.4331 N.pl3   
  38 C38            2.4694   -19.6281     0.0768 C.3     
  39 C39            3.1649   -18.3512     0.5889 C.3     
  40 N40            2.1980   -17.2811     0.3077 N.2     
  41 H41            2.7680     1.9656    -1.3615 H       
  42 H42            2.7851    -0.4925    -1.4019 H       
  43 H43            1.1864     3.1674     0.0875 H       
  44 H44           -0.3689    -0.5745     1.4829 H       
  45 H45           -3.3481     2.3720     3.0198 H       
  46 H46           -2.1375     2.3611     4.3409 H       
  47 H47           -2.5417     4.4102     2.2966 H       
  48 H48           -1.3300     4.3993     3.6189 H       
  49 H49           -0.1470     4.0832     1.3245 H       
  50 H50            2.0627    -2.5608    -0.0919 H       
  51 H51           -2.0467    -4.4361     0.3250 H       
  52 H52           -2.0424    -6.8838     0.1138 H       
  53 H53            2.1935    -6.8222    -0.5455 H       
  54 H54            2.1911    -4.3738    -0.3420 H       
  55 H55            2.1957    -8.6113    -0.6992 H       
  56 H56            2.2002   -11.0591    -0.9085 H       
  57 H57           -2.0386   -11.1209    -0.2479 H       
  58 H58           -2.0391    -8.6735    -0.0327 H       
  59 H59           -1.8881   -12.9460    -0.3580 H       
  60 H60            0.8597   -15.1012     0.0341 H       
  61 H61           -3.0376   -14.7871    -1.6945 H       
  62 H62           -3.0729   -17.2158    -2.0744 H       
  63 H63           -1.1516   -18.5991    -1.4107 H       
  64 H64            0.4816   -19.6699    -0.8337 H       
  65 H65            2.3131   -20.3343     0.8923 H       
  66 H66            3.0488   -20.0866    -0.7246 H       
  67 H67            3.3576   -18.4243     1.6593 H       
  68 H68            4.0925   -18.1767     0.0439 H       
@<TRIPOS>BOND
   1    1    2 ar
   2    1    3 ar
   3    1   41 1
   4    2    6 ar
   5    2   42 1
   6    3    4 ar
   7    3   43 1
   8    4    5 ar
   9    4    7 1
  10    5    6 ar
  11    5   44 1
  12    6   12 1
  13    7    8 2
  14    7   11 1
  15    8    9 1
  16    9   10 1
  17    9   45 1
  18    9   46 1
  19   10   11 1
  20   10   47 1
  21   10   48 1
  22   11   49 1
  23   12   13 am
  24   12   50 1
  25   13   14 1
  26   13   15 2
  27   14   16 ar
  28   14   20 ar
  29   16   17 ar
  30   16   51 1
  31   17   18 ar
  32   17   52 1
  33   18   19 ar
  34   18   21 1
  35   19   20 ar
  36   19   53 1
  37   20   54 1
  38   21   22 ar
  39   21   26 ar
  40   22   23 ar
  41   22   55 1
  42   23   24 ar
  43   23   56 1
  44   24   25 ar
  45   24   27 1
  46   25   26 ar
  47   25   57 1
  48   26   58 1
  49   27   28 2
  50   27   29 am
  51   29   30 1
  52   29   59 1
  53   30   31 ar
  54   30   32 ar
  55   31   35 ar
  56   31   60 1
  57   32   33 ar
  58   32   61 1
  59   33   34 ar
  60   33   62 1
  61   34   35 ar
  62   34   63 1
  63   35   36 1
  64   36   37 1
  65   36   40 2
  66   37   38 1
  67   37   64 1
  68   38   39 1
  69   38   65 1
  70   38   66 1
  71   39   40 1
  72   39   67 1
  73   39   68 1

#	End of record

