#	Name: ASD01811504
#	Creating user name:	WinNT
#	Creation time:	15. 06. 2019 19:26

#	Modifying user name:	WinNT
#	Modification time:	15. 06. 2019 19:26

#	Program:	/corina/corina34_cracker 3.40 0067  02.08.2006

@<TRIPOS>MOLECULE
ASD01811504
  64   68    0    0    0
SMALL
NO_CHARGES


@<TRIPOS>ATOM
   1 C1            -7.6545     2.4755    -4.1277 C.1     
   2 C2            -6.6445     3.2275    -3.4458 C.ar    
   3 C3            -5.4805     2.5969    -3.0017 C.ar    
   4 C4            -4.5117     3.3274    -2.3454 C.ar    
   5 C5            -4.6914     4.6817    -2.1266 C.ar    
   6 C6            -5.8426     5.3128    -2.5636 C.ar    
   7 C7            -6.8166     4.5958    -3.2271 C.ar    
   8 N8            -8.4558     1.8790    -4.6686 N.1     
   9 N9            -2.5318     7.8384    -0.3123 N.am    
  10 C10           -2.0128     7.3678    -1.6037 C.3     
  11 C11           -3.1169     6.5874    -2.3240 C.3     
  12 C12           -3.6287     5.4730    -1.4085 C.3     
  13 C13           -4.2211     6.0863    -0.1376 C.3     
  14 C14           -3.1296     6.8609     0.6075 C.3     
  15 C15           -2.4560     9.1412     0.0246 C.2     
  16 C16           -3.0589     9.6141     1.2893 C.ar    
  17 C17           -3.9986    10.6475     1.2734 C.ar    
  18 C18           -4.5622    11.0900     2.4533 C.ar    
  19 C19           -4.2013    10.5155     3.6563 C.ar    
  20 C20           -3.2633     9.4819     3.6863 C.ar    
  21 C21           -2.6951     9.0262     2.4988 C.ar    
  22 O22           -1.8921     9.9274    -0.7111 O.2     
  23 C23           -2.8776     8.8681     4.9759 C.2     
  24 N24           -1.8962     7.9324     5.1550 N.pl3   
  25 C25           -1.8738     7.6415     6.4834 C.2     
  26 C26           -2.8200     8.3914     7.0788 C.2     
  27 N27           -3.4174     9.1341     6.1484 N.2     
  28 O28           -0.8679     7.8437     9.3215 O.3     
  29 C29           -0.1126     7.4861     8.1859 C.3     
  30 C30           -0.9739     6.6607     7.2123 C.3     
  31 C31           -3.1107     8.3637     8.5699 C.3     
  32 C32           -1.8402     8.8633     9.2808 C.3     
  33 C33           -4.8211    11.0058     4.9395 C.3     
  34 C34           -4.3976    11.2809    -0.0345 C.3     
  35 H35           -5.3393     1.5397    -3.1712 H       
  36 H36           -3.6109     2.8409    -2.0013 H       
  37 H37           -5.9767     6.3702    -2.3892 H       
  38 H38           -7.7125     5.0906    -3.5720 H       
  39 H39           -1.7138     8.2223    -2.2107 H       
  40 H40           -1.1544     6.7170    -1.4373 H       
  41 H41           -3.9373     7.2614    -2.5704 H       
  42 H42           -2.7164     6.1513    -3.2391 H       
  43 H43           -2.8027     4.8136    -1.1423 H       
  44 H44           -5.0311     6.7650    -0.4046 H       
  45 H45           -4.6066     5.2934     0.5034 H       
  46 H46           -2.3622     6.1688     0.9542 H       
  47 H47           -3.5674     7.3811     1.4594 H       
  48 H48           -5.2883    11.8893     2.4357 H       
  49 H49           -1.9727     8.2236     2.5162 H       
  50 H50           -1.3271     7.5506     4.4685 H       
  51 H51            0.2346     8.3893     7.6841 H       
  52 H52            0.7486     6.8946     8.4967 H       
  53 H53           -1.5777     5.9421     7.7665 H       
  54 H54           -0.3349     6.1404     6.4989 H       
  55 H55           -3.9487     9.0223     8.7984 H       
  56 H56           -3.3386     7.3458     8.8862 H       
  57 H57           -2.0907     9.1636    10.2982 H       
  58 H58           -1.4398     9.7222     8.7423 H       
  59 H59           -5.6660    10.3689     5.2014 H       
  60 H60           -4.0793    10.9717     5.7375 H       
  61 H61           -5.1661    12.0313     4.8077 H       
  62 H62           -5.1884    10.6908    -0.4977 H       
  63 H63           -4.7587    12.2932     0.1473 H       
  64 H64           -3.5344    11.3169    -0.6991 H       
@<TRIPOS>BOND
   1    1    2 1
   2    1    8 3
   3    2    3 ar
   4    2    7 ar
   5    3    4 ar
   6    3   35 1
   7    4    5 ar
   8    4   36 1
   9    5    6 ar
  10    5   12 1
  11    6    7 ar
  12    6   37 1
  13    7   38 1
  14    9   10 1
  15    9   14 1
  16    9   15 am
  17   10   11 1
  18   10   39 1
  19   10   40 1
  20   11   12 1
  21   11   41 1
  22   11   42 1
  23   12   13 1
  24   12   43 1
  25   13   14 1
  26   13   44 1
  27   13   45 1
  28   14   46 1
  29   14   47 1
  30   15   16 1
  31   15   22 2
  32   16   17 ar
  33   16   21 ar
  34   17   18 ar
  35   17   34 1
  36   18   19 ar
  37   18   48 1
  38   19   20 ar
  39   19   33 1
  40   20   21 ar
  41   20   23 1
  42   21   49 1
  43   23   24 1
  44   23   27 2
  45   24   25 1
  46   24   50 1
  47   25   26 2
  48   25   30 1
  49   26   27 1
  50   26   31 1
  51   28   29 1
  52   28   32 1
  53   29   30 1
  54   29   51 1
  55   29   52 1
  56   30   53 1
  57   30   54 1
  58   31   32 1
  59   31   55 1
  60   31   56 1
  61   32   57 1
  62   32   58 1
  63   33   59 1
  64   33   60 1
  65   33   61 1
  66   34   62 1
  67   34   63 1
  68   34   64 1

#	End of record

