#	Name: ASD03730723
#	Creating user name:	WinNT
#	Creation time:	15. 06. 2019 20:44

#	Modifying user name:	WinNT
#	Modification time:	15. 06. 2019 20:44

#	Program:	/corina/corina34_cracker 3.40 0067  02.08.2006

@<TRIPOS>MOLECULE
ASD03730723
  68   74    0    0    0
SMALL
NO_CHARGES


@<TRIPOS>ATOM
   1 C1             1.5573    -1.2864    -2.4137 C.2     
   2 C2             0.7041    -1.1969    -1.2096 C.ar    
   3 C3             1.2056    -0.6325    -0.0354 C.ar    
   4 C4             0.4041    -0.5515     1.0843 C.ar    
   5 C5            -0.8942    -1.0286     1.0455 C.ar    
   6 C6            -1.3974    -1.5891    -0.1148 C.ar    
   7 C7            -0.6081    -1.6709    -1.2436 C.ar    
   8 O8             2.6651    -0.7862    -2.4121 O.2     
   9 N9             1.1089    -1.9275    -3.5111 N.am    
  10 C10            1.9544    -2.0163    -4.7043 C.3     
  11 C11            1.2140    -2.7890    -5.7977 C.3     
  12 C12            2.0969    -2.8817    -7.0437 C.3     
  13 C13            1.3676    -3.6428    -8.1207 C.ar    
  14 C14            0.5658    -2.9677    -9.0220 C.ar    
  15 C15           -0.1032    -3.6659   -10.0099 C.ar    
  16 C16            0.0299    -5.0391   -10.0967 C.ar    
  17 C17            0.8325    -5.7140    -9.1960 C.ar    
  18 C18            1.5049    -5.0154    -8.2108 C.ar    
  19 C19            2.6196    -0.1133     0.0088 C.3     
  20 O20            0.0928    -1.7703     6.5327 O.3     
  21 C21            0.0950    -1.6641     7.9686 C.3     
  22 O22            1.4935    -1.6023     8.3051 O.3     
  23 C23            2.1096    -1.0652     7.2111 C.ar    
  24 C24            1.2482    -1.1698     6.1214 C.ar    
  25 C25            3.3557    -0.4852     7.0546 C.ar    
  26 C26            3.7588    -0.0048     5.8123 C.ar    
  27 C27            2.8928    -0.1223     4.7294 C.ar    
  28 C28            1.6474    -0.6946     4.8835 C.ar    
  29 O29            4.9220     0.6087     5.4504 O.3     
  30 C30            3.6136     0.4527     3.5395 C.3     
  31 C31            5.0688     0.5419     4.0188 C.3     
  32 N32            2.9248     0.3575     1.3621 N.am    
  33 C33            3.4778    -0.4129     2.3201 C.2     
  34 C34            3.0735     1.7932     3.1379 C.ar    
  35 C35            2.9244     2.9944     3.7945 C.ar    
  36 C36            2.3780     4.0812     3.1354 C.ar    
  37 C37            1.9815     3.9580     1.8161 C.ar    
  38 C38            2.1280     2.7567     1.1544 C.ar    
  39 C39            2.6774     1.6574     1.8099 C.ar    
  40 O40            3.8025    -1.5770     2.2171 O.2     
  41 H41            0.7909    -0.1151     1.9933 H       
  42 H42           -1.5174    -0.9635     1.9252 H       
  43 H43           -2.4115    -1.9596    -0.1385 H       
  44 H44           -1.0034    -2.1050    -2.1501 H       
  45 H45            0.2264    -2.3301    -3.5110 H       
  46 H46            2.1853    -1.0127    -5.0615 H       
  47 H47            2.8801    -2.5354    -4.4558 H       
  48 H48            0.9831    -3.7926    -5.4405 H       
  49 H49            0.2883    -2.2699    -6.0461 H       
  50 H50            2.3278    -1.8781    -7.4009 H       
  51 H51            3.0226    -3.4008    -6.7953 H       
  52 H52            0.4618    -1.8949    -8.9541 H       
  53 H53           -0.7302    -3.1385   -10.7136 H       
  54 H54           -0.4933    -5.5846   -10.8681 H       
  55 H55            0.9362    -6.7869    -9.2637 H       
  56 H56            2.1348    -5.5423    -7.5094 H       
  57 H57            3.3090    -0.9131    -0.2617 H       
  58 H58            2.7260     0.7118    -0.6955 H       
  59 H59           -0.4159    -0.7551     8.2861 H       
  60 H60           -0.3687    -2.5421     8.4182 H       
  61 H61            4.0201    -0.4047     7.9022 H       
  62 H62            0.9819    -0.7725     4.0364 H       
  63 H63            5.5478     1.4433     3.6364 H       
  64 H64            5.6274    -0.3477     3.7280 H       
  65 H65            3.2345     3.0882     4.8247 H       
  66 H66            2.2617     5.0237     3.6497 H       
  67 H67            1.5549     4.8064     1.3017 H       
  68 H68            1.8155     2.6681     0.1244 H       
@<TRIPOS>BOND
   1    1    2 1
   2    1    8 2
   3    1    9 am
   4    2    3 ar
   5    2    7 ar
   6    3    4 ar
   7    3   19 1
   8    4    5 ar
   9    4   41 1
  10    5    6 ar
  11    5   42 1
  12    6    7 ar
  13    6   43 1
  14    7   44 1
  15    9   10 1
  16    9   45 1
  17   10   11 1
  18   10   46 1
  19   10   47 1
  20   11   12 1
  21   11   48 1
  22   11   49 1
  23   12   13 1
  24   12   50 1
  25   12   51 1
  26   13   14 ar
  27   13   18 ar
  28   14   15 ar
  29   14   52 1
  30   15   16 ar
  31   15   53 1
  32   16   17 ar
  33   16   54 1
  34   17   18 ar
  35   17   55 1
  36   18   56 1
  37   19   32 1
  38   19   57 1
  39   19   58 1
  40   20   21 1
  41   20   24 1
  42   21   22 1
  43   21   59 1
  44   21   60 1
  45   22   23 1
  46   23   24 ar
  47   23   25 ar
  48   24   28 ar
  49   25   26 ar
  50   25   61 1
  51   26   27 ar
  52   26   29 1
  53   27   28 ar
  54   27   30 1
  55   28   62 1
  56   29   31 1
  57   30   31 1
  58   30   33 1
  59   30   34 1
  60   31   63 1
  61   31   64 1
  62   32   33 am
  63   32   39 1
  64   33   40 2
  65   34   35 ar
  66   34   39 ar
  67   35   36 ar
  68   35   65 1
  69   36   37 ar
  70   36   66 1
  71   37   38 ar
  72   37   67 1
  73   38   39 ar
  74   38   68 1

#	End of record

