#	Name: ASD08150540
#	Creating user name:	WinNT
#	Creation time:	15. 06. 2019 21:16

#	Modifying user name:	WinNT
#	Modification time:	15. 06. 2019 21:16

#	Program:	/corina/corina34_cracker 3.40 0067  02.08.2006

@<TRIPOS>MOLECULE
ASD08150540
  28   29    0    0    0
SMALL
NO_CHARGES


@<TRIPOS>ATOM
   1 C1             0.1638     1.6105     0.0293 C.2     
   2 C2            -0.1325     0.1677     0.0391 C.ar    
   3 C3             0.9081    -0.7673    -0.0818 C.ar    
   4 C4             0.6183    -2.1244    -0.0710 C.ar    
   5 C5            -0.6901    -2.5525     0.0580 C.ar    
   6 C6            -1.7227    -1.6293     0.1779 C.ar    
   7 C7            -1.4508    -0.2781     0.1747 C.ar    
   8 O8             1.3178     1.9942     0.0096 O.2     
   9 N9            -0.8439     2.5054     0.0367 N.am    
  10 F10           -2.9976    -2.0585     0.3030 F       
  11 F11           -0.9666    -3.8748     0.0670 F       
  12 C12           -0.5649     3.8722     0.1444 C.ar    
  13 C13           -1.4705     4.8085    -0.3411 C.ar    
  14 C14           -1.1916     6.1574    -0.2324 C.ar    
  15 C15           -0.0130     6.5758     0.3581 C.ar    
  16 C16            0.8894     5.6468     0.8418 C.ar    
  17 C17            0.6143     4.2966     0.7416 C.ar    
  18 Cl18          -2.9494     4.2836    -1.0835 Cl      
  19 N19            2.2229    -0.3354    -0.2123 N.pl3   
  20 H20            1.4156    -2.8470    -0.1637 H       
  21 H21           -2.2555     0.4356     0.2727 H       
  22 H22           -1.7626     2.2020    -0.0328 H       
  23 H23           -1.8944     6.8857    -0.6093 H       
  24 H24            0.2031     7.6307     0.4413 H       
  25 H25            1.8087     5.9770     1.3024 H       
  26 H26            1.3179     3.5718     1.1238 H       
  27 H27            2.4162     0.6114    -0.2969 H       
  28 H28            2.9470    -0.9807    -0.2188 H       
@<TRIPOS>BOND
   1    1    2 1
   2    1    8 2
   3    1    9 am
   4    2    3 ar
   5    2    7 ar
   6    3    4 ar
   7    3   19 1
   8    4    5 ar
   9    4   20 1
  10    5    6 ar
  11    5   11 1
  12    6    7 ar
  13    6   10 1
  14    7   21 1
  15    9   12 1
  16    9   22 1
  17   12   13 ar
  18   12   17 ar
  19   13   14 ar
  20   13   18 1
  21   14   15 ar
  22   14   23 1
  23   15   16 ar
  24   15   24 1
  25   16   17 ar
  26   16   25 1
  27   17   26 1
  28   19   27 1
  29   19   28 1

#	End of record

