#	Name: ASD08170350
#	Creating user name:	WinNT
#	Creation time:	15. 06. 2019 21:17

#	Modifying user name:	WinNT
#	Modification time:	15. 06. 2019 21:17

#	Program:	/corina/corina34_cracker 3.40 0067  02.08.2006

@<TRIPOS>MOLECULE
ASD08170350
  74   77    0    0    0
SMALL
NO_CHARGES


@<TRIPOS>ATOM
   1 C1            -0.0155     1.2910     0.0091 C.2     
   2 N2             0.0021    -0.0041     0.0020 N.2     
   3 N3            -1.1192    -0.5842     0.0096 N.2     
   4 C4            -2.1834     0.1604     0.0237 C.2     
   5 S5            -1.7028     1.8047     0.0357 S.3     
   6 C6             1.1892     2.1964     0.0025 C.3     
   7 C7             1.5828     2.5110    -1.4422 C.3     
   8 C8             2.8059     3.4301    -1.4489 C.3     
   9 C9             3.1995     3.7447    -2.8935 C.3     
  10 C10            4.4042     4.6501    -2.9002 C.2     
  11 C11            5.1208     5.2044    -4.1153 C.3     
  12 C12            6.2368     6.0363    -3.5147 C.2     
  13 N13            6.1078     5.9230    -2.2240 N.2     
  14 N14            5.0316     5.1152    -1.8716 N.2     
  15 N15            7.1891     6.7606    -4.1930 N.am    
  16 C16            8.1217     7.4536    -3.5100 C.2     
  17 O17            8.1212     7.4385    -2.2975 O.2     
  18 C18            9.1651     8.2473    -4.2532 C.3     
  19 C19            8.4795     9.3054    -5.1199 C.3     
  20 C20           10.0802     8.9234    -3.2650 C.ar    
  21 C21           11.4341     8.6443    -3.2737 C.ar    
  22 C22            9.5666     9.8269    -2.3535 C.ar    
  23 C23           10.4060    10.4470    -1.4470 C.ar    
  24 C24           11.7590    10.1634    -1.4518 C.ar    
  25 C25           12.2735     9.2645    -2.3673 C.ar    
  26 O26            9.4590     9.9800    -5.9121 O.3     
  27 C27            8.9205    10.9941    -6.7628 C.3     
  28 N28           -3.4954    -0.3008     0.0334 N.am    
  29 C29           -3.7441    -1.6254     0.0287 C.2     
  30 O30           -2.8238    -2.4152     0.0161 O.2     
  31 C31           -5.1658    -2.1251     0.0391 C.3     
  32 C32           -5.8975    -1.6073    -1.2007 C.3     
  33 C33           -5.1686    -3.6321     0.0313 C.ar    
  34 C34           -5.7589    -4.3276     1.0698 C.ar    
  35 C35           -5.7615    -5.7100     1.0626 C.ar    
  36 C36           -5.1741    -6.3968     0.0166 C.ar    
  37 C37           -4.5846    -5.7012    -1.0225 C.ar    
  38 C38           -4.5859    -4.3189    -1.0174 C.ar    
  39 O39           -7.2746    -1.9831    -1.1328 O.3     
  40 C40           -8.0521    -1.5459    -2.2492 C.3     
  41 H41            0.9501     3.1232     0.5240 H       
  42 H42            2.0193     1.7002     0.5054 H       
  43 H43            1.8219     1.5842    -1.9637 H       
  44 H44            0.7527     3.0071    -1.9450 H       
  45 H45            2.5668     4.3569    -0.9274 H       
  46 H46            3.6360     2.9340    -0.9460 H       
  47 H47            3.4386     2.8179    -3.4151 H       
  48 H48            2.3694     4.2409    -3.3964 H       
  49 H49            5.5282     4.3964    -4.7230 H       
  50 H50            4.4502     5.8295    -4.7049 H       
  51 H51            7.1895     6.7728    -5.1629 H       
  52 H52            9.7464     7.5786    -4.8880 H       
  53 H53            7.7523     8.8240    -5.7738 H       
  54 H54            7.9711    10.0261    -4.4794 H       
  55 H55           11.8359     7.9415    -3.9886 H       
  56 H56            8.5096    10.0485    -2.3498 H       
  57 H57           10.0049    11.1535    -0.7354 H       
  58 H58           12.4148    10.6482    -0.7438 H       
  59 H59           13.3305     9.0429    -2.3710 H       
  60 H60            9.7271    11.4583    -7.3303 H       
  61 H61            8.2025    10.5477    -7.4507 H       
  62 H62            8.4213    11.7498    -6.1563 H       
  63 H63           -4.2314     0.3309     0.0435 H       
  64 H64           -5.6707    -1.7656     0.9357 H       
  65 H65           -5.8190    -0.5209    -1.2416 H       
  66 H66           -5.4470    -2.0380    -2.0949 H       
  67 H67           -6.2178    -3.7911     1.8871 H       
  68 H68           -6.2220    -6.2534     1.8744 H       
  69 H69           -5.1754    -7.4767     0.0113 H       
  70 H70           -4.1254    -6.2378    -1.8395 H       
  71 H71           -4.1253    -3.7755    -1.8292 H       
  72 H72           -9.0848    -1.8706    -2.1221 H       
  73 H73           -8.0183    -0.4582    -2.3119 H       
  74 H74           -7.6463    -1.9754    -3.1651 H       
@<TRIPOS>BOND
   1    1    2 2
   2    1    6 1
   3    1    5 1
   4    2    3 1
   5    3    4 2
   6    4    5 1
   7    4   28 1
   8    6    7 1
   9    6   41 1
  10    6   42 1
  11    7    8 1
  12    7   43 1
  13    7   44 1
  14    8    9 1
  15    8   45 1
  16    8   46 1
  17    9   10 1
  18    9   47 1
  19    9   48 1
  20   10   11 1
  21   10   14 2
  22   11   12 1
  23   11   49 1
  24   11   50 1
  25   12   13 2
  26   12   15 1
  27   13   14 1
  28   15   16 am
  29   15   51 1
  30   16   17 2
  31   16   18 1
  32   18   19 1
  33   18   20 1
  34   18   52 1
  35   19   26 1
  36   19   53 1
  37   19   54 1
  38   20   21 ar
  39   20   22 ar
  40   21   25 ar
  41   21   55 1
  42   22   23 ar
  43   22   56 1
  44   23   24 ar
  45   23   57 1
  46   24   25 ar
  47   24   58 1
  48   25   59 1
  49   26   27 1
  50   27   60 1
  51   27   61 1
  52   27   62 1
  53   28   29 am
  54   28   63 1
  55   29   30 2
  56   29   31 1
  57   31   32 1
  58   31   33 1
  59   31   64 1
  60   32   39 1
  61   32   65 1
  62   32   66 1
  63   33   34 ar
  64   33   38 ar
  65   34   35 ar
  66   34   67 1
  67   35   36 ar
  68   35   68 1
  69   36   37 ar
  70   36   69 1
  71   37   38 ar
  72   37   70 1
  73   38   71 1
  74   39   40 1
  75   40   72 1
  76   40   73 1
  77   40   74 1

#	End of record

