#	Name: ASD01152021
#	Creating user name:	WinNT
#	Creation time:	15. 06. 2019 19:05

#	Modifying user name:	WinNT
#	Modification time:	15. 06. 2019 19:05

#	Program:	/corina/corina34_cracker 3.40 0067  02.08.2006

@<TRIPOS>MOLECULE
ASD01152021
  61   63    0    0    0
SMALL
NO_CHARGES


@<TRIPOS>ATOM
   1 C1            -0.0169     1.3454     0.0442 C.2     
   2 C2             0.0005    -0.0031     0.0421 C.2     
   3 C3             1.4518    -0.4296     0.0032 C.3     
   4 C4             2.2276     0.8708    -0.0158 C.2     
   5 C5             1.2815     1.8809     0.0105 C.2     
   6 S6            -1.4028    -1.0680     0.0785 S.3     
   7 C7            -2.7300     0.1621     0.1149 C.3     
   8 C8             3.6182     1.0208    -0.0520 C.2     
   9 O9             4.1108     2.1356    -0.0638 O.2     
  10 O10            4.4152    -0.0703    -0.0740 O.3     
  11 C11            5.8256     0.1571    -0.1107 C.3     
  12 C12            6.5583    -1.1859    -0.1313 C.3     
  13 N13            1.5746     3.2335     0.0040 N.am    
  14 C14            0.5795     4.1383    -0.0834 C.2     
  15 O15           -0.5653     3.7678    -0.2570 O.2     
  16 C16            1.8032    -1.2432     1.2503 C.3     
  17 C17            0.8794     5.5783     0.0318 C.ar    
  18 C18           -0.1511     6.5181    -0.0585 C.ar    
  19 C19            0.1331     7.8611     0.0495 C.ar    
  20 C20            1.4428     8.2826     0.2475 C.ar    
  21 C21            2.4706     7.3511     0.3379 C.ar    
  22 C22            2.1941     6.0060     0.2372 C.ar    
  23 O23            1.7188     9.6071     0.3525 O.3     
  24 C24            1.0362    -2.5669     1.2285 C.3     
  25 N25            1.3736    -3.3481     2.4260 N.3     
  26 C26            0.4860    -4.5120     2.5631 C.3     
  27 C27            0.9095    -5.3287     3.7868 C.3     
  28 O28            0.8854    -4.4900     4.9450 O.3     
  29 C29            1.7392    -3.3469     4.8459 C.3     
  30 C30            1.3240    -2.5102     3.6329 C.3     
  31 C31            3.0858     9.9709     0.5553 C.3     
  32 H32           -0.9181     1.9403     0.0647 H       
  33 H33            1.6547    -1.0071    -0.8988 H       
  34 H34           -3.6947    -0.3448     0.1401 H       
  35 H35           -2.6237     0.7852     1.0029 H       
  36 H36           -2.6710     0.7868    -0.7764 H       
  37 H37            6.0791     0.7231    -1.0071 H       
  38 H38            6.1257     0.7212     0.7723 H       
  39 H39            7.6340    -1.0125    -0.1593 H       
  40 H40            6.3047    -1.7519     0.7650 H       
  41 H41            6.2581    -1.7501    -1.0143 H       
  42 H42            2.4962     3.5304     0.0623 H       
  43 H43            2.8744    -1.4442     1.2631 H       
  44 H44            1.5287    -0.6789     2.1416 H       
  45 H45           -1.1689     6.1915    -0.2131 H       
  46 H46           -0.6627     8.5879    -0.0202 H       
  47 H47            3.4869     7.6827     0.4914 H       
  48 H48            2.9932     5.2829     0.3075 H       
  49 H49           -0.0350    -2.3660     1.2157 H       
  50 H50            1.3107    -3.1313     0.3373 H       
  51 H51           -0.5421    -4.1728     2.6899 H       
  52 H52            0.5578    -5.1318     1.6693 H       
  53 H53            0.2194    -6.1609     3.9257 H       
  54 H54            1.9185    -5.7129     3.6366 H       
  55 H55            1.6491    -2.7459     5.7507 H       
  56 H56            2.7722    -3.6735     4.7265 H       
  57 H57            2.0076    -1.6687     3.5201 H       
  58 H58            0.3094    -2.1390     3.7769 H       
  59 H59            3.6852     9.6122    -0.2815 H       
  60 H60            3.1670    11.0558     0.6218 H       
  61 H61            3.4478     9.5220     1.4803 H       
@<TRIPOS>BOND
   1    1    2 2
   2    1    5 1
   3    1   32 1
   4    2    3 1
   5    2    6 1
   6    3    4 1
   7    3   16 1
   8    3   33 1
   9    4    5 2
  10    4    8 1
  11    5   13 1
  12    6    7 1
  13    7   34 1
  14    7   35 1
  15    7   36 1
  16    8    9 2
  17    8   10 1
  18   10   11 1
  19   11   12 1
  20   11   37 1
  21   11   38 1
  22   12   39 1
  23   12   40 1
  24   12   41 1
  25   13   14 am
  26   13   42 1
  27   14   15 2
  28   14   17 1
  29   16   24 1
  30   16   43 1
  31   16   44 1
  32   17   18 ar
  33   17   22 ar
  34   18   19 ar
  35   18   45 1
  36   19   20 ar
  37   19   46 1
  38   20   21 ar
  39   20   23 1
  40   21   22 ar
  41   21   47 1
  42   22   48 1
  43   23   31 1
  44   24   25 1
  45   24   49 1
  46   24   50 1
  47   25   26 1
  48   25   30 1
  49   26   27 1
  50   26   51 1
  51   26   52 1
  52   27   28 1
  53   27   53 1
  54   27   54 1
  55   28   29 1
  56   29   30 1
  57   29   55 1
  58   29   56 1
  59   30   57 1
  60   30   58 1
  61   31   59 1
  62   31   60 1
  63   31   61 1

#	End of record

