#	Name: ASD05130041
#	Creating user name:	WinNT
#	Creation time:	15. 06. 2019 20:56

#	Modifying user name:	WinNT
#	Modification time:	15. 06. 2019 20:56

#	Program:	/corina/corina34_cracker 3.40 0067  02.08.2006

@<TRIPOS>MOLECULE
ASD05130041
  54   57    0    0    0
SMALL
NO_CHARGES


@<TRIPOS>ATOM
   1 N1            -0.1438     1.4197    -0.4397 N.am    
   2 C2             0.0606     0.0939    -0.3092 C.2     
   3 O3             1.1125    -0.3975    -0.6705 O.2     
   4 N4            -0.9010    -0.6872     0.2216 N.am    
   5 C5            -0.7298    -2.0778     0.2652 C.ar    
   6 C6            -1.8388    -2.9171     0.2161 C.ar    
   7 C7            -1.6744    -4.2903     0.2589 C.ar    
   8 C8            -0.4073    -4.8355     0.3505 C.ar    
   9 C9             0.7100    -3.9995     0.3996 C.ar    
  10 C10            0.5434    -2.6162     0.3512 C.ar    
  11 F11           -0.2501    -6.1767     0.3929 F       
  12 F12           -3.0794    -2.3896     0.1270 F       
  13 N13            3.9284    -5.7297    -0.5857 N.am    
  14 C14            2.6922    -5.2009    -0.6740 C.2     
  15 C15            2.0692    -4.5810     0.4978 C.2     
  16 C16            2.7507    -4.5422     1.6835 C.2     
  17 C17            4.0477    -5.1043     1.7509 C.ar    
  18 C18            4.7810    -5.0870     2.9437 C.ar    
  19 N19            5.9852    -5.6138     2.9894 N.ar    
  20 C20            6.5525    -6.1766     1.9278 C.ar    
  21 C21            5.8959    -6.2369     0.7068 C.ar    
  22 C22            4.6203    -5.6946     0.6030 C.ar    
  23 O23            2.0903    -5.2385    -1.7325 O.2     
  24 N24            7.8264    -6.7141     2.0422 N.pl3   
  25 C25            8.4652    -7.3380     0.8808 C.3     
  26 C26            4.5384    -6.3518    -1.7634 C.3     
  27 C27            5.3211    -5.2978    -2.5492 C.3     
  28 C28            0.8870     2.2441    -0.9043 C.ar    
  29 C29            1.7626     1.7815    -1.8778 C.ar    
  30 C30            2.7793     2.5985    -2.3349 C.ar    
  31 C31            2.9246     3.8764    -1.8230 C.ar    
  32 C32            2.0543     4.3386    -0.8535 C.ar    
  33 C33            1.0328     3.5284    -0.3970 C.ar    
  34 Cl34           3.8751     2.0216    -3.5515 Cl      
  35 H35           -1.0067     1.8018    -0.2153 H       
  36 H36           -1.7115    -0.2870     0.5735 H       
  37 H37           -2.5380    -4.9377     0.2209 H       
  38 H38            1.4050    -1.9657     0.3848 H       
  39 H39            2.3050    -4.0883     2.5563 H       
  40 H40            4.3560    -4.6390     3.8298 H       
  41 H41            6.3682    -6.6969    -0.1486 H       
  42 H42            8.2941    -6.6768     2.8912 H       
  43 H43            9.4545    -7.6998     1.1610 H       
  44 H44            7.8565    -8.1743     0.5369 H       
  45 H45            8.5599    -6.6042     0.0804 H       
  46 H46            5.2152    -7.1450    -1.4458 H       
  47 H47            3.7579    -6.7724    -2.3975 H       
  48 H48            5.7749    -5.7607    -3.4255 H       
  49 H49            4.6442    -4.5046    -2.8668 H       
  50 H50            6.1016    -4.8772    -1.9152 H       
  51 H51            1.6494     0.7844    -2.2771 H       
  52 H52            3.7198     4.5134    -2.1814 H       
  53 H53            2.1707     5.3358    -0.4554 H       
  54 H54            0.3507     3.8921     0.3573 H       
@<TRIPOS>BOND
   1    1    2 am
   2    1   28 1
   3    1   35 1
   4    2    3 2
   5    2    4 am
   6    4    5 1
   7    4   36 1
   8    5    6 ar
   9    5   10 ar
  10    6    7 ar
  11    6   12 1
  12    7    8 ar
  13    7   37 1
  14    8    9 ar
  15    8   11 1
  16    9   10 ar
  17    9   15 1
  18   10   38 1
  19   13   14 am
  20   13   22 1
  21   13   26 1
  22   14   15 1
  23   14   23 2
  24   15   16 2
  25   16   17 1
  26   16   39 1
  27   17   18 ar
  28   17   22 ar
  29   18   19 ar
  30   18   40 1
  31   19   20 ar
  32   20   21 ar
  33   20   24 1
  34   21   22 ar
  35   21   41 1
  36   24   25 1
  37   24   42 1
  38   25   43 1
  39   25   44 1
  40   25   45 1
  41   26   27 1
  42   26   46 1
  43   26   47 1
  44   27   48 1
  45   27   49 1
  46   27   50 1
  47   28   29 ar
  48   28   33 ar
  49   29   30 ar
  50   29   51 1
  51   30   31 ar
  52   30   34 1
  53   31   32 ar
  54   31   52 1
  55   32   33 ar
  56   32   53 1
  57   33   54 1

#	End of record

