#	Name: ASD03240800
#	Creating user name:	WinNT
#	Creation time:	15. 06. 2019 20:35

#	Modifying user name:	WinNT
#	Modification time:	15. 06. 2019 20:35

#	Program:	/corina/corina34_cracker 3.40 0067  02.08.2006

@<TRIPOS>MOLECULE
ASD03240800
  63   69    0    0    0
SMALL
NO_CHARGES


@<TRIPOS>ATOM
   1 C1            -0.0470     1.2460     0.1175 C.3     
   2 C2             0.1513    -0.2777     0.0552 C.3     
   3 C3             1.5491    -0.0412     0.6511 C.3     
   4 C4             1.4840     1.3693     0.0418 C.3     
   5 O5            -0.7216     1.7825    -1.0222 O.3     
   6 C6             2.6191    -0.9120     0.0447 C.ar    
   7 C7             3.7104    -1.2927     0.8051 C.ar    
   8 C8             4.6936    -2.0895     0.2554 C.ar    
   9 C9             4.5855    -2.5116    -1.0697 C.ar    
  10 C10            3.4825    -2.1247    -1.8311 C.ar    
  11 C11            2.5033    -1.3320    -1.2684 C.ar    
  12 C12           10.1661    -4.5159    -1.9805 C.2     
  13 N13            9.8843    -5.4720    -2.8750 N.2     
  14 C14            8.6605    -5.7083    -3.2764 C.2     
  15 C15            7.5921    -4.9369    -2.7577 C.ar    
  16 C16            7.8742    -3.9255    -1.8136 C.ar    
  17 N17            9.1885    -3.7329    -1.4366 N.pl3   
  18 C18            6.2682    -5.1554    -3.1593 C.ar    
  19 C19            5.2770    -4.3553    -2.6023 C.ar    
  20 C20            5.6373    -3.3664    -1.6659 C.ar    
  21 N21            6.9004    -3.1875    -1.3097 N.ar    
  22 N22            9.7893    -2.8370    -0.5463 N.2     
  23 C23           11.0793    -3.0423    -0.5279 C.2     
  24 C24           11.3816    -4.0891    -1.4186 C.2     
  25 C25            3.8579    -4.5402    -2.9896 C.ar    
  26 C26            3.5010    -4.5913    -4.3361 C.ar    
  27 C27            2.1785    -4.7636    -4.6907 C.ar    
  28 C28            1.2077    -4.8850    -3.7127 C.ar    
  29 C29            1.5559    -4.8351    -2.3749 C.ar    
  30 C30            2.8760    -4.6694    -2.0085 C.ar    
  31 C31           12.0785    -2.2807     0.3044 C.3     
  32 C32           12.6817    -4.6204    -1.6981 C.1     
  33 N33           13.7131    -5.0419    -1.9197 N.1     
  34 C34           -0.6363     1.7337     1.4426 C.3     
  35 C35           -0.7319     3.2452     1.6595 C.3     
  36 C36           -1.9987     2.4285     1.3967 C.3     
  37 N37            1.5713    -0.0472     2.1199 N.3     
  38 H38           -0.5163    -0.8323     0.7146 H       
  39 H39            0.1708    -0.6743    -0.9599 H       
  40 H40            1.8678     1.4229    -0.9770 H       
  41 H41            1.8922     2.1444     0.6903 H       
  42 H42           -0.3465     1.5035    -1.8687 H       
  43 H43            3.7930    -0.9652     1.8309 H       
  44 H44            5.5454    -2.3855     0.8498 H       
  45 H45            3.3933    -2.4480    -2.8577 H       
  46 H46            1.6467    -1.0354    -1.8555 H       
  47 H47            8.4671    -6.4868    -3.9996 H       
  48 H48            6.0247    -5.9225    -3.8795 H       
  49 H49            4.2580    -4.4959    -5.1005 H       
  50 H50            1.9008    -4.8033    -5.7336 H       
  51 H51            0.1738    -5.0190    -3.9948 H       
  52 H52            0.7937    -4.9305    -1.6157 H       
  53 H53            3.1474    -4.6354    -0.9637 H       
  54 H54           12.2008    -2.7754     1.2679 H       
  55 H55           13.0369    -2.2527    -0.2140 H       
  56 H56           11.7203    -1.2633     0.4612 H       
  57 H57           -0.4163     1.1134     2.3115 H       
  58 H58           -0.5751     3.6193     2.6712 H       
  59 H59           -0.3749     3.8922     0.8582 H       
  60 H60           -2.4751     2.5381     0.4225 H       
  61 H61           -2.6754     2.2653     2.2355 H       
  62 H62            2.5186    -0.0574     2.4672 H       
  63 H63            1.0581     0.7376     2.4925 H       
@<TRIPOS>BOND
   1    1    2 1
   2    1    4 1
   3    1    5 1
   4    1   34 1
   5    2    3 1
   6    2   38 1
   7    2   39 1
   8    3    4 1
   9    3    6 1
  10    3   37 1
  11    4   40 1
  12    4   41 1
  13    5   42 1
  14    6    7 ar
  15    6   11 ar
  16    7    8 ar
  17    7   43 1
  18    8    9 ar
  19    8   44 1
  20    9   10 ar
  21    9   20 1
  22   10   11 ar
  23   10   45 1
  24   11   46 1
  25   12   13 1
  26   12   17 1
  27   12   24 2
  28   13   14 2
  29   14   15 1
  30   14   47 1
  31   15   16 ar
  32   15   18 ar
  33   16   17 1
  34   16   21 ar
  35   17   22 1
  36   18   19 ar
  37   18   48 1
  38   19   20 ar
  39   19   25 1
  40   20   21 ar
  41   22   23 2
  42   23   24 1
  43   23   31 1
  44   24   32 1
  45   25   26 ar
  46   25   30 ar
  47   26   27 ar
  48   26   49 1
  49   27   28 ar
  50   27   50 1
  51   28   29 ar
  52   28   51 1
  53   29   30 ar
  54   29   52 1
  55   30   53 1
  56   31   54 1
  57   31   55 1
  58   31   56 1
  59   32   33 3
  60   34   35 1
  61   34   36 1
  62   34   57 1
  63   35   36 1
  64   35   58 1
  65   35   59 1
  66   36   60 1
  67   36   61 1
  68   37   62 1
  69   37   63 1

#	End of record

