#	Name: ASD01813048
#	Creating user name:	WinNT
#	Creation time:	15. 06. 2019 19:29

#	Modifying user name:	WinNT
#	Modification time:	15. 06. 2019 19:29

#	Program:	/corina/corina34_cracker 3.40 0067  02.08.2006

@<TRIPOS>MOLECULE
ASD01813048
  53   56    0    0    0
SMALL
NO_CHARGES


@<TRIPOS>ATOM
   1 C1            -1.3201     1.3641    -0.1345 C.2     
   2 C2            -1.5914     0.0515    -0.0421 C.2     
   3 N3            -0.5908    -0.8761    -0.1126 N.pl3   
   4 C4             0.7004    -0.5571    -0.2616 C.2     
   5 C5             1.0815     0.7668    -0.3559 C.2     
   6 C6             0.0285     1.7886    -0.2945 C.2     
   7 O7             0.3047     2.9753    -0.3715 O.2     
   8 C8            -0.9498    -2.2934    -0.0200 C.3     
   9 C9            -0.7970    -2.7581     1.4054 C.ar    
  10 C10           -2.3796     2.4325    -0.0838 C.3     
  11 C11           -3.6745     1.8833     0.5108 C.3     
  12 C12           -4.0252     0.5847    -0.2262 C.3     
  13 C13           -2.9927    -0.4738     0.1525 C.3     
  14 C14           -1.8971    -2.7824     2.2439 C.ar    
  15 C15           -1.7634    -3.2074     3.5499 C.ar    
  16 C16           -0.5163    -3.6129     4.0239 C.ar    
  17 C17            0.5888    -3.5862     3.1741 C.ar    
  18 C18            0.4417    -3.1642     1.8686 C.ar    
  19 C19           -0.3660    -4.0699     5.4256 C.ar    
  20 C20           -1.1117    -5.1473     5.8944 C.ar    
  21 C21           -0.9687    -5.5700     7.2011 C.ar    
  22 C22           -0.0858    -4.9282     8.0532 C.ar    
  23 C23            0.6619    -3.8579     7.6071 C.ar    
  24 C24            0.5354    -3.4209     6.2886 C.ar    
  25 O25           -1.9152     3.5176     0.7219 O.3     
  26 C26            1.3332    -2.2765     5.8055 C.2     
  27 O27            1.1341    -1.8221     4.6955 O.2     
  28 N28            2.2822    -1.7355     6.5949 N.am    
  29 C29            2.4954     1.1411    -0.5170 C.2     
  30 O30            3.3502     0.2786    -0.5692 O.2     
  31 O31            2.8426     2.4403    -0.6067 O.3     
  32 H32            1.4461    -1.3370    -0.3079 H       
  33 H33           -1.9840    -2.4277    -0.3370 H       
  34 H34           -0.2933    -2.8774    -0.6649 H       
  35 H35           -2.5734     2.7938    -1.0937 H       
  36 H36           -3.5341     1.6776     1.5720 H       
  37 H37           -4.4769     2.6093     0.3791 H       
  38 H38           -5.0196     0.2508     0.0702 H       
  39 H39           -3.9996     0.7545    -1.3026 H       
  40 H40           -3.1358    -1.3546    -0.4734 H       
  41 H41           -3.1299    -0.7511     1.1976 H       
  42 H42           -2.8624    -2.4677     1.8756 H       
  43 H43           -2.6228    -3.2255     4.2036 H       
  44 H44            1.5572    -3.8988     3.5359 H       
  45 H45            1.2970    -3.1431     1.2094 H       
  46 H46           -1.8027    -5.6528     5.2360 H       
  47 H47           -1.5496    -6.4063     7.5610 H       
  48 H48            0.0179    -5.2674     9.0733 H       
  49 H49            1.3484    -3.3618     8.2771 H       
  50 H50           -2.5459     4.2463     0.8015 H       
  51 H51            2.4410    -2.0981     7.4804 H       
  52 H52            2.8064    -0.9836     6.2774 H       
  53 H53            3.7835     2.6370    -0.7118 H       
@<TRIPOS>BOND
   1    1    2 2
   2    1   10 1
   3    1    6 1
   4    2    3 1
   5    2   13 1
   6    3    4 1
   7    3    8 1
   8    4    5 2
   9    4   32 1
  10    5    6 1
  11    5   29 1
  12    6    7 2
  13    8    9 1
  14    8   33 1
  15    8   34 1
  16    9   14 ar
  17    9   18 ar
  18   10   11 1
  19   10   25 1
  20   10   35 1
  21   11   12 1
  22   11   36 1
  23   11   37 1
  24   12   13 1
  25   12   38 1
  26   12   39 1
  27   13   40 1
  28   13   41 1
  29   14   15 ar
  30   14   42 1
  31   15   16 ar
  32   15   43 1
  33   16   17 ar
  34   16   19 1
  35   17   18 ar
  36   17   44 1
  37   18   45 1
  38   19   20 ar
  39   19   24 ar
  40   20   21 ar
  41   20   46 1
  42   21   22 ar
  43   21   47 1
  44   22   23 ar
  45   22   48 1
  46   23   24 ar
  47   23   49 1
  48   24   26 1
  49   25   50 1
  50   26   27 2
  51   26   28 am
  52   28   51 1
  53   28   52 1
  54   29   30 2
  55   29   31 1
  56   31   53 1

#	End of record

