#	Name: ASD02560314
#	Creating user name:	WinNT
#	Creation time:	15. 06. 2019 20:25

#	Modifying user name:	WinNT
#	Modification time:	15. 06. 2019 20:25

#	Program:	/corina/corina34_cracker 3.40 0067  02.08.2006

@<TRIPOS>MOLECULE
ASD02560314
  42   44    0    0    0
SMALL
NO_CHARGES


@<TRIPOS>ATOM
   1 C1             0.8948    -3.5091    -1.4279 C.2     
   2 O2             0.4661    -2.5320    -0.6052 O.3     
   3 C3            -0.8782    -2.5432    -0.6735 C.2     
   4 N4            -1.2172    -3.4953    -1.5081 N.2     
   5 N5            -0.1550    -4.0644    -1.9587 N.2     
   6 N6            -1.7414    -1.7055     0.0102 N.pl3   
   7 C7             2.3301    -3.8859    -1.6904 C.3     
   8 C8             2.8550    -3.0850    -2.8541 C.ar    
   9 C9             3.4589    -1.8600    -2.6347 C.ar    
  10 C10            3.9410    -1.1254    -3.7034 C.ar    
  11 C11            3.8193    -1.6153    -4.9902 C.ar    
  12 C12            3.2155    -2.8391    -5.2101 C.ar    
  13 C13            2.7381    -3.5772    -4.1416 C.ar    
  14 C14           -3.1219    -1.9105    -0.0674 C.ar    
  15 C15           -3.6254    -3.1888    -0.2723 C.ar    
  16 C16           -4.9899    -3.3878    -0.3486 C.ar    
  17 C17           -5.8546    -2.3161    -0.2216 C.ar    
  18 C18           -5.3567    -1.0422    -0.0175 C.ar    
  19 C19           -3.9935    -0.8371     0.0659 C.ar    
  20 Cl20           3.6114    -1.2443    -1.0187 Cl      
  21 Cl21           1.9804    -5.1145    -4.4179 Cl      
  22 C22           -7.3430    -2.5369    -0.3063 C.3     
  23 O23           -7.8602    -2.8023     0.9991 O.3     
  24 C24           -9.2710    -3.0274     1.0306 C.3     
  25 C25           -9.7120    -3.2998     2.4701 C.3     
  26 H26           -1.3886    -0.9761     0.5434 H       
  27 H27            2.9290    -3.6749    -0.8045 H       
  28 H28            2.3897    -4.9488    -1.9245 H       
  29 H29            4.4122    -0.1688    -3.5323 H       
  30 H30            4.1957    -1.0415    -5.8241 H       
  31 H31            3.1200    -3.2211    -6.2157 H       
  32 H32           -2.9506    -4.0261    -0.3723 H       
  33 H33           -5.3820    -4.3814    -0.5079 H       
  34 H34           -6.0348    -0.2074     0.0809 H       
  35 H35           -3.6053     0.1580     0.2256 H       
  36 H36           -7.8201    -1.6447    -0.7117 H       
  37 H37           -7.5478    -3.3864    -0.9579 H       
  38 H38           -9.7882    -2.1453     0.6529 H       
  39 H39           -9.5158    -3.8870     0.4067 H       
  40 H40           -9.1948    -4.1818     2.8478 H       
  41 H41           -9.4672    -2.4401     3.0939 H       
  42 H42          -10.7881    -3.4715     2.4941 H       
@<TRIPOS>BOND
   1    1    2 1
   2    1    7 1
   3    1    5 2
   4    2    3 1
   5    3    4 2
   6    3    6 1
   7    4    5 1
   8    6   14 1
   9    6   26 1
  10    7    8 1
  11    7   27 1
  12    7   28 1
  13    8    9 ar
  14    8   13 ar
  15    9   10 ar
  16    9   20 1
  17   10   11 ar
  18   10   29 1
  19   11   12 ar
  20   11   30 1
  21   12   13 ar
  22   12   31 1
  23   13   21 1
  24   14   15 ar
  25   14   19 ar
  26   15   16 ar
  27   15   32 1
  28   16   17 ar
  29   16   33 1
  30   17   18 ar
  31   17   22 1
  32   18   19 ar
  33   18   34 1
  34   19   35 1
  35   22   23 1
  36   22   36 1
  37   22   37 1
  38   23   24 1
  39   24   25 1
  40   24   38 1
  41   24   39 1
  42   25   40 1
  43   25   41 1
  44   25   42 1

#	End of record

