#	Name: ASD01870589
#	Creating user name:	WinNT
#	Creation time:	15. 06. 2019 19:39

#	Modifying user name:	WinNT
#	Modification time:	15. 06. 2019 19:39

#	Program:	/corina/corina34_cracker 3.40 0067  02.08.2006

@<TRIPOS>MOLECULE
ASD01870589
  43   46    0    0    0
SMALL
NO_CHARGES


@<TRIPOS>ATOM
   1 C1             0.5767     2.2955     1.0544 C.ar    
   2 C2             0.4205     0.9152     1.1002 C.ar    
   3 C3             1.5127     0.0904     0.9126 C.ar    
   4 C4             2.7660     0.6407     0.6784 C.ar    
   5 C5             2.9216     2.0204     0.6331 C.ar    
   6 C6             1.8304     2.8449     0.8201 C.ar    
   7 N7             3.8727    -0.1949     0.4883 N.am    
   8 C8             4.8595     0.1744    -0.3522 C.2     
   9 O9             4.7444     1.1847    -1.0179 O.2     
  10 N10           -0.5312     3.1321     1.2387 N.am    
  11 C11           -1.3406     3.5852     0.2659 C.2     
  12 C12           -2.3988     4.4396     0.8373 C.ar    
  13 C13           -1.0036     3.6535     2.5264 C.3     
  14 C14           -4.3159     5.8710     1.0519 C.ar    
  15 C15           -4.1239     5.9255     2.4211 C.ar    
  16 C16           -3.0719     5.2377     3.0049 C.ar    
  17 C17           -2.2133     4.5007     2.2203 C.ar    
  18 C18           -3.4623     5.1342     0.2573 C.ar    
  19 O19           -1.2180     3.3280    -0.9159 O.2     
  20 C20            6.0843    -0.6510    -0.4646 C.ar    
  21 Cl21          -2.8339     5.3092     4.7230 Cl      
  22 Cl22          -1.1464     0.2280     1.3937 Cl      
  23 N23            6.2540    -1.6905     0.3436 N.ar    
  24 C24            7.0457    -0.3336    -1.4213 C.ar    
  25 C25            8.1866    -1.1154    -1.5144 C.ar    
  26 C26            8.3260    -2.1875    -0.6474 C.ar    
  27 C27            7.3264    -2.4485     0.2766 C.ar    
  28 C28            6.8481     0.8428    -2.3422 C.3     
  29 H29            1.3919    -0.9823     0.9485 H       
  30 H30            3.8965     2.4480     0.4513 H       
  31 H31            1.9518     3.9174     0.7844 H       
  32 H32            3.9295    -1.0397     0.9614 H       
  33 H33           -1.2777     2.8302     3.1860 H       
  34 H34           -0.2288     4.2639     2.9903 H       
  35 H35           -5.1376     6.4091     0.6028 H       
  36 H36           -4.7962     6.5047     3.0366 H       
  37 H37           -3.6159     5.0950    -0.8109 H       
  38 H38            8.9494    -0.8942    -2.2463 H       
  39 H39            9.2028    -2.8163    -0.6943 H       
  40 H40            7.4297    -3.2859     0.9508 H       
  41 H41            7.1622     1.7563    -1.8373 H       
  42 H42            7.4443     0.7025    -3.2438 H       
  43 H43            5.7947     0.9204    -2.6116 H       
@<TRIPOS>BOND
   1    1    2 ar
   2    1    6 ar
   3    1   10 1
   4    2    3 ar
   5    2   22 1
   6    3    4 ar
   7    3   29 1
   8    4    5 ar
   9    4    7 1
  10    5    6 ar
  11    5   30 1
  12    6   31 1
  13    7    8 am
  14    7   32 1
  15    8    9 2
  16    8   20 1
  17   10   11 am
  18   10   13 1
  19   11   12 1
  20   11   19 2
  21   12   18 ar
  22   12   17 ar
  23   13   17 1
  24   13   33 1
  25   13   34 1
  26   14   15 ar
  27   14   18 ar
  28   14   35 1
  29   15   16 ar
  30   15   36 1
  31   16   17 ar
  32   16   21 1
  33   18   37 1
  34   20   24 ar
  35   20   23 ar
  36   23   27 ar
  37   24   25 ar
  38   24   28 1
  39   25   26 ar
  40   25   38 1
  41   26   27 ar
  42   26   39 1
  43   27   40 1
  44   28   41 1
  45   28   42 1
  46   28   43 1

#	End of record

