#	Name: ASD01816712
#	Creating user name:	WinNT
#	Creation time:	15. 06. 2019 19:35

#	Modifying user name:	WinNT
#	Modification time:	15. 06. 2019 19:35

#	Program:	/corina/corina34_cracker 3.40 0067  02.08.2006

@<TRIPOS>MOLECULE
ASD01816712
  70   74    0    0    0
SMALL
NO_CHARGES


@<TRIPOS>ATOM
   1 C1            -0.0167     1.3960     0.0156 C.2     
   2 C2             0.0025    -0.0052    -0.0026 C.2     
   3 C3             1.1989    -0.6602    -0.0249 C.2     
   4 C4             2.3921     0.0815    -0.0292 C.2     
   5 N5             2.3439     1.4491    -0.0108 N.am    
   6 C6             1.1421     2.0927     0.0110 C.2     
   7 C7             3.6230    -0.5886    -0.0520 C.2     
   8 C8             4.7879     0.1231    -0.0565 C.2     
   9 C9             4.7340     1.5284    -0.0380 C.2     
  10 C10            3.4813     2.1731    -0.0150 C.2     
  11 C11            3.6604    -2.0950    -0.0711 C.3     
  12 O12            3.4256     3.3913     0.0012 O.2     
  13 C13            5.9710     2.3159    -0.0418 C.2     
  14 N14            7.1647     1.6963     0.0459 N.am    
  15 O15            5.9198     3.5292    -0.1241 O.2     
  16 N16            3.7770    -2.5644    -1.4582 N.3     
  17 C17            4.0538    -4.0058    -1.5045 C.3     
  18 C18            4.3124    -4.4307    -2.9518 C.3     
  19 C19            3.0832    -4.1005    -3.8030 C.3     
  20 C20            2.7878    -2.6017    -3.6989 C.3     
  21 C21            2.5733    -2.2298    -2.2299 C.3     
  22 C22            3.3544    -4.4616    -5.2407 C.ar    
  23 N23            4.5921    -4.6927    -5.6322 N.ar    
  24 C24            1.9252    -4.8654    -3.3124 C.1     
  25 N25            1.0315    -5.4557    -2.9337 N.1     
  26 C26            4.8768    -5.0117    -6.8799 C.ar    
  27 C27            3.8774    -5.1152    -7.8285 C.ar    
  28 C28            2.5632    -4.8793    -7.4541 C.ar    
  29 C29            2.3022    -4.5524    -6.1325 C.ar    
  30 C30            8.4025     2.4710    -0.0711 C.3     
  31 C31            8.7721     3.0560     1.2955 C.3     
  32 C32           10.1067     3.7972     1.1807 C.3     
  33 O33           11.1101     2.8979     0.7047 O.3     
  34 C34           10.8412     2.3561    -0.5901 C.3     
  35 C35            9.5361     1.5570    -0.5464 C.3     
  36 C36           10.7081     3.4955    -1.6024 C.3     
  37 C37           11.9898     1.4350    -1.0063 C.3     
  38 H38           -0.9603     1.9212     0.0288 H       
  39 H39           -0.9228    -0.5622     0.0014 H       
  40 H40            1.2286    -1.7397    -0.0387 H       
  41 H41            1.1154     3.1723     0.0253 H       
  42 H42            5.7397    -0.3869    -0.0736 H       
  43 H43            4.5179    -2.4445     0.5040 H       
  44 H44            2.7435    -2.4869     0.3692 H       
  45 H45            7.2041     0.7373     0.1865 H       
  46 H46            4.9326    -4.2266    -0.8986 H       
  47 H47            3.1962    -4.5531    -1.1131 H       
  48 H48            5.1783    -3.8940    -3.3394 H       
  49 H49            4.5024    -5.5034    -2.9877 H       
  50 H50            3.6297    -2.0362    -4.0982 H       
  51 H51            1.8885    -2.3676    -4.2685 H       
  52 H52            1.7227    -2.7854    -1.8351 H       
  53 H53            2.3768    -1.1606    -2.1509 H       
  54 H54            5.9028    -5.1938    -7.1634 H       
  55 H55            4.1169    -5.3761    -8.8488 H       
  56 H56            1.7616    -4.9526    -8.1742 H       
  57 H57            1.2905    -4.3625    -5.8056 H       
  58 H58            8.2600     3.2800    -0.7875 H       
  59 H59            7.9959     3.7508     1.6162 H       
  60 H60            8.8644     2.2502     2.0237 H       
  61 H61           10.0023     4.6278     0.4826 H       
  62 H62           10.3958     4.1791     2.1598 H       
  63 H63            9.6439     0.7209     0.1446 H       
  64 H64            9.3064     1.1798    -1.5429 H       
  65 H65           11.6371     4.0650    -1.6327 H       
  66 H66           10.5031     3.0821    -2.5899 H       
  67 H67            9.8895     4.1513    -1.3059 H       
  68 H68           12.0840     0.6231    -0.2852 H       
  69 H69           11.7846     1.0218    -1.9939 H       
  70 H70           12.9191     2.0038    -1.0364 H       
@<TRIPOS>BOND
   1    1    2 1
   2    1    6 2
   3    1   38 1
   4    2    3 2
   5    2   39 1
   6    3    4 1
   7    3   40 1
   8    4    5 1
   9    4    7 2
  10    5    6 1
  11    5   10 am
  12    6   41 1
  13    7    8 1
  14    7   11 1
  15    8    9 2
  16    8   42 1
  17    9   10 1
  18    9   13 1
  19   10   12 2
  20   11   16 1
  21   11   43 1
  22   11   44 1
  23   13   14 am
  24   13   15 2
  25   14   30 1
  26   14   45 1
  27   16   17 1
  28   16   21 1
  29   17   18 1
  30   17   46 1
  31   17   47 1
  32   18   19 1
  33   18   48 1
  34   18   49 1
  35   19   20 1
  36   19   22 1
  37   19   24 1
  38   20   21 1
  39   20   50 1
  40   20   51 1
  41   21   52 1
  42   21   53 1
  43   22   23 ar
  44   22   29 ar
  45   23   26 ar
  46   24   25 3
  47   26   27 ar
  48   26   54 1
  49   27   28 ar
  50   27   55 1
  51   28   29 ar
  52   28   56 1
  53   29   57 1
  54   30   31 1
  55   30   35 1
  56   30   58 1
  57   31   32 1
  58   31   59 1
  59   31   60 1
  60   32   33 1
  61   32   61 1
  62   32   62 1
  63   33   34 1
  64   34   35 1
  65   34   36 1
  66   34   37 1
  67   35   63 1
  68   35   64 1
  69   36   65 1
  70   36   66 1
  71   36   67 1
  72   37   68 1
  73   37   69 1
  74   37   70 1

#	End of record

