#	Name: ASD02690036
#	Creating user name:	WinNT
#	Creation time:	15. 06. 2019 20:26

#	Modifying user name:	WinNT
#	Modification time:	15. 06. 2019 20:26

#	Program:	/corina/corina34_cracker 3.40 0067  02.08.2006

@<TRIPOS>MOLECULE
ASD02690036
  45   47    0    0    0
SMALL
NO_CHARGES


@<TRIPOS>ATOM
   1 C1            -0.0342     1.2405    -0.0485 C.2     
   2 O2            -0.0118     0.0302     0.0242 O.2     
   3 N3             4.0242     2.2107    -0.8694 N.3     
   4 C4             3.6783     1.9691     0.5371 C.3     
   5 C5             2.3569     1.2010     0.6142 C.3     
   6 C6             1.2565     2.0182    -0.0683 C.3     
   7 C7             1.6635     2.2974    -1.5178 C.3     
   8 C8             3.0050     3.0337    -1.5331 C.3     
   9 N9             8.0669     2.6941    -1.9677 N.3     
  10 C10            7.7904     2.5148    -0.5366 C.3     
  11 C11            6.4005     1.8998    -0.3574 C.3     
  12 C12            5.3540     2.8236    -0.9868 C.3     
  13 C13            5.6925     3.0327    -2.4654 C.3     
  14 C14            7.1029     3.6148    -2.5835 C.3     
  15 O15            6.3573     0.6234    -0.9984 O.3     
  16 C16           -1.3203     1.9488    -0.1233 C.ar    
  17 C17           -2.5205     1.2293    -0.1109 C.ar    
  18 C18           -3.7221     1.8990    -0.1814 C.ar    
  19 C19           -3.7442     3.2835    -0.2644 C.ar    
  20 C20           -2.5581     4.0027    -0.2771 C.ar    
  21 C21           -1.3498     3.3457    -0.2014 C.ar    
  22 F22           -4.9261     3.9343    -0.3337 F       
  23 H23            4.4669     1.3835     1.0096 H       
  24 H24            3.5747     2.9228     1.0546 H       
  25 H25            2.4639     0.2412     0.1088 H       
  26 H26            2.0926     1.0354     1.6586 H       
  27 H27            1.1217     2.9614     0.4612 H       
  28 H28            1.7596     1.3548    -2.0567 H       
  29 H29            0.9038     2.9152    -1.9966 H       
  30 H30            2.9046     3.9824    -1.0059 H       
  31 H31            3.3046     3.2213    -2.5641 H       
  32 H32            9.0138     3.0094    -2.1162 H       
  33 H33            8.5393     1.8526    -0.1022 H       
  34 H34            7.8269     3.4822    -0.0357 H       
  35 H35            6.1893     1.7813     0.7053 H       
  36 H36            5.3592     3.7841    -0.4716 H       
  37 H37            5.6484     2.0769    -2.9875 H       
  38 H38            4.9753     3.7236    -2.9087 H       
  39 H39            7.1426     4.5770    -2.0730 H       
  40 H40            7.3524     3.7515    -3.6357 H       
  41 H41            6.9974    -0.0129    -0.6514 H       
  42 H42           -2.5047     0.1513    -0.0467 H       
  43 H43           -4.6491     1.3449    -0.1722 H       
  44 H44           -2.5822     5.0805    -0.3420 H       
  45 H45           -0.4272     3.9070    -0.2069 H       
@<TRIPOS>BOND
   1    1    2 2
   2    1    6 1
   3    1   16 1
   4    3    4 1
   5    3    8 1
   6    3   12 1
   7    4    5 1
   8    4   23 1
   9    4   24 1
  10    5    6 1
  11    5   25 1
  12    5   26 1
  13    6    7 1
  14    6   27 1
  15    7    8 1
  16    7   28 1
  17    7   29 1
  18    8   30 1
  19    8   31 1
  20    9   10 1
  21    9   14 1
  22    9   32 1
  23   10   11 1
  24   10   33 1
  25   10   34 1
  26   11   12 1
  27   11   15 1
  28   11   35 1
  29   12   13 1
  30   12   36 1
  31   13   14 1
  32   13   37 1
  33   13   38 1
  34   14   39 1
  35   14   40 1
  36   15   41 1
  37   16   17 ar
  38   16   21 ar
  39   17   18 ar
  40   17   42 1
  41   18   19 ar
  42   18   43 1
  43   19   20 ar
  44   19   22 1
  45   20   21 ar
  46   20   44 1
  47   21   45 1

#	End of record

