#	Name: ASD06170150
#	Creating user name:	WinNT
#	Creation time:	15. 06. 2019 21:05

#	Modifying user name:	WinNT
#	Modification time:	15. 06. 2019 21:05

#	Program:	/corina/corina34_cracker 3.40 0067  02.08.2006

@<TRIPOS>MOLECULE
ASD06170150
  74   79    0    0    0
SMALL
NO_CHARGES


@<TRIPOS>ATOM
   1 C1            -1.2450    -1.3620    -3.0588 C.ar    
   2 C2            -0.4184    -1.0391    -1.9791 C.ar    
   3 C3             0.7956    -1.7282    -1.8059 C.ar    
   4 C4             1.1338    -2.7127    -2.7200 C.ar    
   5 C5             0.2687    -2.9843    -3.7694 C.ar    
   6 N6            -0.8569    -2.3326    -3.9136 N.ar    
   7 C7            -2.4174    -0.5902    -3.0876 C.2     
   8 C8            -2.5452     0.3040    -2.1009 C.2     
   9 S9            -1.1550     0.2463    -1.0310 S.3     
  10 C10           -3.6900     1.2143    -1.9384 C.2     
  11 O11           -4.6080     1.1852    -2.7358 O.2     
  12 N12           -3.7212     2.0802    -0.9061 N.am    
  13 O13            1.6177    -1.4347    -0.7665 O.3     
  14 C14            2.7378    -2.1890    -0.6056 C.ar    
  15 C15            3.9003    -1.8621    -1.2934 C.ar    
  16 C16            5.0386    -2.6288    -1.1292 C.ar    
  17 C17            5.0194    -3.7253    -0.2770 C.ar    
  18 C18            3.8573    -4.0505     0.4094 C.ar    
  19 C19            2.7214    -3.2807     0.2490 C.ar    
  20 C20            7.3880    -3.9232    -0.1519 C.2     
  21 O21            7.4824    -2.7137    -0.2482 O.2     
  22 N22            6.1720    -4.5030    -0.1103 N.am    
  23 N23           10.7221    -5.3739    -0.0237 N.pl3   
  24 N24            9.9654    -6.5460     0.0667 N.am    
  25 C25            8.6574    -6.2162     0.0356 C.2     
  26 C26            8.5984    -4.7506    -0.0812 C.2     
  27 C27            9.9059    -4.3064    -0.1117 C.2     
  28 C28           10.4782    -7.8430     0.1710 C.ar    
  29 C29           11.4440    -8.1348     1.1255 C.ar    
  30 C30           11.9480    -9.4167     1.2263 C.ar    
  31 C31           11.4920   -10.4092     0.3781 C.ar    
  32 C32           10.5308   -10.1219    -0.5736 C.ar    
  33 C33           10.0185    -8.8433    -0.6758 C.ar    
  34 O34            7.7123    -6.9807     0.0925 O.2     
  35 C35           10.3451    -2.8692    -0.2236 C.3     
  36 C36           12.1859    -5.3153    -0.0174 C.3     
  37 C37           12.7018    -5.2947    -1.4577 C.3     
  38 C38           14.2304    -5.3593    -1.4529 C.3     
  39 C39           12.1428    -6.4997    -2.2168 C.3     
  40 O40           12.2779    -4.0897    -2.0982 O.3     
  41 F41            3.9177    -0.7956    -2.1225 F       
  42 C42           -4.8609     2.9865    -0.7444 C.3     
  43 C43           -5.1577     3.5038     0.6646 C.3     
  44 C44           -4.5599     4.4429    -0.3850 C.3     
  45 H45            2.0586    -3.2610    -2.6171 H       
  46 H46            0.5299    -3.7510    -4.4838 H       
  47 H47           -3.1667    -0.7102    -3.8560 H       
  48 H48           -2.9891     2.1035    -0.2703 H       
  49 H49            5.9423    -2.3756    -1.6636 H       
  50 H50            3.8424    -4.9031     1.0721 H       
  51 H51            1.8189    -3.5319     0.7864 H       
  52 H52            6.0953    -5.4589     0.0351 H       
  53 H53           11.8008    -7.3601     1.7880 H       
  54 H54           12.6992    -9.6442     1.9680 H       
  55 H55           11.8877   -11.4108     0.4590 H       
  56 H56           10.1770   -10.8991    -1.2347 H       
  57 H57            9.2646    -8.6206    -1.4163 H       
  58 H58           10.4553    -2.6038    -1.2750 H       
  59 H59            9.5975    -2.2239     0.2376 H       
  60 H60           11.3002    -2.7405     0.2857 H       
  61 H61           12.5111    -4.4115     0.4980 H       
  62 H62           12.5824    -6.1901     0.4981 H       
  63 H63           14.5537    -6.2784    -0.9642 H       
  64 H64           14.5979    -5.3446    -2.4789 H       
  65 H65           14.6286    -4.5008    -0.9120 H       
  66 H66           11.0538    -6.4537    -2.2202 H       
  67 H67           12.5103    -6.4851    -3.2429 H       
  68 H68           12.4661    -7.4189    -1.7282 H       
  69 H69           12.5698    -4.0088    -3.0166 H       
  70 H70           -5.7107     2.7947    -1.3995 H       
  71 H71           -6.2027     3.6527     0.9362 H       
  72 H72           -4.5050     3.1699     1.4712 H       
  73 H73           -3.5140     4.7268    -0.2689 H       
  74 H74           -5.2117     5.2096    -0.8038 H       
@<TRIPOS>BOND
   1    1    2 ar
   2    1    6 ar
   3    1    7 1
   4    2    3 ar
   5    2    9 1
   6    3    4 ar
   7    3   13 1
   8    4    5 ar
   9    4   45 1
  10    5    6 ar
  11    5   46 1
  12    7    8 2
  13    7   47 1
  14    8    9 1
  15    8   10 1
  16   10   11 2
  17   10   12 am
  18   12   42 1
  19   12   48 1
  20   13   14 1
  21   14   15 ar
  22   14   19 ar
  23   15   16 ar
  24   15   41 1
  25   16   17 ar
  26   16   49 1
  27   17   18 ar
  28   17   22 1
  29   18   19 ar
  30   18   50 1
  31   19   51 1
  32   20   21 2
  33   20   22 am
  34   20   26 1
  35   22   52 1
  36   23   24 1
  37   23   27 1
  38   23   36 1
  39   24   25 am
  40   24   28 1
  41   25   26 1
  42   25   34 2
  43   26   27 2
  44   27   35 1
  45   28   29 ar
  46   28   33 ar
  47   29   30 ar
  48   29   53 1
  49   30   31 ar
  50   30   54 1
  51   31   32 ar
  52   31   55 1
  53   32   33 ar
  54   32   56 1
  55   33   57 1
  56   35   58 1
  57   35   59 1
  58   35   60 1
  59   36   37 1
  60   36   61 1
  61   36   62 1
  62   37   38 1
  63   37   39 1
  64   37   40 1
  65   38   63 1
  66   38   64 1
  67   38   65 1
  68   39   66 1
  69   39   67 1
  70   39   68 1
  71   40   69 1
  72   42   43 1
  73   42   44 1
  74   42   70 1
  75   43   44 1
  76   43   71 1
  77   43   72 1
  78   44   73 1
  79   44   74 1

#	End of record

