#	Name: ASD03240680
#	Creating user name:	WinNT
#	Creation time:	15. 06. 2019 20:35

#	Modifying user name:	WinNT
#	Modification time:	15. 06. 2019 20:35

#	Program:	/corina/corina34_cracker 3.40 0067  02.08.2006

@<TRIPOS>MOLECULE
ASD03240680
  50   54    0    0    0
SMALL
NO_CHARGES


@<TRIPOS>ATOM
   1 C1            -0.0187     1.5258     0.0104 C.3     
   2 C2             0.0021    -0.0041     0.0020 C.3     
   3 C3             1.3951     2.0474    -0.0003 C.ar    
   4 C4             1.9580     2.4876    -1.1849 C.ar    
   5 C5             3.2518     2.9667    -1.2011 C.ar    
   6 C6             3.9925     3.0067    -0.0198 C.ar    
   7 C7             3.4194     2.5613     1.1714 C.ar    
   8 C8             2.1228     2.0894     1.1756 C.ar    
   9 C9             9.4814     3.9540    -2.2729 C.2     
  10 N10           10.0120     4.6492    -1.2512 N.2     
  11 C11            9.3297     4.9218    -0.1690 C.2     
  12 C12            7.9476     4.4583    -0.0653 C.ar    
  13 C13            7.3967     3.7289    -1.1407 C.ar    
  14 N14            8.1945     3.4891    -2.2430 N.pl3   
  15 C15            7.1674     4.7188     1.0658 C.ar    
  16 C16            5.8614     4.2394     1.0808 C.ar    
  17 C17            5.3818     3.5192    -0.0303 C.ar    
  18 N18            6.1507     3.2923    -1.0849 N.ar    
  19 N19            7.9543     2.8135    -3.4456 N.2     
  20 C20            9.0395     2.8598    -4.1804 C.2     
  21 C21           10.0219     3.5569    -3.4884 C.2     
  22 C22            4.9857     4.4833     2.2521 C.ar    
  23 C23            5.4407     4.1954     3.5379 C.ar    
  24 C24            4.6214     4.4249     4.6244 C.ar    
  25 C25            3.3506     4.9391     4.4393 C.ar    
  26 C26            2.8935     5.2262     3.1657 C.ar    
  27 C27            3.7063     5.0067     2.0722 C.ar    
  28 C28            9.1970     2.2510    -5.5500 C.3     
  29 N29           -0.7063     1.9995     1.2190 N.3     
  30 H30           -0.5459     1.8868    -0.8726 H       
  31 H31            0.5123    -0.3556    -0.8948 H       
  32 H32            0.5293    -0.3651     0.8851 H       
  33 H33           -1.0205    -0.3814     0.0098 H       
  34 H34            1.3837     2.4559    -2.0990 H       
  35 H35            3.6903     3.3098    -2.1266 H       
  36 H36            3.9880     2.5894     2.0892 H       
  37 H37            1.6765     1.7481     2.0980 H       
  38 H38            9.7813     5.4818     0.6365 H       
  39 H39            7.5664     5.2741     1.9018 H       
  40 H40           11.0253     3.7558    -3.8347 H       
  41 H41            6.4324     3.7932     3.6834 H       
  42 H42            4.9729     4.2023     5.6210 H       
  43 H43            2.7127     5.1168     5.2925 H       
  44 H44            1.9003     5.6272     3.0271 H       
  45 H45            3.3501     5.2354     1.0786 H       
  46 H46            8.9090     2.9804    -6.3071 H       
  47 H47           10.2369     1.9614    -5.7014 H       
  48 H48            8.5591     1.3710    -5.6320 H       
  49 H49           -0.6770     3.0062     1.2806 H       
  50 H50           -1.6570     1.6629     1.2496 H       
@<TRIPOS>BOND
   1    1    2 1
   2    1    3 1
   3    1   29 1
   4    1   30 1
   5    2   31 1
   6    2   32 1
   7    2   33 1
   8    3    4 ar
   9    3    8 ar
  10    4    5 ar
  11    4   34 1
  12    5    6 ar
  13    5   35 1
  14    6    7 ar
  15    6   17 1
  16    7    8 ar
  17    7   36 1
  18    8   37 1
  19    9   10 1
  20    9   14 1
  21    9   21 2
  22   10   11 2
  23   11   12 1
  24   11   38 1
  25   12   13 ar
  26   12   15 ar
  27   13   14 1
  28   13   18 ar
  29   14   19 1
  30   15   16 ar
  31   15   39 1
  32   16   17 ar
  33   16   22 1
  34   17   18 ar
  35   19   20 2
  36   20   21 1
  37   20   28 1
  38   21   40 1
  39   22   23 ar
  40   22   27 ar
  41   23   24 ar
  42   23   41 1
  43   24   25 ar
  44   24   42 1
  45   25   26 ar
  46   25   43 1
  47   26   27 ar
  48   26   44 1
  49   27   45 1
  50   28   46 1
  51   28   47 1
  52   28   48 1
  53   29   49 1
  54   29   50 1

#	End of record

