#	Name: ASD03092807
#	Creating user name:	WinNT
#	Creation time:	15. 06. 2019 20:33

#	Modifying user name:	WinNT
#	Modification time:	15. 06. 2019 20:33

#	Program:	/corina/corina34_cracker 3.40 0067  02.08.2006

@<TRIPOS>MOLECULE
ASD03092807
  38   40    0    0    0
SMALL
NO_CHARGES


@<TRIPOS>ATOM
   1 C1            -0.2168     1.5102    -0.0039 C.3     
   2 C2             0.0021    -0.0041     0.0020 C.3     
   3 H3             0.6000    -0.2814     0.8702 H       
   4 N4            -1.2938    -0.6846     0.0640 N.am    
   5 C5            -1.8631    -0.9424     1.2581 C.2     
   6 O6            -1.3013    -0.6102     2.2839 O.2     
   7 C7            -3.1680    -1.6276     1.3205 C.2     
   8 C8            -3.8729    -1.9530     2.4471 C.2     
   9 C9            -5.0337    -2.5852     1.9488 C.2     
  10 C10           -6.1704    -3.1506     2.7607 C.3     
  11 N11           -4.9299    -2.5836     0.6516 N.2     
  12 O12           -3.9087    -2.0539     0.2801 O.3     
  13 C13            0.7241    -0.4122    -1.2562 C.ar    
  14 C14            0.0080    -0.7943    -2.3550 C.ar    
  15 C15            0.6759    -1.1721    -3.5216 C.ar    
  16 C16            0.2370    -1.6244    -4.8444 C.2     
  17 C17            1.3437    -1.8464    -5.5704 C.2     
  18 N18            2.4561    -1.5733    -4.8205 N.pl3   
  19 H19            3.3715    -1.6587    -5.1298 H       
  20 C20            2.0818    -1.1584    -3.5621 C.ar    
  21 C21            2.7929    -0.7657    -2.4327 C.ar    
  22 C22            4.2996    -0.7440    -2.4573 C.3     
  23 C23            2.1138    -0.3914    -1.2918 C.ar    
  24 F24            2.8055    -0.0053    -0.1974 F       
  25 H25            0.7474     2.0165    -0.0500 H       
  26 H26           -0.8147     1.7875    -0.8720 H       
  27 H27           -0.7390     1.8053     0.9062 H       
  28 H28           -1.7421    -0.9496    -0.7544 H       
  29 H29           -3.6044    -1.7696     3.4770 H       
  30 H30           -6.9232    -2.3783     2.9189 H       
  31 H31           -6.6168    -3.9891     2.2261 H       
  32 H32           -5.7934    -3.4933     3.7243 H       
  33 H33           -1.0714    -0.8044    -2.3214 H       
  34 H34           -0.7836    -1.7547    -5.1729 H       
  35 H35            1.3551    -2.1902    -6.5941 H       
  36 H36            4.6435     0.2354    -2.7898 H       
  37 H37            4.6822    -0.9429    -1.4562 H       
  38 H38            4.6627    -1.5090    -3.1436 H       
@<TRIPOS>BOND
   1    1    2 1
   2    1   25 1
   3    1   26 1
   4    1   27 1
   5    2    3 1
   6    2    4 1
   7    2   13 1
   8    4    5 am
   9    4   28 1
  10    5    6 2
  11    5    7 1
  12    7   12 1
  13    7    8 2
  14    8    9 1
  15    8   29 1
  16    9   10 1
  17    9   11 2
  18   10   30 1
  19   10   31 1
  20   10   32 1
  21   11   12 1
  22   13   23 ar
  23   13   14 ar
  24   14   15 ar
  25   14   33 1
  26   15   20 ar
  27   15   16 1
  28   16   17 2
  29   16   34 1
  30   17   18 1
  31   17   35 1
  32   18   19 1
  33   18   20 1
  34   20   21 ar
  35   21   22 1
  36   21   23 ar
  37   22   36 1
  38   22   37 1
  39   22   38 1
  40   23   24 1

#	End of record

