#	Name: ASD01870337
#	Creating user name:	WinNT
#	Creation time:	15. 06. 2019 19:39

#	Modifying user name:	WinNT
#	Modification time:	15. 06. 2019 19:39

#	Program:	/corina/corina34_cracker 3.40 0067  02.08.2006

@<TRIPOS>MOLECULE
ASD01870337
  50   54    0    0    0
SMALL
NO_CHARGES


@<TRIPOS>ATOM
   1 N1            -0.0179     1.4666     0.0101 N.am    
   2 C2             0.0021    -0.0041     0.0020 C.3     
   3 C3            -0.8912    -0.5093     1.1400 C.3     
   4 N4            -2.2247     0.0945     1.0165 N.3     
   5 C5            -2.1640     1.5549     1.1632 C.3     
   6 C6            -1.3228     2.1447     0.0324 C.3     
   7 C7            -3.1112    -0.4624     1.9332 C.ar    
   8 C8            -4.4384    -0.0378     1.9940 C.ar    
   9 C9            -5.2849    -0.6150     2.9168 C.ar    
  10 N10           -4.8532    -1.5565     3.7351 N.ar    
  11 C11           -3.6052    -1.9854     3.7087 C.ar    
  12 C12           -2.6973    -1.4639     2.8113 C.ar    
  13 C13            1.1293     2.1740     0.0030 C.2     
  14 C14            1.0857     3.6803     0.0115 C.3     
  15 O15            2.1967     1.5983    -0.0103 O.2     
  16 C16            2.4763     4.3407     0.0017 C.3     
  17 N17            1.9076     5.2908    -0.9739 N.am    
  18 C18            0.8907     4.3026    -1.3830 C.3     
  19 S19            2.2664     6.8425    -1.4275 S.o2    
  20 C20            3.4250     6.7442    -2.7514 C.ar    
  21 C21            3.0821     7.1820    -3.9871 C.ar    
  22 C22            3.9739     7.1194    -5.0579 C.ar    
  23 C23            5.2242     6.6178    -4.9118 C.ar    
  24 C24            5.6513     6.1419    -3.6466 C.ar    
  25 C25            4.7193     6.2125    -2.5241 C.ar    
  26 O26            1.0740     7.3858    -1.9773 O.2     
  27 O27            2.9563     7.4310    -0.3334 O.2     
  28 N28            6.8028     5.6168    -3.2599 N.2     
  29 S29            6.7286     5.2651    -1.7467 S.3     
  30 N30            5.2787     5.7286    -1.4268 N.2     
  31 H31           -0.3778    -0.3702    -0.9518 H       
  32 H32            1.0222    -0.3573     0.1529 H       
  33 H33           -0.9764    -1.5943     1.0812 H       
  34 H34           -0.4527    -0.2298     2.0980 H       
  35 H35           -3.1723     1.9669     1.1212 H       
  36 H36           -1.7078     1.8056     2.1209 H       
  37 H37           -1.1798     3.2121     0.2008 H       
  38 H38           -1.8275     1.9859    -0.9206 H       
  39 H39           -4.7979     0.7326     1.3279 H       
  40 H40           -6.3142    -0.2925     2.9710 H       
  41 H41           -3.2923    -2.7578     4.3957 H       
  42 H42           -1.6776    -1.8195     2.7948 H       
  43 H43            0.4145     4.0817     0.7708 H       
  44 H44            2.7518     4.7987     0.9517 H       
  45 H45            3.2612     3.7060    -0.4094 H       
  46 H46            1.2098     3.6567    -2.2009 H       
  47 H47           -0.0998     4.7302    -1.5387 H       
  48 H48            2.0945     7.5889    -4.1469 H       
  49 H49            3.6601     7.4789    -6.0268 H       
  50 H50            5.8942     6.5805    -5.7580 H       
@<TRIPOS>BOND
   1    1    2 1
   2    1   13 am
   3    1    6 1
   4    2    3 1
   5    2   31 1
   6    2   32 1
   7    3    4 1
   8    3   33 1
   9    3   34 1
  10    4    5 1
  11    4    7 1
  12    5    6 1
  13    5   35 1
  14    5   36 1
  15    6   37 1
  16    6   38 1
  17    7    8 ar
  18    7   12 ar
  19    8    9 ar
  20    8   39 1
  21    9   10 ar
  22    9   40 1
  23   10   11 ar
  24   11   12 ar
  25   11   41 1
  26   12   42 1
  27   13   14 1
  28   13   15 2
  29   14   16 1
  30   14   18 1
  31   14   43 1
  32   16   17 1
  33   16   44 1
  34   16   45 1
  35   17   18 1
  36   17   19 am
  37   18   46 1
  38   18   47 1
  39   19   20 1
  40   19   26 2
  41   19   27 2
  42   20   21 ar
  43   20   25 ar
  44   21   22 ar
  45   21   48 1
  46   22   23 ar
  47   22   49 1
  48   23   24 ar
  49   23   50 1
  50   24   25 ar
  51   24   28 2
  52   25   30 2
  53   28   29 1
  54   29   30 1

#	End of record

