#	Name: ASD01882865
#	Creating user name:	WinNT
#	Creation time:	15. 06. 2019 19:45

#	Modifying user name:	WinNT
#	Modification time:	15. 06. 2019 19:45

#	Program:	/corina/corina34_cracker 3.40 0067  02.08.2006

@<TRIPOS>MOLECULE
ASD01882865
  35   36    0    0    0
SMALL
NO_CHARGES


@<TRIPOS>ATOM
   1 C1            -0.0167     1.3833     0.0096 C.ar    
   2 C2             0.0021    -0.0041     0.0020 C.ar    
   3 C3             1.2081    -0.6771    -0.0131 C.ar    
   4 C4             2.3962     0.0305    -0.0202 C.ar    
   5 C5             2.3801     1.4128    -0.0126 C.ar    
   6 C6             1.1763     2.0908     0.0021 C.ar    
   7 O7            -1.2021     2.0479     0.0189 O.3     
   8 C8             1.2293    -2.1840    -0.0214 C.3     
   9 C9             1.3759    -2.6999     1.4115 C.3     
  10 C10            3.7106    -0.7064    -0.0357 C.3     
  11 C11            4.4969    -0.3204    -1.2901 C.3     
  12 C12            5.8314    -1.0686    -1.3059 C.3     
  13 C13            6.6402    -0.6952    -0.0619 C.3     
  14 C14            5.8538    -1.0812     1.1925 C.3     
  15 C15            4.5194    -0.3330     1.2082 C.3     
  16 H16           -0.9255    -0.5572     0.0083 H       
  17 H17            3.3093     1.9633    -0.0182 H       
  18 H18            1.1643     3.1708     0.0076 H       
  19 H19           -1.5410     2.2354     0.9049 H       
  20 H20            0.2990    -2.5581    -0.4489 H       
  21 H21            2.0704    -2.5322    -0.6208 H       
  22 H22            1.3912    -3.7897     1.4055 H       
  23 H23            2.3061    -2.3258     1.8390 H       
  24 H24            0.5347    -2.3516     2.0109 H       
  25 H25            3.5249    -1.7805    -0.0395 H       
  26 H26            3.9208    -0.5864    -2.1763 H       
  27 H27            4.6826     0.7537    -1.2864 H       
  28 H28            5.6458    -2.1426    -1.3096 H       
  29 H29            6.3916    -0.7936    -2.1995 H       
  30 H30            7.5909    -1.2282    -0.0731 H       
  31 H31            6.8259     0.3789    -0.0582 H       
  32 H32            5.6682    -2.1553     1.1887 H       
  33 H33            6.4300    -0.8152     2.0787 H       
  34 H34            4.7050     0.7411     1.2120 H       
  35 H35            3.9592    -0.6080     2.1019 H       
@<TRIPOS>BOND
   1    1    2 ar
   2    1    6 ar
   3    1    7 1
   4    2    3 ar
   5    2   16 1
   6    3    4 ar
   7    3    8 1
   8    4    5 ar
   9    4   10 1
  10    5    6 ar
  11    5   17 1
  12    6   18 1
  13    7   19 1
  14    8    9 1
  15    8   20 1
  16    8   21 1
  17    9   22 1
  18    9   23 1
  19    9   24 1
  20   10   11 1
  21   10   15 1
  22   10   25 1
  23   11   12 1
  24   11   26 1
  25   11   27 1
  26   12   13 1
  27   12   28 1
  28   12   29 1
  29   13   14 1
  30   13   30 1
  31   13   31 1
  32   14   15 1
  33   14   32 1
  34   14   33 1
  35   15   34 1
  36   15   35 1

#	End of record

