#	Name: ASD01412094
#	Creating user name:	WinNT
#	Creation time:	15. 06. 2019 19:20

#	Modifying user name:	WinNT
#	Modification time:	15. 06. 2019 19:20

#	Program:	/corina/corina34_cracker 3.40 0067  02.08.2006

@<TRIPOS>MOLECULE
ASD01412094
  84   90    0    0    0
SMALL
NO_CHARGES


@<TRIPOS>ATOM
   1 C1             1.3377     3.8316    -2.6728 C.ar    
   2 C2             0.7026     2.5585    -2.6977 C.ar    
   3 C3            -0.5260     2.7234    -3.3634 C.2     
   4 C4            -0.6124     4.0168    -3.7214 C.2     
   5 N5             0.4875     4.7219    -3.2634 N.pl3   
   6 C6            -1.6158     4.7375    -4.5346 C.2     
   7 C7            -1.2171     5.6295    -5.4871 C.2     
   8 C8             0.2229     5.8450    -5.8375 C.3     
   9 C9             0.9944     6.6583    -4.7803 C.3     
  10 C10            0.5853     6.1658    -3.3862 C.3     
  11 C11           -3.0635     4.7217    -4.5450 C.2     
  12 C12           -3.4239     5.6399    -5.4661 C.2     
  13 O13           -2.3161     6.1882    -5.9994 O.3     
  14 C14           -1.5521     1.6515    -3.6266 C.3     
  15 C15           -0.9246     0.5415    -4.4721 C.3     
  16 C16           -1.9663    -0.5468    -4.7394 C.3     
  17 C17           -2.4480    -1.1294    -3.4091 C.3     
  18 C18           -3.0755    -0.0193    -2.5636 C.3     
  19 C19           -2.0337     1.0689    -2.2964 C.3     
  20 C20            2.5939     3.9857    -2.1031 C.ar    
  21 C21            3.1863     2.8416    -1.5544 C.ar    
  22 C22            2.5459     1.5971    -1.5709 C.ar    
  23 C23            1.3096     1.4267    -2.1309 C.ar    
  24 C24            4.5235     2.9510    -0.9421 C.2     
  25 N25            5.1114     1.8619    -0.4084 N.am    
  26 O26            5.0957     4.0237    -0.9187 O.2     
  27 C27            6.4854     1.9430     0.0934 C.3     
  28 C28            6.5680     2.9512     1.2104 C.2     
  29 C29            6.9473     0.5593     0.5952 C.3     
  30 C30            7.7102    -0.0463    -0.6091 C.3     
  31 C31            8.4492     1.1811    -1.1977 C.3     
  32 C32            7.4402     2.3396    -1.0463 C.3     
  33 N33            5.5654     3.0486     2.1058 N.am    
  34 O34            7.5367     3.6750     1.3036 O.2     
  35 C35            5.5716     4.0744     3.0508 C.ar    
  36 C36            5.0284     3.8575     4.3136 C.ar    
  37 C37            5.0327     4.8665     5.2493 C.ar    
  38 C38            5.5846     6.1128     4.9292 C.ar    
  39 C39            6.1299     6.3264     3.6574 C.ar    
  40 C40            6.1260     5.3099     2.7299 C.ar    
  41 C41            5.5910     7.1935     5.9248 C.2     
  42 C42            6.1241     8.3954     5.6137 C.2     
  43 C43            6.1303     9.4381     6.5743 C.2     
  44 O44            5.6557     9.2507     7.6786 O.2     
  45 O45            6.6627    10.6384     6.2637 O.3     
  46 H46            0.7042     4.8735    -5.9507 H       
  47 H47            0.2758     6.3714    -6.7905 H       
  48 H48            2.0660     6.5147    -4.9189 H       
  49 H49            0.7487     7.7154    -4.8814 H       
  50 H50           -0.3827     6.6003    -3.1365 H       
  51 H51            1.3181     6.5253    -2.6638 H       
  52 H52           -3.7161     4.1057    -3.9441 H       
  53 H53           -4.4391     5.8938    -5.7332 H       
  54 H54           -2.3981     2.0821    -4.1622 H       
  55 H55           -0.5815     0.9565    -5.4198 H       
  56 H56           -0.0786     0.1109    -3.9365 H       
  57 H57           -2.8124    -0.1162    -5.2750 H       
  58 H58           -1.5193    -1.3376    -5.3418 H       
  59 H59           -3.1902    -1.9047    -3.5995 H       
  60 H60           -1.6020    -1.5600    -2.8735 H       
  61 H61           -3.9215     0.4113    -3.0992 H       
  62 H62           -3.4186    -0.4344    -1.6159 H       
  63 H63           -1.1877     0.6383    -1.7607 H       
  64 H64           -2.4807     1.8597    -1.6940 H       
  65 H65            3.0917     4.9439    -2.0841 H       
  66 H66            3.0425     0.7462    -1.1284 H       
  67 H67            0.8217     0.4632    -2.1370 H       
  68 H68            4.6248     1.0244    -0.3564 H       
  69 H69            7.6116     0.6667     1.4527 H       
  70 H70            6.0877    -0.0596     0.8525 H       
  71 H71            8.4214    -0.8019    -0.2754 H       
  72 H72            7.0144    -0.4638    -1.3368 H       
  73 H73            9.3560     1.3890    -0.6298 H       
  74 H74            8.6857     1.0160    -2.2489 H       
  75 H75            6.8812     2.4714    -1.9728 H       
  76 H76            7.9646     3.2607    -0.7919 H       
  77 H77            4.8396     2.4053     2.0930 H       
  78 H78            4.6026     2.8959     4.5595 H       
  79 H79            4.6107     4.6974     6.2290 H       
  80 H80            6.5563     7.2863     3.4060 H       
  81 H81            6.5467     5.4736     1.7487 H       
  82 H82            5.1697     7.0271     6.9052 H       
  83 H83            6.5454     8.5618     4.6333 H       
  84 H84            6.6211    11.2848     6.9817 H       
@<TRIPOS>BOND
   1    1    2 ar
   2    1   20 ar
   3    1    5 1
   4    2    3 1
   5    2   23 ar
   6    3    4 2
   7    3   14 1
   8    4    5 1
   9    4    6 1
  10    5   10 1
  11    6    7 2
  12    6   11 1
  13    7    8 1
  14    7   13 1
  15    8    9 1
  16    8   46 1
  17    8   47 1
  18    9   10 1
  19    9   48 1
  20    9   49 1
  21   10   50 1
  22   10   51 1
  23   11   12 2
  24   11   52 1
  25   12   13 1
  26   12   53 1
  27   14   15 1
  28   14   19 1
  29   14   54 1
  30   15   16 1
  31   15   55 1
  32   15   56 1
  33   16   17 1
  34   16   57 1
  35   16   58 1
  36   17   18 1
  37   17   59 1
  38   17   60 1
  39   18   19 1
  40   18   61 1
  41   18   62 1
  42   19   63 1
  43   19   64 1
  44   20   21 ar
  45   20   65 1
  46   21   22 ar
  47   21   24 1
  48   22   23 ar
  49   22   66 1
  50   23   67 1
  51   24   25 am
  52   24   26 2
  53   25   27 1
  54   25   68 1
  55   27   28 1
  56   27   29 1
  57   27   32 1
  58   28   33 am
  59   28   34 2
  60   29   30 1
  61   29   69 1
  62   29   70 1
  63   30   31 1
  64   30   71 1
  65   30   72 1
  66   31   32 1
  67   31   73 1
  68   31   74 1
  69   32   75 1
  70   32   76 1
  71   33   35 1
  72   33   77 1
  73   35   36 ar
  74   35   40 ar
  75   36   37 ar
  76   36   78 1
  77   37   38 ar
  78   37   79 1
  79   38   39 ar
  80   38   41 1
  81   39   40 ar
  82   39   80 1
  83   40   81 1
  84   41   42 2
  85   41   82 1
  86   42   43 1
  87   42   83 1
  88   43   44 2
  89   43   45 1
  90   45   84 1

#	End of record

