#	Name: ASD00071071
#	Creating user name:	WinNT
#	Creation time:	15. 06. 2019 18:30

#	Modifying user name:	WinNT
#	Modification time:	15. 06. 2019 18:30

#	Program:	/corina/corina34_cracker 3.40 0067  02.08.2006

@<TRIPOS>MOLECULE
ASD00071071
  40   41    0    0    0
SMALL
NO_CHARGES


@<TRIPOS>ATOM
   1 N1            -0.0178     1.4648     0.0101 N.3     
   2 C2             0.0021    -0.0041     0.0020 C.3     
   3 C3            -1.4117    -0.5257     0.0127 C.ar    
   4 C4            -2.1435    -0.5636    -1.1597 C.ar    
   5 C5            -3.4402    -1.0419    -1.1499 C.ar    
   6 C6            -4.0053    -1.4830     0.0323 C.ar    
   7 C7            -3.2735    -1.4460     1.2042 C.ar    
   8 C8            -1.9749    -0.9715     1.1935 C.ar    
   9 N9            -1.5384    -0.0914    -2.4254 N.pl3   
  10 O10           -2.1830    -0.1248    -3.4582 O.2     
  11 O11           -0.3958     0.3305    -2.4339 O.2     
  12 C12            1.3463     2.0098    -0.0000 C.3     
  13 C13            1.2856     3.5156     0.0087 C.ar    
  14 C14            1.2692     4.2029     1.2125 C.ar    
  15 C15            1.2132     5.5895     1.2179 C.ar    
  16 C16            1.1740     6.2851     0.0246 C.ar    
  17 C17            1.1903     5.6023    -1.1766 C.ar    
  18 C18            1.2520     4.2160    -1.1873 C.ar    
  19 O19            1.2736     3.5453    -2.3690 O.3     
  20 C20            1.2365     4.3313    -3.5618 C.3     
  21 O21            1.3073     3.5193     2.3864 O.3     
  22 C22            1.2873     4.2922     3.5882 C.3     
  23 H23           -0.5563     1.8234    -0.7642 H       
  24 H24            0.5123    -0.3556    -0.8948 H       
  25 H25            0.5293    -0.3651     0.8851 H       
  26 H26           -4.0120    -1.0709    -2.0656 H       
  27 H27           -5.0188    -1.8561     0.0401 H       
  28 H28           -3.7151    -1.7901     2.1277 H       
  29 H29           -1.4018    -0.9460     2.1086 H       
  30 H30            1.8828     1.6627     0.8830 H       
  31 H31            1.8658     1.6723    -0.8968 H       
  32 H32            1.2000     6.1253     2.1555 H       
  33 H33            1.1302     7.3642     0.0308 H       
  34 H34            1.1596     6.1482    -2.1079 H       
  35 H35            0.3218     4.9240    -3.5781 H       
  36 H36            2.1003     4.9956    -3.5862 H       
  37 H37            1.2590     3.6739    -4.4310 H       
  38 H38            2.1517     4.9560     3.6076 H       
  39 H39            0.3732     4.8849     3.6239 H       
  40 H40            1.3219     3.6254     4.4497 H       
@<TRIPOS>BOND
   1    1    2 1
   2    1   12 1
   3    1   23 1
   4    2    3 1
   5    2   24 1
   6    2   25 1
   7    3    4 ar
   8    3    8 ar
   9    4    5 ar
  10    4    9 1
  11    5    6 ar
  12    5   26 1
  13    6    7 ar
  14    6   27 1
  15    7    8 ar
  16    7   28 1
  17    8   29 1
  18    9   10 2
  19    9   11 2
  20   12   13 1
  21   12   30 1
  22   12   31 1
  23   13   14 ar
  24   13   18 ar
  25   14   15 ar
  26   14   21 1
  27   15   16 ar
  28   15   32 1
  29   16   17 ar
  30   16   33 1
  31   17   18 ar
  32   17   34 1
  33   18   19 1
  34   19   20 1
  35   20   35 1
  36   20   36 1
  37   20   37 1
  38   21   22 1
  39   22   38 1
  40   22   39 1
  41   22   40 1

#	End of record

