#	Name: ASD01916093
#	Creating user name:	WinNT
#	Creation time:	15. 06. 2019 20:06

#	Modifying user name:	WinNT
#	Modification time:	15. 06. 2019 20:06

#	Program:	/corina/corina34_cracker 3.40 0067  02.08.2006

@<TRIPOS>MOLECULE
ASD01916093
  42   44    0    0    0
SMALL
NO_CHARGES


@<TRIPOS>ATOM
   1 C1            -0.0169     1.3974     0.0097 C.ar    
   2 C2             0.0021    -0.0041     0.0020 C.ar    
   3 C3            -1.2070    -0.6758     0.0100 C.ar    
   4 C4            -2.3852     0.0497     0.0252 C.ar    
   5 C5            -3.7040    -0.6796     0.0339 C.3     
   6 C6             1.2059     2.1426     0.0021 C.1     
   7 C7             2.2084     2.7535    -0.0042 C.1     
   8 C8             3.4313     3.4986    -0.0119 C.ar    
   9 C9             3.4210     4.9004    -0.0043 C.ar    
  10 C10            4.6218     5.5776    -0.0122 C.ar    
  11 N11           -2.3736     1.3688     0.0326 N.ar    
  12 C12           -1.2497     2.0548     0.0192 C.ar    
  13 C13            4.6719     2.8470    -0.0214 C.ar    
  14 N14            5.7688     4.9250    -0.0267 N.ar    
  15 C15           -3.6034    -1.9652    -0.7571 C.2     
  16 N16           -4.1815    -2.9716    -0.0791 N.am    
  17 C17           -4.7315    -2.5063     1.1996 C.3     
  18 C18           -4.0570    -1.1424     1.4665 C.3     
  19 C19           -4.2537    -4.3551    -0.5555 C.3     
  20 O20           -3.0782    -2.0720    -1.8451 O.2     
  21 C21            5.8251     3.6054    -0.0286 C.ar    
  22 Cl22           7.3703     2.8143    -0.0405 Cl      
  23 C23           -6.2481    -2.3350     1.0926 C.3     
  24 C24           -4.3867    -3.4948     2.3153 C.3     
  25 H25            0.9365    -0.5454    -0.0102 H       
  26 H26           -1.2312    -1.7555     0.0041 H       
  27 H27           -4.4928    -0.0444    -0.3692 H       
  28 H28            2.4866     5.4417     0.0072 H       
  29 H29            4.6239     6.6576    -0.0067 H       
  30 H30           -1.2809     3.1343     0.0262 H       
  31 H31            4.7249     1.7683    -0.0227 H       
  32 H32           -3.1575    -1.2636     2.0700 H       
  33 H33           -4.7523    -0.4494     1.9401 H       
  34 H34           -3.7705    -4.4296    -1.5297 H       
  35 H35           -3.7464    -5.0102     0.1527 H       
  36 H36           -5.2979    -4.6549    -0.6440 H       
  37 H37           -6.7068    -3.2962     0.8604 H       
  38 H38           -6.6397    -1.9649     2.0401 H       
  39 H39           -6.4783    -1.6220     0.3009 H       
  40 H40           -3.3041    -3.5998     2.3860 H       
  41 H41           -4.7785    -3.1246     3.2626 H       
  42 H42           -4.8319    -4.4644     2.0921 H       
@<TRIPOS>BOND
   1    1    2 ar
   2    1    6 1
   3    1   12 ar
   4    2    3 ar
   5    2   25 1
   6    3    4 ar
   7    3   26 1
   8    4   11 ar
   9    4    5 1
  10    5   15 1
  11    5   18 1
  12    5   27 1
  13    6    7 3
  14    7    8 1
  15    8    9 ar
  16    8   13 ar
  17    9   10 ar
  18    9   28 1
  19   10   14 ar
  20   10   29 1
  21   11   12 ar
  22   12   30 1
  23   13   21 ar
  24   13   31 1
  25   14   21 ar
  26   15   16 am
  27   15   20 2
  28   16   17 1
  29   16   19 1
  30   17   18 1
  31   17   23 1
  32   17   24 1
  33   18   32 1
  34   18   33 1
  35   19   34 1
  36   19   35 1
  37   19   36 1
  38   21   22 1
  39   23   37 1
  40   23   38 1
  41   23   39 1
  42   24   40 1
  43   24   41 1
  44   24   42 1

#	End of record

