#	Name: ASD03090069
#	Creating user name:	WinNT
#	Creation time:	15. 06. 2019 20:28

#	Modifying user name:	WinNT
#	Modification time:	15. 06. 2019 20:28

#	Program:	/corina/corina34_cracker 3.40 0067  02.08.2006

@<TRIPOS>MOLECULE
ASD03090069
  40   42    0    0    0
SMALL
NO_CHARGES


@<TRIPOS>ATOM
   1 C1            -0.0338     1.4136     0.1111 C.2     
   2 C2             0.0301    -0.0267    -0.1485 C.2     
   3 C3             1.2485    -0.6357    -0.3581 C.2     
   4 O4             0.9742     2.0918     0.0315 O.2     
   5 C5            -1.3238     2.0449     0.4640 C.ar    
   6 C6            -2.2818     1.3277     1.1828 C.ar    
   7 C7            -3.4830     1.9224     1.5086 C.ar    
   8 C8            -3.7394     3.2269     1.1246 C.ar    
   9 C9            -2.7941     3.9433     0.4120 C.ar    
  10 C10           -1.5865     3.3624     0.0847 C.ar    
  11 O11           -2.2099    -0.7234    -1.0790 O.3     
  12 N12           -3.0921    -1.5162    -0.8454 N.2     
  13 C13           -2.8280    -2.2449     0.2029 C.2     
  14 C14           -1.5745    -1.8203     0.6835 C.2     
  15 C15           -1.2090    -0.8247    -0.1856 C.2     
  16 C16           -3.6955    -3.3302     0.7866 C.3     
  17 N17            1.3078    -1.9726    -0.5991 N.pl3   
  18 C18            2.5445    -2.5907    -0.8119 C.ar    
  19 C19            2.6055    -3.9565    -1.0581 C.ar    
  20 C20            3.8266    -4.5658    -1.2679 C.ar    
  21 C21            4.9924    -3.8145    -1.2325 C.ar    
  22 C22            4.9324    -2.4504    -0.9862 C.ar    
  23 C23            3.7117    -1.8382    -0.7827 C.ar    
  24 O24            6.1944    -4.4154    -1.4388 O.3     
  25 H25            2.1562    -0.0511    -0.3310 H       
  26 H26           -2.0831     0.3094     1.4827 H       
  27 H27           -4.2252     1.3686     2.0644 H       
  28 H28           -4.6816     3.6877     1.3820 H       
  29 H29           -3.0006     4.9609     0.1150 H       
  30 H30           -0.8476     3.9243    -0.4673 H       
  31 H31           -1.0283    -2.1920     1.5379 H       
  32 H32           -3.4397    -4.2855     0.3284 H       
  33 H33           -3.5309    -3.3876     1.8626 H       
  34 H34           -4.7433    -3.1024     0.5910 H       
  35 H35            0.4926    -2.4976    -0.6235 H       
  36 H36            1.6982    -4.5416    -1.0851 H       
  37 H37            3.8743    -5.6276    -1.4594 H       
  38 H38            5.8405    -1.8665    -0.9580 H       
  39 H39            3.6648    -0.7756    -0.5957 H       
  40 H40            6.4699    -4.4361    -2.3655 H       
@<TRIPOS>BOND
   1    1    2 1
   2    1    4 2
   3    1    5 1
   4    2    3 2
   5    2   15 1
   6    3   17 1
   7    3   25 1
   8    5    6 ar
   9    5   10 ar
  10    6    7 ar
  11    6   26 1
  12    7    8 ar
  13    7   27 1
  14    8    9 ar
  15    8   28 1
  16    9   10 ar
  17    9   29 1
  18   10   30 1
  19   11   12 1
  20   11   15 1
  21   12   13 2
  22   13   14 1
  23   13   16 1
  24   14   15 2
  25   14   31 1
  26   16   32 1
  27   16   33 1
  28   16   34 1
  29   17   18 1
  30   17   35 1
  31   18   19 ar
  32   18   23 ar
  33   19   20 ar
  34   19   36 1
  35   20   21 ar
  36   20   37 1
  37   21   22 ar
  38   21   24 1
  39   22   23 ar
  40   22   38 1
  41   23   39 1
  42   24   40 1

#	End of record

