#	Name: ASD02198429
#	Creating user name:	WinNT
#	Creation time:	15. 06. 2019 20:19

#	Modifying user name:	WinNT
#	Modification time:	15. 06. 2019 20:19

#	Program:	/corina/corina34_cracker 3.40 0067  02.08.2006

@<TRIPOS>MOLECULE
ASD02198429
  36   38    0    0    0
SMALL
NO_CHARGES


@<TRIPOS>ATOM
   1 C1             0.1691     1.8699     0.1939 C.ar    
   2 S2             0.0782     0.1165     0.0461 S.o2    
   3 N3             0.0238    -0.5027     1.5810 N.am    
   4 C4            -1.0183    -0.1515     2.4378 C.ar    
   5 C5            -0.7756     0.0139     3.8197 C.ar    
   6 C6            -1.8486     0.3715     4.6724 C.ar    
   7 C7            -3.1330     0.5558     4.1377 C.ar    
   8 C8            -3.3419     0.3878     2.7872 C.ar    
   9 C9            -2.2872     0.0413     1.9402 C.ar    
  10 N10            0.4471    -0.1627     4.3277 N.ar    
  11 C11            0.6822    -0.0119     5.6084 C.ar    
  12 C12           -0.3273     0.3389     6.5023 C.ar    
  13 C13           -1.6005     0.5350     6.0491 C.ar    
  14 O14           -1.1803    -0.1715    -0.5476 O.2     
  15 O15            1.3154    -0.3038    -0.5125 O.2     
  16 C16            1.4005     2.4939     0.2687 C.ar    
  17 O17           -4.5866     0.5668     2.2722 O.3     
  18 C18           -5.6223     0.9266     3.1886 C.3     
  19 C19            1.4730     3.8691     0.3842 C.ar    
  20 C20            0.3118     4.6220     0.4251 C.ar    
  21 C21           -0.9210     3.9960     0.3501 C.ar    
  22 C22           -0.9909     2.6211     0.2293 C.ar    
  23 F23            0.3814     5.9665     0.5384 F       
  24 H24            0.7171    -1.1098     1.8840 H       
  25 H25           -3.9548     0.8281     4.7833 H       
  26 H26           -2.4709    -0.0856     0.8835 H       
  27 H27            1.6846    -0.1640     5.9804 H       
  28 H28           -0.1031     0.4559     7.5523 H       
  29 H29           -2.3953     0.8072     6.7277 H       
  30 H30            2.3061     1.9063     0.2372 H       
  31 H31           -5.3675     1.8691     3.6731 H       
  32 H32           -6.5626     1.0382     2.6486 H       
  33 H33           -5.7269     0.1468     3.9430 H       
  34 H34            2.4351     4.3563     0.4430 H       
  35 H35           -1.8274     4.5823     0.3819 H       
  36 H36           -1.9523     2.1326     0.1708 H       
@<TRIPOS>BOND
   1    1    2 1
   2    1   16 ar
   3    1   22 ar
   4    2    3 am
   5    2   14 2
   6    2   15 2
   7    3    4 1
   8    3   24 1
   9    4    5 ar
  10    4    9 ar
  11    5    6 ar
  12    5   10 ar
  13    6    7 ar
  14    6   13 ar
  15    7    8 ar
  16    7   25 1
  17    8    9 ar
  18    8   17 1
  19    9   26 1
  20   10   11 ar
  21   11   12 ar
  22   11   27 1
  23   12   13 ar
  24   12   28 1
  25   13   29 1
  26   16   19 ar
  27   16   30 1
  28   17   18 1
  29   18   31 1
  30   18   32 1
  31   18   33 1
  32   19   20 ar
  33   19   34 1
  34   20   21 ar
  35   20   23 1
  36   21   22 ar
  37   21   35 1
  38   22   36 1

#	End of record

