#	Name: ASD01883432
#	Creating user name:	WinNT
#	Creation time:	15. 06. 2019 19:46

#	Modifying user name:	WinNT
#	Modification time:	15. 06. 2019 19:46

#	Program:	/corina/corina34_cracker 3.40 0067  02.08.2006

@<TRIPOS>MOLECULE
ASD01883432
  55   56    0    0    0
SMALL
NO_CHARGES


@<TRIPOS>ATOM
   1 N1             0.3153     1.3251     0.1754 N.ar    
   2 N2             3.3833    -9.0052    -5.7232 N.am    
   3 C3             3.1728    -9.5201    -4.4976 C.2     
   4 C4             2.6473    -8.7023    -3.4694 C.2     
   5 C5             2.3557    -7.3585    -3.7586 C.2     
   6 C6             2.5977    -6.8787    -5.0592 C.2     
   7 C7             3.1057    -7.7044    -5.9999 C.2     
   8 O8             3.4343   -10.6899    -4.2736 O.2     
   9 C9             2.4167    -9.2338    -2.1599 C.1     
  10 N10            1.8427    -6.5274    -2.7883 N.pl3   
  11 C11            0.5027    -5.9431    -2.9352 C.3     
  12 C12            0.6072    -4.4232    -2.7741 C.3     
  13 C13            1.2909    -4.1011    -1.4434 C.3     
  14 C14            2.7053    -4.6856    -1.4400 C.3     
  15 C15            2.6224    -6.2129    -1.5834 C.3     
  16 C16            3.9284    -9.8630    -6.7783 C.3     
  17 C17            2.7799   -10.5358    -7.5327 C.3     
  18 C18            3.3491   -11.4317    -8.6346 C.3     
  19 C19            2.2006   -12.1046    -9.3890 C.3     
  20 O20            1.3611    -2.6838    -1.2750 O.3     
  21 C21            1.3259    -2.2581     0.0887 C.3     
  22 C22            1.4054    -0.7543     0.1477 C.ar    
  23 C23            0.2536     0.0087     0.1241 C.ar    
  24 C24            1.4669     1.9629     0.2501 C.ar    
  25 C25            2.6605     1.2663     0.2771 C.ar    
  26 C26            2.6356    -0.1188     0.2249 C.ar    
  27 N27            2.2338    -9.6555    -1.1210 N.1     
  28 H28            2.3808    -5.8494    -5.3042 H       
  29 H29            3.2876    -7.3248    -6.9945 H       
  30 H30            0.1072    -6.1795    -3.9230 H       
  31 H31           -0.1582    -6.3472    -2.1684 H       
  32 H32            1.1943    -4.0100    -3.5942 H       
  33 H33           -0.3915    -3.9867    -2.7850 H       
  34 H34            0.7165    -4.5358    -0.6254 H       
  35 H35            3.2727    -4.2699    -2.2727 H       
  36 H36            3.2000    -4.4358    -0.5014 H       
  37 H37            2.1348    -6.6363    -0.7053 H       
  38 H38            3.6264    -6.6258    -1.6811 H       
  39 H39            4.5138    -9.2589    -7.4715 H       
  40 H40            4.5667   -10.6259    -6.3327 H       
  41 H41            2.1944   -11.1399    -6.8395 H       
  42 H42            2.1415    -9.7729    -7.9782 H       
  43 H43            3.9345   -10.8277    -9.3278 H       
  44 H44            3.9874   -12.1947    -8.1891 H       
  45 H45            2.6061   -12.7428   -10.1740 H       
  46 H46            1.6151   -12.7086    -8.6958 H       
  47 H47            1.5622   -11.3416    -9.8345 H       
  48 H48            0.3958    -2.5910     0.5494 H       
  49 H49            2.1715    -2.6880     0.6255 H       
  50 H50           -0.7083    -0.4786     0.0633 H       
  51 H51            1.4777     3.0421     0.2904 H       
  52 H52            3.6006     1.7944     0.3377 H       
  53 H53            3.5523    -0.6894     0.2447 H       
  54 Cl54           9.5667     8.0421     5.6255 Cl      
  55 H55            9.5667     9.4121     5.6255 H       
@<TRIPOS>BOND
   1    1   23 ar
   2    1   24 ar
   3    2    3 am
   4    2   16 1
   5    2    7 1
   6    3    4 1
   7    3    8 2
   8    4    5 2
   9    4    9 1
  10    5    6 1
  11    5   10 1
  12    6    7 2
  13    6   28 1
  14    7   29 1
  15    9   27 3
  16   10   11 1
  17   10   15 1
  18   11   12 1
  19   11   30 1
  20   11   31 1
  21   12   13 1
  22   12   32 1
  23   12   33 1
  24   13   14 1
  25   13   20 1
  26   13   34 1
  27   14   15 1
  28   14   35 1
  29   14   36 1
  30   15   37 1
  31   15   38 1
  32   16   17 1
  33   16   39 1
  34   16   40 1
  35   17   18 1
  36   17   41 1
  37   17   42 1
  38   18   19 1
  39   18   43 1
  40   18   44 1
  41   19   45 1
  42   19   46 1
  43   19   47 1
  44   20   21 1
  45   21   22 1
  46   21   48 1
  47   21   49 1
  48   22   23 ar
  49   22   26 ar
  50   23   50 1
  51   24   25 ar
  52   24   51 1
  53   25   26 ar
  54   25   52 1
  55   26   53 1
  56   54   55 1

#	End of record

