#	Name: ASD03540401
#	Creating user name:	WinNT
#	Creation time:	15. 06. 2019 20:43

#	Modifying user name:	WinNT
#	Modification time:	15. 06. 2019 20:43

#	Program:	/corina/corina34_cracker 3.40 0067  02.08.2006

@<TRIPOS>MOLECULE
ASD03540401
  46   49    0    0    0
SMALL
NO_CHARGES


@<TRIPOS>ATOM
   1 C1            -0.0161     1.3389     0.0094 C.2     
   2 N2             0.0021    -0.0041     0.0020 N.am    
   3 C3             1.1966    -0.6965    -0.0126 C.ar    
   4 C4             2.3989     0.0391    -0.0201 C.ar    
   5 C5             2.3225     1.5104    -0.0120 C.2     
   6 N6             1.0995     2.0851     0.0028 N.am    
   7 C7             3.6162    -0.6316    -0.0344 C.ar    
   8 C8             3.5902    -2.0322    -0.0408 C.ar    
   9 C9             2.3557    -2.6901    -0.0326 C.ar    
  10 N10            1.2231    -2.0202    -0.0191 N.ar    
  11 C11            4.8479    -2.8031    -0.0564 C.2     
  12 O12            5.9157    -2.2234    -0.0638 O.2     
  13 O13            4.8125    -4.1500    -0.0624 O.3     
  14 O14            3.3316     2.1886    -0.0176 O.2     
  15 O15           -1.0922     1.9043     0.0175 O.2     
  16 C16            0.9896     3.5459     0.0111 C.3     
  17 C17            0.9652     4.0397     1.4347 C.ar    
  18 C18            2.1477     4.3560     2.0770 C.ar    
  19 C19            2.1253     4.8089     3.3829 C.ar    
  20 C20            0.9203     4.9459     4.0463 C.ar    
  21 C21           -0.2623     4.6304     3.4038 C.ar    
  22 C22           -0.2402     4.1816     2.0965 C.ar    
  23 C23            6.0884    -4.8429    -0.0778 C.3     
  24 C24            5.8518    -6.3312    -0.0826 C.ar    
  25 C25            5.7319    -7.0081    -1.2819 C.ar    
  26 C26            5.5148    -8.3733    -1.2862 C.ar    
  27 C27            5.4181    -9.0616    -0.0913 C.ar    
  28 C28            5.5389    -8.3848     1.1079 C.ar    
  29 C29            5.7603    -7.0203     1.1122 C.ar    
  30 H30           -0.8351    -0.4940     0.0074 H       
  31 H31            4.5510    -0.0909    -0.0408 H       
  32 H32            2.3316    -3.7699    -0.0378 H       
  33 H33            1.8450     3.9776    -0.5085 H       
  34 H34            0.0701     3.8440    -0.4926 H       
  35 H35            3.0891     4.2490     1.5586 H       
  36 H36            3.0492     5.0553     3.8849 H       
  37 H37            0.9028     5.2990     5.0668 H       
  38 H38           -1.2037     4.7371     3.9222 H       
  39 H39           -1.1644     3.9387     1.5932 H       
  40 H40            6.6444    -4.5605    -0.9718 H       
  41 H41            6.6614    -4.5689     0.8080 H       
  42 H42            5.8075    -6.4704    -2.2154 H       
  43 H43            5.4204    -8.9021    -2.2232 H       
  44 H44            5.2478   -10.1281    -0.0948 H       
  45 H45            5.4630    -8.9225     2.0415 H       
  46 H46            5.8584    -6.4921     2.0491 H       
@<TRIPOS>BOND
   1    1    2 am
   2    1    6 am
   3    1   15 2
   4    2    3 1
   5    2   30 1
   6    3    4 ar
   7    3   10 ar
   8    4    5 1
   9    4    7 ar
  10    5    6 am
  11    5   14 2
  12    6   16 1
  13    7    8 ar
  14    7   31 1
  15    8    9 ar
  16    8   11 1
  17    9   10 ar
  18    9   32 1
  19   11   12 2
  20   11   13 1
  21   13   23 1
  22   16   17 1
  23   16   33 1
  24   16   34 1
  25   17   18 ar
  26   17   22 ar
  27   18   19 ar
  28   18   35 1
  29   19   20 ar
  30   19   36 1
  31   20   21 ar
  32   20   37 1
  33   21   22 ar
  34   21   38 1
  35   22   39 1
  36   23   24 1
  37   23   40 1
  38   23   41 1
  39   24   25 ar
  40   24   29 ar
  41   25   26 ar
  42   25   42 1
  43   26   27 ar
  44   26   43 1
  45   27   28 ar
  46   27   44 1
  47   28   29 ar
  48   28   45 1
  49   29   46 1

#	End of record

