#	Name: ASD00710005
#	Creating user name:	WinNT
#	Creation time:	15. 06. 2019 18:37

#	Modifying user name:	WinNT
#	Modification time:	15. 06. 2019 18:37

#	Program:	/corina/corina34_cracker 3.40 0067  02.08.2006

@<TRIPOS>MOLECULE
ASD00710005
  71   75    0    0    0
SMALL
NO_CHARGES


@<TRIPOS>ATOM
   1 O1            -0.0173     1.4248     0.0099 O.3     
   2 C2             0.0021    -0.0041     0.0020 C.3     
   3 C3            -1.4339    -0.5630     0.0127 C.3     
   4 C4            -1.6708    -1.4128    -1.2374 C.3     
   5 O5            -3.0368    -1.8303    -1.2777 O.3     
   6 P6            -3.6404    -2.7424    -2.4592 P.3     
   7 O7            -3.3668    -2.0676    -3.8218 O.co2   
   8 O8            -5.2284    -2.9079    -2.2515 O.3     
   9 P9            -6.4334    -3.4090    -3.1943 P.3     
  10 O10           -6.2347    -2.8905    -4.5662 O.2     
  11 O11           -7.8323    -2.8646    -2.6122 O.3     
  12 C12           -9.0801    -3.0519    -3.2830 C.3     
  13 C13          -10.2018    -2.4144    -2.4607 C.3     
  14 O14          -10.0355    -0.9869    -2.4311 O.3     
  15 C15          -11.3584    -0.4087    -2.4157 C.3     
  16 C16          -12.1542    -1.3002    -3.4027 C.3     
  17 C17          -11.5642    -2.7033    -3.1204 C.3     
  18 O18          -12.4089    -3.4304    -2.2259 O.3     
  19 O19          -13.5520    -1.2659    -3.1074 O.3     
  20 N20          -11.3209     0.9776    -2.8879 N.pl3   
  21 C21          -10.3700     1.5300    -3.6934 C.2     
  22 N22          -10.6477     2.7819    -3.9150 N.2     
  23 C23          -11.7911     3.1116    -3.2676 C.ar    
  24 C24          -12.2397     1.9566    -2.6054 C.ar    
  25 N25          -13.3580     2.0158    -1.8893 N.ar    
  26 C26          -14.0385     3.1388    -1.7995 C.ar    
  27 N27          -13.6566     4.2494    -2.4037 N.ar    
  28 C28          -12.5540     4.2855    -3.1446 C.ar    
  29 N29          -12.1616     5.4541    -3.7736 N.pl3   
  30 O30           -6.4557    -5.0185    -3.2269 O.3     
  31 O31           -2.9694    -4.1338    -2.4296 O.co2   
  32 O32           -1.5667    -1.3774     1.1897 O.3     
  33 C33           -0.6244    -0.8726     2.1601 C.3     
  34 C34            0.6294    -0.5447     1.3100 C.3     
  35 O35            1.4281     0.4563     1.9442 O.3     
  36 N36           -0.3157    -1.8971     3.1608 N.ar    
  37 C37           -0.1938    -3.1529     2.7757 C.ar    
  38 C38            0.0975    -4.1539     3.6853 C.ar    
  39 C39            0.2630    -3.8289     5.0199 C.ar    
  40 C40            0.1275    -2.4875     5.3980 C.ar    
  41 C41           -0.1624    -1.5372     4.4184 C.ar    
  42 C42            0.2936    -2.0842     6.8106 C.2     
  43 O43            0.1738    -0.9169     7.1275 O.2     
  44 N44            0.5779    -3.0110     7.7470 N.am    
  45 H45            0.8606     1.8301     0.0037 H       
  46 H46            0.5484    -0.3725    -0.8662 H       
  47 H47           -2.1508     0.2575     0.0442 H       
  48 H48           -1.4447    -0.8231    -2.1257 H       
  49 H49           -1.0236    -2.2894    -1.2087 H       
  50 H50           -9.0382    -2.5826    -4.2658 H       
  51 H51           -9.2745    -4.1183    -3.3975 H       
  52 H52          -10.1878    -2.8103    -1.4452 H       
  53 H53          -11.7895    -0.4632    -1.4160 H       
  54 H54          -11.9685    -1.0004    -4.4341 H       
  55 H55          -11.4283    -3.2543    -4.0510 H       
  56 H56          -13.2994    -3.5892    -2.5677 H       
  57 H57          -14.0922    -1.8085    -3.6981 H       
  58 H58           -9.5125     1.0060    -4.0890 H       
  59 H59          -14.9432     3.1526    -1.2098 H       
  60 H60          -12.6935     6.2594    -3.6764 H       
  61 H61          -11.3547     5.4678    -4.3118 H       
  62 H62           -6.5825    -5.4277    -2.3600 H       
  63 H63           -1.0106     0.0279     2.6377 H       
  64 H64            1.2152    -1.4436     1.1179 H       
  65 H65            2.2243     0.6955     1.4503 H       
  66 H66           -0.3239    -3.4038     1.7333 H       
  67 H67            0.1943    -5.1783     3.3570 H       
  68 H68            0.4905    -4.5903     5.7513 H       
  69 H69           -0.2698    -0.4988     4.6950 H       
  70 H70            0.6735    -3.9425     7.4941 H       
  71 H71            0.6868    -2.7464     8.6738 H       
@<TRIPOS>BOND
   1    1    2 1
   2    1   45 1
   3    2    3 1
   4    2   34 1
   5    2   46 1
   6    3    4 1
   7    3   32 1
   8    3   47 1
   9    4    5 1
  10    4   48 1
  11    4   49 1
  12    5    6 1
  13    6    7 ar
  14    6    8 1
  15    6   31 ar
  16    8    9 1
  17    9   10 2
  18    9   11 1
  19    9   30 1
  20   11   12 1
  21   12   13 1
  22   12   50 1
  23   12   51 1
  24   13   14 1
  25   13   17 1
  26   13   52 1
  27   14   15 1
  28   15   16 1
  29   15   20 1
  30   15   53 1
  31   16   17 1
  32   16   19 1
  33   16   54 1
  34   17   18 1
  35   17   55 1
  36   18   56 1
  37   19   57 1
  38   20   21 1
  39   20   24 1
  40   21   22 2
  41   21   58 1
  42   22   23 1
  43   23   24 ar
  44   23   28 ar
  45   24   25 ar
  46   25   26 ar
  47   26   27 ar
  48   26   59 1
  49   27   28 ar
  50   28   29 1
  51   29   60 1
  52   29   61 1
  53   30   62 1
  54   32   33 1
  55   33   34 1
  56   33   36 1
  57   33   63 1
  58   34   35 1
  59   34   64 1
  60   35   65 1
  61   36   37 ar
  62   36   41 ar
  63   37   38 ar
  64   37   66 1
  65   38   39 ar
  66   38   67 1
  67   39   40 ar
  68   39   68 1
  69   40   41 ar
  70   40   42 1
  71   41   69 1
  72   42   43 2
  73   42   44 am
  74   44   70 1
  75   44   71 1

#	End of record

