#	Name: ASD01914946
#	Creating user name:	WinNT
#	Creation time:	15. 06. 2019 20:04

#	Modifying user name:	WinNT
#	Modification time:	15. 06. 2019 20:04

#	Program:	/corina/corina34_cracker 3.40 0067  02.08.2006

@<TRIPOS>MOLECULE
ASD01914946
  60   65    0    0    0
SMALL
NO_CHARGES


@<TRIPOS>ATOM
   1 C1            -0.0042     1.3296    -0.0209 C.2     
   2 N2             0.0148     0.0575     0.3181 N.2     
   3 C3             1.3066     1.7205    -0.3419 C.2     
   4 C4             2.1160     0.6340    -0.1829 C.2     
   5 N5             1.3334    -0.4054     0.2255 N.pl3   
   6 C6            -1.2058     2.2001    -0.0629 C.ar    
   7 C7            -2.4548     1.6844     0.2759 C.ar    
   8 C8            -3.5689     2.4983     0.2351 C.ar    
   9 C9            -3.4469     3.8235    -0.1418 C.ar    
  10 C10           -2.2092     4.3406    -0.4792 C.ar    
  11 C11           -1.0876     3.5372    -0.4358 C.ar    
  12 C12            3.5774     0.5910    -0.4125 C.ar    
  13 C13            1.7913    -1.7663     0.5166 C.3     
  14 C14            2.0702    -1.8977     1.9917 C.2     
  15 N15            2.5055    -3.0705     2.4933 N.am    
  16 O16            1.9029    -0.9482     2.7274 O.2     
  17 C17            2.7836    -3.2203     3.9298 C.3     
  18 C18            2.0444    -4.4611     4.4419 C.3     
  19 N19            2.4074    -5.6196     3.6147 N.3     
  20 C20            1.9785    -5.4352     2.2219 C.3     
  21 C21            2.7092    -4.2361     1.6198 C.3     
  22 C22            4.1817     1.5243    -1.2549 C.ar    
  23 C23            5.5447     1.4789    -1.4649 C.ar    
  24 C24            6.3116     0.5105    -0.8421 C.ar    
  25 C25            5.7181    -0.4181    -0.0059 C.ar    
  26 C26            4.3569    -0.3794     0.2171 C.ar    
  27 C27            1.8908    -6.7822     4.1402 C.2     
  28 O28            2.0521    -8.0065     3.6081 O.3     
  29 N29            1.1757    -6.8580     5.2335 N.2     
  30 C30            0.8399    -8.1601     5.4460 C.ar    
  31 C31            1.4070    -8.8977     4.3956 C.ar    
  32 C32            1.2311   -10.2705     4.3445 C.ar    
  33 C33            0.1044    -8.8166     6.4331 C.ar    
  34 C34           -0.0617   -10.1830     6.3665 C.ar    
  35 C35            0.4989   -10.9076     5.3265 C.ar    
  36 H36            1.6178     2.7052    -0.6580 H       
  37 H37           -2.5513     0.6496     0.5697 H       
  38 H38           -4.5376     2.0995     0.4976 H       
  39 H39           -4.3212     4.4567    -0.1731 H       
  40 H40           -2.1194     5.3761    -0.7728 H       
  41 H41           -0.1216     3.9421    -0.6991 H       
  42 H42            1.0189    -2.4791     0.2279 H       
  43 H43            2.7028    -1.9709    -0.0451 H       
  44 H44            3.8556    -3.3430     4.0843 H       
  45 H45            2.4323    -2.3380     4.4648 H       
  46 H46            2.3265    -4.6510     5.4775 H       
  47 H47            0.9689    -4.2943     4.3821 H       
  48 H48            2.2128    -6.3315     1.6475 H       
  49 H49            0.9039    -5.2548     2.1931 H       
  50 H50            2.3113    -4.0256     0.6270 H       
  51 H51            3.7751    -4.4533     1.5517 H       
  52 H52            3.5840     2.2805    -1.7420 H       
  53 H53            6.0138     2.2006    -2.1172 H       
  54 H54            7.3781     0.4791    -1.0096 H       
  55 H55            6.3220    -1.1722     0.4770 H       
  56 H56            3.8948    -1.1047     0.8704 H       
  57 H57            1.6656   -10.8418     3.5375 H       
  58 H58           -0.3328    -8.2563     7.2463 H       
  59 H59           -0.6309   -10.6924     7.1300 H       
  60 H60            0.3622   -11.9781     5.2839 H       
@<TRIPOS>BOND
   1    1    2 2
   2    1    3 1
   3    1    6 1
   4    2    5 1
   5    3    4 2
   6    3   36 1
   7    4    5 1
   8    4   12 1
   9    5   13 1
  10    6    7 ar
  11    6   11 ar
  12    7    8 ar
  13    7   37 1
  14    8    9 ar
  15    8   38 1
  16    9   10 ar
  17    9   39 1
  18   10   11 ar
  19   10   40 1
  20   11   41 1
  21   12   22 ar
  22   12   26 ar
  23   13   14 1
  24   13   42 1
  25   13   43 1
  26   14   15 am
  27   14   16 2
  28   15   17 1
  29   15   21 1
  30   17   18 1
  31   17   44 1
  32   17   45 1
  33   18   19 1
  34   18   46 1
  35   18   47 1
  36   19   20 1
  37   19   27 1
  38   20   21 1
  39   20   48 1
  40   20   49 1
  41   21   50 1
  42   21   51 1
  43   22   23 ar
  44   22   52 1
  45   23   24 ar
  46   23   53 1
  47   24   25 ar
  48   24   54 1
  49   25   26 ar
  50   25   55 1
  51   26   56 1
  52   27   28 1
  53   27   29 2
  54   28   31 1
  55   29   30 1
  56   30   31 ar
  57   30   33 ar
  58   31   32 ar
  59   32   35 ar
  60   32   57 1
  61   33   34 ar
  62   33   58 1
  63   34   35 ar
  64   34   59 1
  65   35   60 1

#	End of record

