#	Name: ASD01814528
#	Creating user name:	WinNT
#	Creation time:	15. 06. 2019 19:32

#	Modifying user name:	WinNT
#	Modification time:	15. 06. 2019 19:32

#	Program:	/corina/corina34_cracker 3.40 0067  02.08.2006

@<TRIPOS>MOLECULE
ASD01814528
  15   15    0    0    0
SMALL
NO_CHARGES


@<TRIPOS>ATOM
   1 C1            -0.0167     1.3821     0.0096 C.ar    
   2 C2             0.0021    -0.0041     0.0020 C.ar    
   3 C3             1.2304    -0.6474    -0.0132 C.ar    
   4 C4             2.3867     0.1092    -0.0201 C.ar    
   5 N5             2.3309     1.4268    -0.0121 N.ar    
   6 C6             1.1810     2.0720     0.0019 C.ar    
   7 C7             3.7272    -0.5794    -0.0366 C.3     
   8 C8             4.5164    -0.0894    -1.1784 C.1     
   9 N9             5.1256     0.2888    -2.0596 N.1     
  10 H10           -0.9554     1.9162     0.0170 H       
  11 H11           -0.9181    -0.5695     0.0081 H       
  12 H12            1.2827    -1.7261    -0.0191 H       
  13 H13            1.1750     3.1519     0.0081 H       
  14 H14            4.2577    -0.3640     0.8909 H       
  15 H15            3.5817    -1.6555    -0.1306 H       
@<TRIPOS>BOND
   1    1    2 ar
   2    1    6 ar
   3    1   10 1
   4    2    3 ar
   5    2   11 1
   6    3    4 ar
   7    3   12 1
   8    4    5 ar
   9    4    7 1
  10    5    6 ar
  11    6   13 1
  12    7    8 1
  13    7   14 1
  14    7   15 1
  15    8    9 3

#	End of record

