#	Name: ASD01410715
#	Creating user name:	WinNT
#	Creation time:	15. 06. 2019 19:18

#	Modifying user name:	WinNT
#	Modification time:	15. 06. 2019 19:18

#	Program:	/corina/corina34_cracker 3.40 0067  02.08.2006

@<TRIPOS>MOLECULE
ASD01410715
  41   40    0    0    0
SMALL
NO_CHARGES


@<TRIPOS>ATOM
   1 N1            -0.0204     1.6518     0.0111 N.am    
   2 C2            -2.9970     3.4648     1.5006 C.3     
   3 S3             0.0021    -0.0041     0.0020 S.o2    
   4 O4             1.2519    -0.3853    -0.5564 O.2     
   5 N5             0.0238    -0.5027     1.5810 N.am    
   6 O6            -1.2472    -0.4194    -0.5328 O.2     
   7 C7            -3.3600     3.8158     2.9449 C.3     
   8 C8            -1.6618     2.7179     1.4775 C.3     
   9 C9            -1.2988     2.3669     0.0333 C.3     
  10 C10            1.2382     2.4014     0.0031 C.3     
  11 N11           -4.6385     4.5309     2.9670 N.am    
  12 C12           -5.1602     4.9425     4.1396 C.2     
  13 O13           -6.3351     5.5997     4.1600 O.3     
  14 O14           -4.5702     4.7204     5.1784 O.2     
  15 C15           -6.8368     6.0130     5.4583 C.3     
  16 C16           -5.8276     6.9544     6.1189 C.3     
  17 C17           -8.1718     6.7392     5.2816 C.3     
  18 C18           -7.0395     4.7810     6.3426 C.3     
  19 H19           -3.7749     2.8315     1.0741 H       
  20 H20           -2.9116     4.3799     0.9148 H       
  21 H21            0.0217     0.1522     2.2965 H       
  22 H22            0.0387    -1.4497     1.7904 H       
  23 H23           -3.4455     2.9006     3.5308 H       
  24 H24           -2.5821     4.4490     3.3714 H       
  25 H25           -0.8839     3.3511     1.9041 H       
  26 H26           -1.7473     1.8027     2.0634 H       
  27 H27           -1.2134     3.2820    -0.5526 H       
  28 H28           -2.0767     1.7337    -0.3933 H       
  29 H29            1.5406     2.5929    -1.0264 H       
  30 H30            1.0999     3.3492     0.5234 H       
  31 H31            2.0107     1.8200     0.5065 H       
  32 H32           -5.1094     4.7082     2.1378 H       
  33 H33           -5.6832     7.8321     5.4890 H       
  34 H34           -6.2043     7.2647     7.0936 H       
  35 H35           -4.8765     6.4370     6.2448 H       
  36 H36           -8.8907     6.0686     4.8110 H       
  37 H37           -8.5484     7.0495     6.2563 H       
  38 H38           -8.0273     7.6170     4.6517 H       
  39 H39           -6.0884     4.2636     6.4684 H       
  40 H40           -7.4161     5.0913     7.3172 H       
  41 H41           -7.7584     4.1103     5.8719 H       
@<TRIPOS>BOND
   1    1    3 am
   2    1   10 1
   3    1    9 1
   4    2    7 1
   5    2    8 1
   6    2   19 1
   7    2   20 1
   8    3    4 2
   9    3    5 am
  10    3    6 2
  11    5   21 1
  12    5   22 1
  13    7   11 1
  14    7   23 1
  15    7   24 1
  16    8    9 1
  17    8   25 1
  18    8   26 1
  19    9   27 1
  20    9   28 1
  21   10   29 1
  22   10   30 1
  23   10   31 1
  24   11   12 am
  25   11   32 1
  26   12   13 1
  27   12   14 2
  28   13   15 1
  29   15   16 1
  30   15   17 1
  31   15   18 1
  32   16   33 1
  33   16   34 1
  34   16   35 1
  35   17   36 1
  36   17   37 1
  37   17   38 1
  38   18   39 1
  39   18   40 1
  40   18   41 1

#	End of record

