#	Name: ASD01901563
#	Creating user name:	WinNT
#	Creation time:	15. 06. 2019 19:54

#	Modifying user name:	WinNT
#	Modification time:	15. 06. 2019 19:54

#	Program:	/corina/corina34_cracker 3.40 0067  02.08.2006

@<TRIPOS>MOLECULE
ASD01901563
  31   34    0    0    0
SMALL
NO_CHARGES


@<TRIPOS>ATOM
   1 C1             1.1674     1.7208     0.3181 C.3     
   2 N2             0.9899     0.2723     0.1899 N.pl3   
   3 N3             1.0776    -0.4647    -0.9973 N.2     
   4 C4             0.8668    -1.7248    -0.7502 C.2     
   5 C5             0.6258    -1.8809     0.6364 C.ar    
   6 C6             0.3462    -2.9893     1.4484 C.ar    
   7 Cl7            0.2417    -4.5747     0.7490 Cl      
   8 C8             0.1569    -2.8204     2.7885 C.ar    
   9 C9             0.2387    -1.5510     3.3633 C.ar    
  10 N10            0.0418    -1.3977     4.7373 N.pl3   
  11 C11           -0.4843    -0.2038     5.2391 C.2     
  12 N12           -0.9277     0.8013     4.5320 N.2     
  13 N13           -1.3770     1.8213     5.3763 N.pl3   
  14 H14           -1.7507     2.6675     5.0846 H       
  15 C15           -1.2074     1.4375     6.6785 C.ar    
  16 N16           -1.4621     2.0174     7.8455 N.ar    
  17 C17           -1.1822     1.3844     8.9675 C.ar    
  18 C18           -0.6218     0.1131     8.9416 C.ar    
  19 N19           -0.3618    -0.4785     7.7936 N.ar    
  20 C20           -0.6442     0.1442     6.6526 C.ar    
  21 C21            0.5140    -0.4436     2.5807 C.ar    
  22 C22            0.7147    -0.5991     1.2130 C.ar    
  23 H23            2.2181     1.9431     0.5041 H       
  24 H24            0.8504     2.2087    -0.6036 H       
  25 H25            0.5656     2.0884     1.1493 H       
  26 H26            0.8744    -2.5197    -1.4814 H       
  27 H27           -0.0587    -3.6765     3.4106 H       
  28 H28            0.2702    -2.1197     5.3435 H       
  29 H29           -1.3901     1.8584     9.9155 H       
  30 H30           -0.3975    -0.3933     9.8689 H       
  31 H31            0.5762     0.5364     3.0302 H       
@<TRIPOS>BOND
   1    1    2 1
   2    1   23 1
   3    1   24 1
   4    1   25 1
   5    2   22 1
   6    2    3 1
   7    3    4 2
   8    4    5 1
   9    4   26 1
  10    5   22 ar
  11    5    6 ar
  12    6    7 1
  13    6    8 ar
  14    8    9 ar
  15    8   27 1
  16    9   10 1
  17    9   21 ar
  18   10   11 1
  19   10   28 1
  20   11   20 1
  21   11   12 2
  22   12   13 1
  23   13   14 1
  24   13   15 1
  25   15   20 ar
  26   15   16 ar
  27   16   17 ar
  28   17   18 ar
  29   17   29 1
  30   18   19 ar
  31   18   30 1
  32   19   20 ar
  33   21   22 ar
  34   21   31 1

#	End of record

