#	Name: ASD01884614
#	Creating user name:	WinNT
#	Creation time:	15. 06. 2019 19:48

#	Modifying user name:	WinNT
#	Modification time:	15. 06. 2019 19:48

#	Program:	/corina/corina34_cracker 3.40 0067  02.08.2006

@<TRIPOS>MOLECULE
ASD01884614
  36   38    0    0    0
SMALL
NO_CHARGES


@<TRIPOS>ATOM
   1 C1            -0.0164     1.3569     0.0095 C.2     
   2 C2             0.0021    -0.0041     0.0020 C.2     
   3 C3             1.2451    -0.6752    -0.0135 C.2     
   4 C4             2.4110     0.0555    -0.0207 C.2     
   5 N5             2.3715     1.4102    -0.0126 N.am    
   6 C6             1.1971     2.0672     0.0017 C.2     
   7 O7             1.1853     3.2874     0.0084 O.2     
   8 C8             3.6243     2.1696    -0.0195 C.3     
   9 C9             1.2931    -2.1566    -0.0214 C.ar    
  10 C10            4.0411     2.4381    -1.4426 C.ar    
  11 C11            3.6114     3.5851    -2.0830 C.ar    
  12 C12            3.9920     3.8334    -3.3888 C.ar    
  13 C13            4.8044     2.9334    -4.0556 C.ar    
  14 C14            5.2360     1.7828    -3.4128 C.ar    
  15 C15            4.8575     1.5397    -2.1042 C.ar    
  16 F16            5.1765     3.1751    -5.3317 F       
  17 C17            0.8157    -2.8754     1.0753 C.ar    
  18 C18            0.8600    -4.2508     1.0695 C.ar    
  19 C19            1.3832    -4.9279    -0.0360 C.ar    
  20 C20            1.8607    -4.2066    -1.1342 C.ar    
  21 C21            1.8103    -2.8314    -1.1279 C.ar    
  22 F22            6.0290     0.9024    -4.0620 F       
  23 C23            1.4304    -6.3591    -0.0433 C.1     
  24 N24            1.4678    -7.4945    -0.0490 N.1     
  25 H25           -0.9569     1.8877     0.0169 H       
  26 H26           -0.9216    -0.5637     0.0082 H       
  27 H27            3.3634    -0.4536    -0.0325 H       
  28 H28            3.4783     3.1161     0.5011 H       
  29 H29            4.4009     1.5940     0.4841 H       
  30 H30            2.9772     4.2879    -1.5631 H       
  31 H31            3.6550     4.7296    -3.8884 H       
  32 H32            5.1932     0.6442    -1.6024 H       
  33 H33            0.4115    -2.3520     1.9292 H       
  34 H34            0.4911    -4.8069     1.9187 H       
  35 H35            2.2654    -4.7285    -1.9887 H       
  36 H36            2.1791    -2.2739    -1.9762 H       
@<TRIPOS>BOND
   1    1    2 2
   2    1    6 1
   3    1   25 1
   4    2    3 1
   5    2   26 1
   6    3    4 2
   7    3    9 1
   8    4    5 1
   9    4   27 1
  10    5    6 am
  11    5    8 1
  12    6    7 2
  13    8   10 1
  14    8   28 1
  15    8   29 1
  16    9   17 ar
  17    9   21 ar
  18   10   11 ar
  19   10   15 ar
  20   11   12 ar
  21   11   30 1
  22   12   13 ar
  23   12   31 1
  24   13   14 ar
  25   13   16 1
  26   14   15 ar
  27   14   22 1
  28   15   32 1
  29   17   18 ar
  30   17   33 1
  31   18   19 ar
  32   18   34 1
  33   19   20 ar
  34   19   23 1
  35   20   21 ar
  36   20   35 1
  37   21   36 1
  38   23   24 3

#	End of record

