#	Name: ASD01530024
#	Creating user name:	WinNT
#	Creation time:	15. 06. 2019 19:22

#	Modifying user name:	WinNT
#	Modification time:	15. 06. 2019 19:22

#	Program:	/corina/corina34_cracker 3.40 0067  02.08.2006

@<TRIPOS>MOLECULE
ASD01530024
  28   29    0    0    0
SMALL
NO_CHARGES


@<TRIPOS>ATOM
   1 C1            -0.0165     1.3625     0.0095 C.ar    
   2 C2             0.0021    -0.0041     0.0020 C.ar    
   3 C3             1.2057    -0.7030    -0.0128 C.ar    
   4 C4             2.3990    -0.0471    -0.0206 C.ar    
   5 C5             2.4229     1.3579    -0.0137 C.ar    
   6 C6             3.6365     2.0669    -0.0209 C.ar    
   7 C7             3.6212     3.4278    -0.0135 C.ar    
   8 C8             2.4184     4.1316     0.0012 C.ar    
   9 C9             1.2242     3.4781     0.0090 C.ar    
  10 C10            1.2003     2.0741     0.0017 C.ar    
  11 O11           -1.1990     2.0302     0.0188 O.3     
  12 C12           -2.3899     1.2404     0.0201 C.3     
  13 C13           -3.6121     2.1607     0.0309 C.3     
  14 C14           -4.8873     1.3152     0.0323 C.3     
  15 H15           -0.9302    -0.5492     0.0080 H       
  16 H16            1.1929    -1.7830    -0.0178 H       
  17 H17            3.3238    -0.6047    -0.0317 H       
  18 H18            4.5761     1.5346    -0.0319 H       
  19 H19            4.5550     3.9704    -0.0187 H       
  20 H20            2.4340     5.2115     0.0068 H       
  21 H21            0.2999     4.0366     0.0210 H       
  22 H22           -2.4130     0.6162    -0.8732 H       
  23 H23           -2.4046     0.6066     0.9067 H       
  24 H24           -3.5891     2.7849     0.9242 H       
  25 H25           -3.5975     2.7946    -0.8557 H       
  26 H26           -4.9103     0.6910    -0.8609 H       
  27 H27           -4.9019     0.6813     0.9190 H       
  28 H28           -5.7580     1.9708     0.0400 H       
@<TRIPOS>BOND
   1    1    2 ar
   2    1   10 ar
   3    1   11 1
   4    2    3 ar
   5    2   15 1
   6    3    4 ar
   7    3   16 1
   8    4    5 ar
   9    4   17 1
  10    5    6 ar
  11    5   10 ar
  12    6    7 ar
  13    6   18 1
  14    7    8 ar
  15    7   19 1
  16    8    9 ar
  17    8   20 1
  18    9   10 ar
  19    9   21 1
  20   11   12 1
  21   12   13 1
  22   12   22 1
  23   12   23 1
  24   13   14 1
  25   13   24 1
  26   13   25 1
  27   14   26 1
  28   14   27 1
  29   14   28 1

#	End of record

