#	Name: ASD03082342
#	Creating user name:	WinNT
#	Creation time:	15. 06. 2019 20:27

#	Modifying user name:	WinNT
#	Modification time:	15. 06. 2019 20:27

#	Program:	/corina/corina34_cracker 3.40 0067  02.08.2006

@<TRIPOS>MOLECULE
ASD03082342
  47   50    0    0    0
SMALL
NO_CHARGES


@<TRIPOS>ATOM
   1 C1             1.1351    -0.6548     0.2645 C.ar    
   2 C2            -0.0730    -0.2066     0.7813 C.ar    
   3 C3            -0.0959     0.8687     1.6599 C.ar    
   4 C4             1.0863     1.4931     2.0198 C.ar    
   5 C5             2.2969     1.0409     1.4995 C.ar    
   6 C6             2.3156    -0.0318     0.6235 C.ar    
   7 O7             1.3348     2.5491     2.8485 O.3     
   8 C8             2.7410     2.4792     3.1497 C.3     
   9 O9             3.3040     1.8146     2.0032 O.3     
  10 F10            3.2788     3.7635     3.2866 F       
  11 F11            2.9586     1.7277     4.3095 F       
  12 N12           -1.2678    -0.8380     0.4166 N.pl3   
  13 C13           -2.4463    -0.0965     0.3145 C.2     
  14 C14           -3.7959     1.6003     0.2870 C.2     
  15 C15           -4.3068     2.9877     0.3568 C.ar    
  16 C16           -5.6658     3.2433     0.5703 C.ar    
  17 C17           -6.0999     4.5516     0.6285 C.ar    
  18 N18           -5.2537     5.5535     0.4856 N.ar    
  19 C19           -3.9641     5.3571     0.2826 C.ar    
  20 C20           -3.4436     4.0792     0.2169 C.ar    
  21 Cl21          -2.9075     6.7227     0.1027 Cl      
  22 C22           -7.5611     4.8401     0.8579 C.3     
  23 N23           -3.6407    -0.5912     0.0817 N.2     
  24 N24           -4.5346     0.4916     0.0592 N.pl3   
  25 N25           -2.5416     1.2274     0.4434 N.2     
  26 C26           -5.9809     0.4313    -0.1661 C.3     
  27 C27           -6.6862     0.2283     1.1501 C.2     
  28 O28           -8.0253     0.1426     1.1878 O.3     
  29 O29           -6.0464     0.1428     2.1715 O.2     
  30 C30           -8.6369    -0.0530     2.4900 C.3     
  31 C31          -10.1572    -0.1261     2.3337 C.3     
  32 H32            1.1529    -1.4939    -0.4152 H       
  33 H33           -1.0355     1.2180     2.0619 H       
  34 H34            3.2542    -0.3822     0.2203 H       
  35 H35           -1.2769    -1.7908     0.2347 H       
  36 H36           -6.3647     2.4284     0.6874 H       
  37 H37           -2.3876     3.9252     0.0509 H       
  38 H38           -7.7524     4.9180     1.9281 H       
  39 H39           -7.8267     5.7790     0.3721 H       
  40 H40           -8.1611     4.0321     0.4394 H       
  41 H41           -6.3173     1.3642    -0.6185 H       
  42 H42           -6.2104    -0.3995    -0.8332 H       
  43 H43           -8.2715    -0.9823     2.9272 H       
  44 H44           -8.3784     0.7814     3.1419 H       
  45 H45          -10.5225     0.8031     1.8965 H       
  46 H46          -10.4157    -0.9606     1.6818 H       
  47 H47          -10.6163    -0.2730     3.3113 H       
@<TRIPOS>BOND
   1    1    2 ar
   2    1    6 ar
   3    1   32 1
   4    2    3 ar
   5    2   12 1
   6    3    4 ar
   7    3   33 1
   8    4    5 ar
   9    4    7 1
  10    5    6 ar
  11    5    9 1
  12    6   34 1
  13    7    8 1
  14    8    9 1
  15    8   10 1
  16    8   11 1
  17   12   13 1
  18   12   35 1
  19   13   23 2
  20   13   25 1
  21   14   15 1
  22   14   25 2
  23   14   24 1
  24   15   16 ar
  25   15   20 ar
  26   16   17 ar
  27   16   36 1
  28   17   18 ar
  29   17   22 1
  30   18   19 ar
  31   19   20 ar
  32   19   21 1
  33   20   37 1
  34   22   38 1
  35   22   39 1
  36   22   40 1
  37   23   24 1
  38   24   26 1
  39   26   27 1
  40   26   41 1
  41   26   42 1
  42   27   28 1
  43   27   29 2
  44   28   30 1
  45   30   31 1
  46   30   43 1
  47   30   44 1
  48   31   45 1
  49   31   46 1
  50   31   47 1

#	End of record

