#	Name: ASD02198105
#	Creating user name:	WinNT
#	Creation time:	15. 06. 2019 20:18

#	Modifying user name:	WinNT
#	Modification time:	15. 06. 2019 20:18

#	Program:	/corina/corina34_cracker 3.40 0067  02.08.2006

@<TRIPOS>MOLECULE
ASD02198105
  44   46    0    0    0
SMALL
NO_CHARGES


@<TRIPOS>ATOM
   1 C1             1.2279     0.9545    -0.6353 C.2     
   2 C2             1.1226    -0.4089    -0.4596 C.2     
   3 C3            -0.1331    -1.0838    -0.3238 C.1     
   4 S4             2.8613     1.4264    -0.7619 S.3     
   5 C5             3.4220    -0.2277    -0.5770 C.2     
   6 C6             2.3485    -1.0710    -0.4268 C.2     
   7 C7             4.7733    -0.6299    -0.5816 C.2     
   8 C8             5.8351     0.3538    -0.8697 C.ar    
   9 O9             5.0648    -1.7910    -0.3475 O.2     
  10 N10            2.4718    -2.4422    -0.2595 N.pl3   
  11 N11            0.1583     1.8176    -0.7051 N.pl3   
  12 N12           -1.1292    -1.6192    -0.2161 N.1     
  13 C13            6.6333     0.8474     0.1653 C.ar    
  14 C14            0.3755     3.1988    -0.7429 C.ar    
  15 C15            7.6227     1.7649    -0.1071 C.ar    
  16 C16            7.8315     2.2034    -1.4105 C.ar    
  17 C17            7.0441     1.7197    -2.4453 C.ar    
  18 C18            6.0505     0.7924    -2.1844 C.ar    
  19 C19           -0.5258     4.0288    -1.4023 C.ar    
  20 O20            5.2793     0.3182    -3.1953 O.3     
  21 C21            5.5476     0.8198    -4.5062 C.3     
  22 F22           -1.6127     3.5020    -2.0074 F       
  23 C23            1.4878     3.7456    -0.1178 C.ar    
  24 C24            1.6994     5.1106    -0.1564 C.ar    
  25 C25            0.8054     5.9327    -0.8166 C.ar    
  26 C26           -0.3074     5.3935    -1.4367 C.ar    
  27 O27            8.8093     3.1083    -1.6709 O.3     
  28 C28            9.5829     3.5655    -0.5598 C.3     
  29 H29            3.3510    -2.8518    -0.2441 H       
  30 H30            1.6790    -2.9917    -0.1577 H       
  31 H31           -0.7462     1.4680    -0.7282 H       
  32 H32            6.4739     0.5096     1.1787 H       
  33 H33            8.2387     2.1459     0.6940 H       
  34 H34            7.2096     2.0637    -3.4556 H       
  35 H35            4.8620     0.3605    -5.2183 H       
  36 H36            5.4114     1.9012    -4.5164 H       
  37 H37            6.5741     0.5802    -4.7838 H       
  38 H38            2.1870     3.1048     0.3987 H       
  39 H39            2.5647     5.5359     0.3303 H       
  40 H40            0.9737     6.9991    -0.8445 H       
  41 H41           -1.0039     6.0386    -1.9516 H       
  42 H42            8.9268     4.0442     0.1673 H       
  43 H43           10.0850     2.7179    -0.0933 H       
  44 H44           10.3268     4.2831    -0.9057 H       
@<TRIPOS>BOND
   1    1    2 2
   2    1    4 1
   3    1   11 1
   4    2    3 1
   5    2    6 1
   6    3   12 3
   7    4    5 1
   8    5    6 2
   9    5    7 1
  10    6   10 1
  11    7    8 1
  12    7    9 2
  13    8   13 ar
  14    8   18 ar
  15   10   29 1
  16   10   30 1
  17   11   14 1
  18   11   31 1
  19   13   15 ar
  20   13   32 1
  21   14   23 ar
  22   14   19 ar
  23   15   16 ar
  24   15   33 1
  25   16   17 ar
  26   16   27 1
  27   17   18 ar
  28   17   34 1
  29   18   20 1
  30   19   22 1
  31   19   26 ar
  32   20   21 1
  33   21   35 1
  34   21   36 1
  35   21   37 1
  36   23   24 ar
  37   23   38 1
  38   24   25 ar
  39   24   39 1
  40   25   26 ar
  41   25   40 1
  42   26   41 1
  43   27   28 1
  44   28   42 1
  45   28   43 1
  46   28   44 1

#	End of record

