#	Name: ASD02198192
#	Creating user name:	WinNT
#	Creation time:	15. 06. 2019 20:19

#	Modifying user name:	WinNT
#	Modification time:	15. 06. 2019 20:19

#	Program:	/corina/corina34_cracker 3.40 0067  02.08.2006

@<TRIPOS>MOLECULE
ASD02198192
  49   52    0    0    0
SMALL
NO_CHARGES


@<TRIPOS>ATOM
   1 C1            -0.0184     1.3443    -0.2860 C.2     
   2 C2             0.0095    -0.0341    -0.2491 C.2     
   3 C3            -1.1728    -0.8404    -0.3010 C.1     
   4 S4             1.5588     1.9869    -0.2068 S.3     
   5 C5             2.2775     0.3866    -0.1225 C.2     
   6 C6             1.2917    -0.5713    -0.1578 C.2     
   7 C7             3.6578     0.1237    -0.0326 C.2     
   8 C8             4.6306     1.2317    -0.1475 C.ar    
   9 O9             4.0511    -1.0177     0.1400 O.2     
  10 N10            1.5475    -1.9326    -0.1076 N.pl3   
  11 N11           -1.1641     2.0988    -0.3799 N.pl3   
  12 N12           -2.1107    -1.4801    -0.3421 N.1     
  13 C13           -1.0777     3.5609    -0.4114 C.3     
  14 C14            5.8545     1.1592     0.5215 C.ar    
  15 C15           -2.3120     4.1467    -1.1193 C.3     
  16 C16            6.7597     2.1908     0.4136 C.ar    
  17 C17            6.4548     3.3084    -0.3637 C.ar    
  18 C18            5.2324     3.3819    -1.0320 C.ar    
  19 C19            4.3284     2.3486    -0.9299 C.ar    
  20 C20            7.4304     4.4190    -0.4794 C.ar    
  21 C21            7.1289     5.5372    -1.2553 C.ar    
  22 C22            8.0407     6.5678    -1.3593 C.ar    
  23 C23            9.2520     6.4928    -0.6953 C.ar    
  24 C24            9.5566     5.3856     0.0761 C.ar    
  25 C25            8.6502     4.3516     0.1921 C.ar    
  26 C26           -3.0275     5.0432    -0.0877 C.3     
  27 C27           -1.9148     5.4262     0.9193 C.3     
  28 C28           -1.0863     4.1219     1.0256 C.3     
  29 H29            2.4610    -2.2524    -0.0441 H       
  30 H30            0.8129    -2.5655    -0.1359 H       
  31 H31           -2.0295     1.6630    -0.4253 H       
  32 H32           -0.1692     3.8699    -0.9282 H       
  33 H33            6.0905     0.2942     1.1237 H       
  34 H34           -2.0024     4.7408    -1.9792 H       
  35 H35           -2.9753     3.3432    -1.4394 H       
  36 H36            7.7059     2.1351     0.9312 H       
  37 H37            4.9969     4.2477    -1.6330 H       
  38 H38            3.3822     2.4056    -1.4473 H       
  39 H39            6.1837     5.5967    -1.7744 H       
  40 H40            7.8084     7.4344    -1.9605 H       
  41 H41            9.9628     7.3015    -0.7799 H       
  42 H42           10.5040     5.3323     0.5919 H       
  43 H43            8.8889     3.4878     0.7949 H       
  44 H44           -3.4288     5.9345    -0.5701 H       
  45 H45           -3.8214     4.4894     0.4134 H       
  46 H46           -1.3045     6.2408     0.5293 H       
  47 H47           -2.3431     5.6916     1.8858 H       
  48 H48           -1.5666     3.4192     1.7066 H       
  49 H49           -0.0708     4.3408     1.3557 H       
@<TRIPOS>BOND
   1    1    2 2
   2    1    4 1
   3    1   11 1
   4    2    3 1
   5    2    6 1
   6    3   12 3
   7    4    5 1
   8    5    6 2
   9    5    7 1
  10    6   10 1
  11    7    8 1
  12    7    9 2
  13    8   14 ar
  14    8   19 ar
  15   10   29 1
  16   10   30 1
  17   11   13 1
  18   11   31 1
  19   13   15 1
  20   13   28 1
  21   13   32 1
  22   14   16 ar
  23   14   33 1
  24   15   26 1
  25   15   34 1
  26   15   35 1
  27   16   17 ar
  28   16   36 1
  29   17   18 ar
  30   17   20 1
  31   18   19 ar
  32   18   37 1
  33   19   38 1
  34   20   21 ar
  35   20   25 ar
  36   21   22 ar
  37   21   39 1
  38   22   23 ar
  39   22   40 1
  40   23   24 ar
  41   23   41 1
  42   24   25 ar
  43   24   42 1
  44   25   43 1
  45   26   27 1
  46   26   44 1
  47   26   45 1
  48   27   28 1
  49   27   46 1
  50   27   47 1
  51   28   48 1
  52   28   49 1

#	End of record

