#	Name: ASD01884840
#	Creating user name:	WinNT
#	Creation time:	15. 06. 2019 19:48

#	Modifying user name:	WinNT
#	Modification time:	15. 06. 2019 19:48

#	Program:	/corina/corina34_cracker 3.40 0067  02.08.2006

@<TRIPOS>MOLECULE
ASD01884840
  71   76    0    0    0
SMALL
NO_CHARGES


@<TRIPOS>ATOM
   1 C1            -0.0169     1.3946     0.0097 C.2     
   2 C2             0.0021    -0.0041     0.0020 C.2     
   3 C3            -1.1435    -0.7194     0.0096 C.2     
   4 N4            -2.3629    -0.1138     0.0250 N.pl3   
   5 C5            -2.4616     1.2563     0.0333 C.2     
   6 C6            -1.2368     2.0588     0.0307 C.2     
   7 C7            -3.6439    -0.5758     0.0352 C.2     
   8 N8            -4.4360     0.4642     0.0487 N.2     
   9 N9            -3.7459     1.5506     0.0476 N.2     
  10 C10           -4.0704    -2.0212     0.0317 C.3     
  11 C11            1.2734     2.1731     0.0016 C.3     
  12 N12            1.7682     2.3154     1.3774 N.3     
  13 C13            3.1330     2.8570     1.3925 C.3     
  14 C14            3.6682     2.8550     2.8262 C.3     
  15 C15            2.7516     3.7061     3.7092 C.3     
  16 C16            1.3268     3.1499     3.6378 C.3     
  17 C17            0.8594     3.1434     2.1805 C.3     
  18 C18            3.2396     3.6593     5.1343 C.ar    
  19 C19            3.6124     4.8257     5.7758 C.ar    
  20 C20            4.0601     4.7827     7.0830 C.ar    
  21 C21            4.1345     3.5735     7.7487 C.ar    
  22 C22            3.7609     2.4073     7.1074 C.ar    
  23 C23            3.3091     2.4508     5.8017 C.ar    
  24 N24           -4.1951    -2.4983     1.4155 N.3     
  25 C25           -4.8328    -3.8203     1.4608 C.3     
  26 C26           -5.0780    -4.2201     2.9176 C.3     
  27 C27           -3.7420    -4.2513     3.6650 C.3     
  28 C28           -3.0759    -2.8765     3.5614 C.3     
  29 C29           -2.8888    -2.5156     2.0860 C.3     
  30 C30           -1.2950     3.4896     0.0392 C.1     
  31 N31           -1.3412     4.6246     0.0459 N.1     
  32 C32           -3.9834    -4.5860     5.1144 C.ar    
  33 C33           -3.4083    -5.7145     5.6682 C.ar    
  34 C34           -3.6298    -6.0215     6.9977 C.ar    
  35 C35           -4.4261    -5.1999     7.7735 C.ar    
  36 C36           -5.0005    -4.0709     7.2198 C.ar    
  37 C37           -4.7754    -3.7616     5.8915 C.ar    
  38 H38            0.9500    -0.5214    -0.0106 H       
  39 H39           -1.0911    -1.7981     0.0029 H       
  40 H40           -5.0318    -2.1152    -0.4731 H       
  41 H41           -3.3247    -2.6188    -0.4928 H       
  42 H42            2.0137     1.6433    -0.5978 H       
  43 H43            1.0992     3.1606    -0.4258 H       
  44 H44            3.7755     2.2401     0.7641 H       
  45 H45            3.1230     3.8776     1.0100 H       
  46 H46            3.6916     1.8330     3.2045 H       
  47 H47            4.6754     3.2715     2.8392 H       
  48 H48            2.7585     4.7368     3.3545 H       
  49 H49            1.3132     2.1326     4.0288 H       
  50 H50            0.6611     3.7772     4.2306 H       
  51 H51            0.8600     4.1627     1.7943 H       
  52 H52           -0.1495     2.7346     2.1245 H       
  53 H53            3.5542     5.7704     5.2557 H       
  54 H54            4.3520     5.6939     7.5840 H       
  55 H55            4.4850     3.5399     8.7697 H       
  56 H56            3.8193     1.4626     7.6274 H       
  57 H57            3.0171     1.5397     5.3007 H       
  58 H58           -5.7838    -3.7833     0.9294 H       
  59 H59           -4.1808    -4.5545     0.9875 H       
  60 H60           -5.7411    -3.4939     3.3876 H       
  61 H61           -5.5371    -5.2082     2.9514 H       
  62 H62           -3.0932    -5.0059     3.2201 H       
  63 H63           -3.7075    -2.1291     4.0415 H       
  64 H64           -2.1046    -2.9045     4.0552 H       
  65 H65           -2.2459    -3.2559     1.6097 H       
  66 H66           -2.4278    -1.5309     2.0086 H       
  67 H67           -2.7862    -6.3564     5.0622 H       
  68 H68           -3.1811    -6.9035     7.4303 H       
  69 H69           -4.5997    -5.4401     8.8120 H       
  70 H70           -5.6228    -3.4292     7.8258 H       
  71 H71           -5.2211    -2.8775     5.4599 H       
@<TRIPOS>BOND
   1    1    2 1
   2    1   11 1
   3    1    6 2
   4    2    3 2
   5    2   38 1
   6    3    4 1
   7    3   39 1
   8    4    5 1
   9    4    7 1
  10    5    6 1
  11    5    9 2
  12    6   30 1
  13    7    8 2
  14    7   10 1
  15    8    9 1
  16   10   24 1
  17   10   40 1
  18   10   41 1
  19   11   12 1
  20   11   42 1
  21   11   43 1
  22   12   13 1
  23   12   17 1
  24   13   14 1
  25   13   44 1
  26   13   45 1
  27   14   15 1
  28   14   46 1
  29   14   47 1
  30   15   16 1
  31   15   18 1
  32   15   48 1
  33   16   17 1
  34   16   49 1
  35   16   50 1
  36   17   51 1
  37   17   52 1
  38   18   19 ar
  39   18   23 ar
  40   19   20 ar
  41   19   53 1
  42   20   21 ar
  43   20   54 1
  44   21   22 ar
  45   21   55 1
  46   22   23 ar
  47   22   56 1
  48   23   57 1
  49   24   25 1
  50   24   29 1
  51   25   26 1
  52   25   58 1
  53   25   59 1
  54   26   27 1
  55   26   60 1
  56   26   61 1
  57   27   32 1
  58   27   28 1
  59   27   62 1
  60   28   29 1
  61   28   63 1
  62   28   64 1
  63   29   65 1
  64   29   66 1
  65   30   31 3
  66   32   33 ar
  67   32   37 ar
  68   33   34 ar
  69   33   67 1
  70   34   35 ar
  71   34   68 1
  72   35   36 ar
  73   35   69 1
  74   36   37 ar
  75   36   70 1
  76   37   71 1

#	End of record

