#	Name: ASD03240016
#	Creating user name:	WinNT
#	Creation time:	15. 06. 2019 20:34

#	Modifying user name:	WinNT
#	Modification time:	15. 06. 2019 20:34

#	Program:	/corina/corina34_cracker 3.40 0067  02.08.2006

@<TRIPOS>MOLECULE
ASD03240016
  71   77    0    0    0
SMALL
NO_CHARGES


@<TRIPOS>ATOM
   1 C1            -0.0172     1.4139     0.0098 C.ar    
   2 C2             0.0021    -0.0041     0.0020 C.ar    
   3 N3             1.1287     2.1041     0.0026 N.ar    
   4 C4             2.2844     1.4652    -0.0124 C.ar    
   5 C5             2.3037     0.0030    -0.0210 C.ar    
   6 N6             1.1657    -0.6653    -0.0127 N.ar    
   7 C7             3.5941    -0.7244    -0.0383 C.ar    
   8 C8             3.5549     2.2260    -0.0209 C.ar    
   9 C9             3.6412     3.4374    -0.7072 C.ar    
  10 C10            4.8278     4.1415    -0.7115 C.ar    
  11 C11            5.9306     3.6483    -0.0373 C.ar    
  12 C12            5.8514     2.4473     0.6448 C.ar    
  13 C13            4.6686     1.7371     0.6621 C.ar    
  14 C14            3.7259    -1.9328     0.6453 C.ar    
  15 C15            4.9304    -2.6057     0.6254 C.ar    
  16 C16            6.0062    -2.0836    -0.0703 C.ar    
  17 C17            5.8816    -0.8853    -0.7503 C.ar    
  18 C18            4.6804    -0.2063    -0.7430 C.ar    
  19 C19            7.3192    -2.8231    -0.0871 C.3     
  20 N20            7.3450    -3.7493    -1.2270 N.3     
  21 C21            8.6879    -4.3121    -1.4175 C.3     
  22 C22            8.7128    -5.1549    -2.6946 C.3     
  23 C23            7.6797    -6.2791    -2.5787 C.3     
  24 C24            6.2975    -5.6679    -2.3325 C.3     
  25 C25            6.3426    -4.8102    -1.0659 C.3     
  26 N26            7.6579    -7.0541    -3.8217 N.am    
  27 C27            7.9325    -8.4146    -3.9389 C.ar    
  28 C28            7.7974    -8.7386    -5.2903 C.ar    
  29 N29            7.4449    -7.5649    -5.9524 N.am    
  30 C30            7.3634    -6.5740    -5.0446 C.2     
  31 C31            8.2817    -9.3971    -3.0248 C.ar    
  32 C32            8.4944   -10.6920    -3.4552 C.ar    
  33 C33            8.3604   -11.0133    -4.7951 C.ar    
  34 C34            8.0130   -10.0415    -5.7129 C.ar    
  35 O35            7.0757    -5.4180    -5.2930 O.2     
  36 C36           -1.2127    -0.7101     0.0104 C.ar    
  37 C37           -2.4095    -0.0129     0.0261 C.ar    
  38 C38           -2.4146     1.3936     0.0331 C.ar    
  39 C39           -1.2513     2.0923     0.0311 C.ar    
  40 C40           -3.6886    -0.7512     0.0349 C.2     
  41 O41           -3.6888    -1.9660     0.0285 O.2     
  42 O42           -4.8551    -0.0775     0.0502 O.3     
  43 H43            2.7812     3.8231    -1.2344 H       
  44 H44            4.8958     5.0795    -1.2425 H       
  45 H45            6.8573     4.2029    -0.0439 H       
  46 H46            6.7160     2.0670     1.1686 H       
  47 H47            4.6079     0.7998     1.1952 H       
  48 H48            2.8870    -2.3410     1.1893 H       
  49 H49            5.0336    -3.5416     1.1544 H       
  50 H50            6.7251    -0.4825    -1.2914 H       
  51 H51            4.5844     0.7291    -1.2742 H       
  52 H52            8.1372    -2.1088    -0.1807 H       
  53 H53            7.4317    -3.3849     0.8402 H       
  54 H54            9.4124    -3.5022    -1.5026 H       
  55 H55            8.9433    -4.9393    -0.5634 H       
  56 H56            8.4710    -4.5253    -3.5509 H       
  57 H57            9.7054    -5.5852    -2.8274 H       
  58 H58            7.9430    -6.9314    -1.7461 H       
  59 H59            6.0177    -5.0464    -3.1831 H       
  60 H60            5.5644    -6.4647    -2.2065 H       
  61 H61            6.6090    -5.4351    -0.2134 H       
  62 H62            5.3636    -4.3621    -0.8956 H       
  63 H63            7.2822    -7.4773    -6.9046 H       
  64 H64            8.3874    -9.1502    -1.9788 H       
  65 H65            8.7667   -11.4573    -2.7434 H       
  66 H66            8.5284   -12.0282    -5.1241 H       
  67 H67            7.9091   -10.2959    -6.7574 H       
  68 H68           -1.2133    -1.7901     0.0043 H       
  69 H69           -3.3554     1.9237     0.0450 H       
  70 H70           -1.2719     3.1721     0.0367 H       
  71 H71           -5.6662    -0.6041     0.0555 H       
@<TRIPOS>BOND
   1    1    2 ar
   2    1    3 ar
   3    1   39 ar
   4    2   36 ar
   5    2    6 ar
   6    3    4 ar
   7    4    5 ar
   8    4    8 1
   9    5    6 ar
  10    5    7 1
  11    7   14 ar
  12    7   18 ar
  13    8    9 ar
  14    8   13 ar
  15    9   10 ar
  16    9   43 1
  17   10   11 ar
  18   10   44 1
  19   11   12 ar
  20   11   45 1
  21   12   13 ar
  22   12   46 1
  23   13   47 1
  24   14   15 ar
  25   14   48 1
  26   15   16 ar
  27   15   49 1
  28   16   17 ar
  29   16   19 1
  30   17   18 ar
  31   17   50 1
  32   18   51 1
  33   19   20 1
  34   19   52 1
  35   19   53 1
  36   20   21 1
  37   20   25 1
  38   21   22 1
  39   21   54 1
  40   21   55 1
  41   22   23 1
  42   22   56 1
  43   22   57 1
  44   23   24 1
  45   23   26 1
  46   23   58 1
  47   24   25 1
  48   24   59 1
  49   24   60 1
  50   25   61 1
  51   25   62 1
  52   26   27 1
  53   26   30 am
  54   27   28 ar
  55   27   31 ar
  56   28   29 1
  57   28   34 ar
  58   29   30 am
  59   29   63 1
  60   30   35 2
  61   31   32 ar
  62   31   64 1
  63   32   33 ar
  64   32   65 1
  65   33   34 ar
  66   33   66 1
  67   34   67 1
  68   36   37 ar
  69   36   68 1
  70   37   38 ar
  71   37   40 1
  72   38   39 ar
  73   38   69 1
  74   39   70 1
  75   40   41 2
  76   40   42 1
  77   42   71 1

#	End of record

