#	Name: ASD09790012
#	Creating user name:	WinNT
#	Creation time:	15. 06. 2019 21:24

#	Modifying user name:	WinNT
#	Modification time:	15. 06. 2019 21:24

#	Program:	/corina/corina34_cracker 3.40 0067  02.08.2006

@<TRIPOS>MOLECULE
ASD09790012
  42   45    0    0    0
SMALL
NO_CHARGES


@<TRIPOS>ATOM
   1 C1             0.3514     0.8894     0.5796 C.2     
   2 C2             0.5671    -0.5151     0.9920 C.ar    
   3 C3             1.8379    -0.8874     1.4572 C.ar    
   4 O4             2.8407     0.0100     1.5374 O.3     
   5 C5             2.7849     1.2003     0.9064 C.ar    
   6 C6             1.5683     1.7045     0.4135 C.ar    
   7 C7            -0.4622    -1.4509     0.9206 C.ar    
   8 C8            -0.2260    -2.7531     1.3072 C.ar    
   9 C9             1.0289    -3.1264     1.7635 C.ar    
  10 C10            2.0538    -2.2074     1.8401 C.ar    
  11 C11            1.5204     2.9513    -0.2229 C.ar    
  12 C12            3.9414     1.9482     0.7357 C.ar    
  13 C13            3.8898     3.1777     0.0971 C.ar    
  14 C14            2.6850     3.6815    -0.3787 C.ar    
  15 O15           -0.7619     1.3424     0.3845 O.2     
  16 O16            0.3411     3.4388    -0.6834 O.3     
  17 O17            5.0290     3.8981    -0.0648 O.3     
  18 C18            5.8754     3.4951    -1.0336 C.2     
  19 C19            7.1822     4.1573    -1.1926 C.ar    
  20 O20            5.5607     2.5858    -1.7758 O.2     
  21 C21            7.5484     5.2003    -0.3356 C.ar    
  22 C22            8.7650     5.8143    -0.4864 C.ar    
  23 C23            8.0616     3.7405    -2.1973 C.ar    
  24 C24            9.2767     4.3588    -2.3425 C.ar    
  25 C25            9.6354     5.4010    -1.4915 C.ar    
  26 N26           10.8681     6.0257    -1.6415 N.pl3   
  27 C27           11.2473     7.1223    -0.7471 C.3     
  28 H28           -1.4391    -1.1583     0.5650 H       
  29 H29           -1.0198    -3.4835     1.2548 H       
  30 H30            1.2056    -4.1490     2.0626 H       
  31 H31            3.0260    -2.5128     2.1976 H       
  32 H32            4.8849     1.5712     1.1019 H       
  33 H33            2.6582     4.6425    -0.8708 H       
  34 H34           -0.1428     3.9723    -0.0381 H       
  35 H35            6.8734     5.5218     0.4437 H       
  36 H36            9.0483     6.6197     0.1750 H       
  37 H37            7.7839     2.9323    -2.8576 H       
  38 H38            9.9563     4.0373    -3.1178 H       
  39 H39           11.4773     5.7355    -2.3384 H       
  40 H40           11.2569     6.7646     0.2825 H       
  41 H41           12.2401     7.4834    -1.0156 H       
  42 H42           10.5270     7.9347    -0.8428 H       
@<TRIPOS>BOND
   1    1    2 1
   2    1    6 1
   3    1   15 2
   4    2    3 ar
   5    2    7 ar
   6    3    4 1
   7    3   10 ar
   8    4    5 1
   9    5   12 ar
  10    5    6 ar
  11    6   11 ar
  12    7    8 ar
  13    7   28 1
  14    8    9 ar
  15    8   29 1
  16    9   10 ar
  17    9   30 1
  18   10   31 1
  19   11   14 ar
  20   11   16 1
  21   12   13 ar
  22   12   32 1
  23   13   14 ar
  24   13   17 1
  25   14   33 1
  26   16   34 1
  27   17   18 1
  28   18   19 1
  29   18   20 2
  30   19   23 ar
  31   19   21 ar
  32   21   22 ar
  33   21   35 1
  34   22   25 ar
  35   22   36 1
  36   23   24 ar
  37   23   37 1
  38   24   25 ar
  39   24   38 1
  40   25   26 1
  41   26   27 1
  42   26   39 1
  43   27   40 1
  44   27   41 1
  45   27   42 1

#	End of record

