#	Name: ASD01841018
#	Creating user name:	WinNT
#	Creation time:	15. 06. 2019 19:38

#	Modifying user name:	WinNT
#	Modification time:	15. 06. 2019 19:38

#	Program:	/corina/corina34_cracker 3.40 0067  02.08.2006

@<TRIPOS>MOLECULE
ASD01841018
  35   37    0    0    0
SMALL
NO_CHARGES


@<TRIPOS>ATOM
   1 C1            -0.0167     1.3826     0.0096 C.ar    
   2 C2             0.0021    -0.0041     0.0020 C.ar    
   3 C3             1.2035    -0.6767    -0.0130 C.ar    
   4 C4             2.4050     0.0299    -0.0202 C.ar    
   5 C5             2.4046     1.4267    -0.0127 C.ar    
   6 C6             1.1594     2.0982     0.0023 C.ar    
   7 S7             4.0770    -0.5258    -0.0391 S.3     
   8 C8             4.6445     1.1381    -0.0356 C.2     
   9 N9             3.6465     1.9517    -0.0217 N.2     
  10 O10            1.1240     3.4572     0.0099 O.3     
  11 C11           -0.1656     4.0725     0.0250 C.3     
  12 C12            1.2194    -2.1836    -0.0213 C.3     
  13 N13            5.9755     1.5196    -0.0462 N.am    
  14 C14            6.3018     2.8273    -0.0422 C.2     
  15 C15            7.7081     3.2304    -0.0534 C.2     
  16 O16            5.4263     3.6730    -0.0294 O.2     
  17 O17            8.0202     4.5562    -0.0493 O.3     
  18 C18            9.3649     4.8966     0.3102 C.3     
  19 C19           10.3112     3.9452    -0.4362 C.3     
  20 O20            9.9720     2.6025    -0.0700 O.3     
  21 C21            8.6596     2.2863    -0.0620 C.2     
  22 H22           -0.9617     1.9054     0.0169 H       
  23 H23           -0.9259    -0.5566     0.0083 H       
  24 H24           -0.7067     3.7605     0.9183 H       
  25 H25           -0.0509     5.1565     0.0298 H       
  26 H26           -0.7229     3.7700    -0.8616 H       
  27 H27            1.2135    -2.5414    -1.0509 H       
  28 H28            2.1181    -2.5402     0.4821 H       
  29 H29            0.3383    -2.5591     0.4990 H       
  30 H30            6.6731     0.8457    -0.0564 H       
  31 H31            9.5742     5.9264     0.0208 H       
  32 H32            9.4992     4.7809     1.3857 H       
  33 H33           10.1908     4.0750    -1.5117 H       
  34 H34           11.3427     4.1546    -0.1528 H       
  35 H35            8.3689     1.2463    -0.0706 H       
@<TRIPOS>BOND
   1    1    2 ar
   2    1    6 ar
   3    1   22 1
   4    2    3 ar
   5    2   23 1
   6    3    4 ar
   7    3   12 1
   8    4    5 ar
   9    4    7 1
  10    5    6 ar
  11    5    9 1
  12    6   10 1
  13    7    8 1
  14    8    9 2
  15    8   13 1
  16   10   11 1
  17   11   24 1
  18   11   25 1
  19   11   26 1
  20   12   27 1
  21   12   28 1
  22   12   29 1
  23   13   14 am
  24   13   30 1
  25   14   15 1
  26   14   16 2
  27   15   17 1
  28   15   21 2
  29   17   18 1
  30   18   19 1
  31   18   31 1
  32   18   32 1
  33   19   20 1
  34   19   33 1
  35   19   34 1
  36   20   21 1
  37   21   35 1

#	End of record

