#	Name: ASD06170156
#	Creating user name:	WinNT
#	Creation time:	15. 06. 2019 21:05

#	Modifying user name:	WinNT
#	Modification time:	15. 06. 2019 21:05

#	Program:	/corina/corina34_cracker 3.40 0067  02.08.2006

@<TRIPOS>MOLECULE
ASD06170156
  74   78    0    0    0
SMALL
NO_CHARGES


@<TRIPOS>ATOM
   1 N1            -1.7409    -1.4880    -1.3513 N.am    
   2 C2            -0.8468    -1.7005    -0.2049 C.3     
   3 C3            -0.8594    -3.1880     0.1611 C.3     
   4 C4            -0.5037    -4.0166    -1.0754 C.3     
   5 C5            -1.5483    -3.7792    -2.1684 C.3     
   6 C6            -1.5435    -2.2984    -2.5609 C.3     
   7 C7            -2.7268    -0.5710    -1.2925 C.2     
   8 O8            -2.9400     0.0267    -0.2555 O.2     
   9 N9            -3.4765    -0.3166    -2.3833 N.am    
  10 C10           -6.1482     1.8673    -3.3177 C.ar    
  11 N11           -5.1176     1.0500    -3.3938 N.ar    
  12 C12           -4.5638     0.5458    -2.2940 C.ar    
  13 C13           -5.0889     0.8938    -1.0532 C.ar    
  14 C14           -6.1763     1.7587    -1.0173 C.ar    
  15 N15           -6.6730     2.2199    -2.1619 N.ar    
  16 O16           -6.7231     2.1266     0.1670 O.3     
  17 C17           -7.8490     2.8893     0.1410 C.ar    
  18 C18           -9.0953     2.2845     0.0304 C.ar    
  19 C19          -10.2393     3.0598     0.0040 C.ar    
  20 C20          -10.1420     4.4427     0.0880 C.ar    
  21 C21           -8.8962     5.0452     0.1984 C.ar    
  22 C22           -7.7535     4.2694     0.2305 C.ar    
  23 C23          -12.4571     4.7423     0.5522 C.2     
  24 O24          -12.4756     3.6568     1.1021 O.2     
  25 N25          -11.3004     5.2292     0.0609 N.am    
  26 N26          -15.8149     6.1433     0.5638 N.pl3   
  27 N27          -15.1448     7.1757    -0.0992 N.am    
  28 C28          -13.8423     6.8414    -0.2092 C.2     
  29 C29          -13.6946     5.5213     0.4239 C.2     
  30 C30          -14.9492     5.1595     0.8742 C.2     
  31 C31          -17.2454     6.1356     0.8797 C.3     
  32 C32          -18.0127     5.4407    -0.2469 C.3     
  33 C33          -19.5067     5.4326     0.0830 C.3     
  34 C34          -15.7272     8.3569    -0.5702 C.ar    
  35 C35          -16.5057     9.1349     0.2768 C.ar    
  36 C36          -17.0790    10.3009    -0.1913 C.ar    
  37 C37          -16.8786    10.6940    -1.5018 C.ar    
  38 C38          -16.1044     9.9214    -2.3479 C.ar    
  39 C39          -15.5236     8.7572    -1.8845 C.ar    
  40 O40          -12.9626     7.5017    -0.7297 O.2     
  41 C41          -15.2916     3.8797     1.5926 C.3     
  42 F42           -9.1887     0.9392    -0.0517 F       
  43 H43            0.1662    -1.3981    -0.4706 H       
  44 H44           -1.1951    -1.1123     0.6441 H       
  45 H45           -0.1281    -3.3754     0.9473 H       
  46 H46           -1.8524    -3.4676     0.5131 H       
  47 H47            0.4789    -3.7191    -1.4415 H       
  48 H48           -0.4879    -5.0741    -0.8117 H       
  49 H49           -1.3073    -4.3874    -3.0402 H       
  50 H50           -2.5348    -4.0533    -1.7945 H       
  51 H51           -2.3515    -2.1048    -3.2663 H       
  52 H52           -0.5873    -2.0449    -3.0186 H       
  53 H53           -3.2576    -0.7351    -3.2306 H       
  54 H54           -6.5722     2.2631    -4.2287 H       
  55 H55           -4.6627     0.5016    -0.1416 H       
  56 H56          -11.2082     2.5905    -0.0822 H       
  57 H57           -8.8205     6.1206     0.2638 H       
  58 H58           -6.7850     4.7386     0.3212 H       
  59 H59          -11.2702     6.1244    -0.3114 H       
  60 H60          -17.4082     5.5994     1.8147 H       
  61 H61          -17.6004     7.1610     0.9824 H       
  62 H62          -17.8500     5.9768    -1.1819 H       
  63 H63          -17.6578     4.4152    -0.3495 H       
  64 H64          -20.0534     4.9375    -0.7196 H       
  65 H65          -19.6695     4.8965     1.0180 H       
  66 H66          -19.8617     6.4581     0.1857 H       
  67 H67          -16.6629     8.8283     1.3004 H       
  68 H68          -17.6848    10.9062     0.4668 H       
  69 H69          -17.3280    11.6063    -1.8655 H       
  70 H70          -15.9501    10.2310    -3.3710 H       
  71 H71          -14.9154     8.1565    -2.5445 H       
  72 H72          -15.5673     3.1169     0.8644 H       
  73 H73          -14.4271     3.5413     2.1638 H       
  74 H74          -16.1280     4.0554     2.2691 H       
@<TRIPOS>BOND
   1    1    2 1
   2    1    6 1
   3    1    7 am
   4    2    3 1
   5    2   43 1
   6    2   44 1
   7    3    4 1
   8    3   45 1
   9    3   46 1
  10    4    5 1
  11    4   47 1
  12    4   48 1
  13    5    6 1
  14    5   49 1
  15    5   50 1
  16    6   51 1
  17    6   52 1
  18    7    8 2
  19    7    9 am
  20    9   12 1
  21    9   53 1
  22   10   11 ar
  23   10   15 ar
  24   10   54 1
  25   11   12 ar
  26   12   13 ar
  27   13   14 ar
  28   13   55 1
  29   14   15 ar
  30   14   16 1
  31   16   17 1
  32   17   18 ar
  33   17   22 ar
  34   18   19 ar
  35   18   42 1
  36   19   20 ar
  37   19   56 1
  38   20   21 ar
  39   20   25 1
  40   21   22 ar
  41   21   57 1
  42   22   58 1
  43   23   24 2
  44   23   25 am
  45   23   29 1
  46   25   59 1
  47   26   27 1
  48   26   30 1
  49   26   31 1
  50   27   28 am
  51   27   34 1
  52   28   29 1
  53   28   40 2
  54   29   30 2
  55   30   41 1
  56   31   32 1
  57   31   60 1
  58   31   61 1
  59   32   33 1
  60   32   62 1
  61   32   63 1
  62   33   64 1
  63   33   65 1
  64   33   66 1
  65   34   35 ar
  66   34   39 ar
  67   35   36 ar
  68   35   67 1
  69   36   37 ar
  70   36   68 1
  71   37   38 ar
  72   37   69 1
  73   38   39 ar
  74   38   70 1
  75   39   71 1
  76   41   72 1
  77   41   73 1
  78   41   74 1

#	End of record

