#	Name: ASD01140389
#	Creating user name:	WinNT
#	Creation time:	15. 06. 2019 19:00

#	Modifying user name:	WinNT
#	Modification time:	15. 06. 2019 19:00

#	Program:	/corina/corina34_cracker 3.40 0067  02.08.2006

@<TRIPOS>MOLECULE
ASD01140389
  42   45    0    0    0
SMALL
NO_CHARGES


@<TRIPOS>ATOM
   1 S1            -0.0218     1.7597     0.0117 S.3     
   2 C2             0.0021    -0.0041     0.0020 C.2     
   3 N3             1.2500    -0.3827    -0.0119 N.2     
   4 N4             2.1147     0.5373    -0.0152 N.2     
   5 C5             1.6909     1.7654    -0.0046 C.2     
   6 O6             2.4757     2.8703    -0.0066 O.3     
   7 C7             6.0929     3.6687    -0.6237 C.3     
   8 C8             4.5688     3.8286    -0.7439 C.3     
   9 C9             3.8894     2.6620    -0.0211 C.3     
  10 C10            4.4061     2.5739     1.4178 C.3     
  11 C11            5.9412     2.4990     1.3915 C.3     
  12 C12            6.3449     1.4348     0.3452 C.3     
  13 C13            6.4451     2.2077    -0.9864 C.3     
  14 N14            6.4352     3.7797     0.8193 N.3     
  15 C15            7.8858     3.9155     1.0073 C.3     
  16 C16           -1.1795    -0.8929     0.0085 C.ar    
  17 C17           -1.0134    -2.2775    -0.0005 C.ar    
  18 C18           -2.1261    -3.1045     0.0056 C.ar    
  19 C19           -3.4021    -2.5527     0.0207 C.ar    
  20 C20           -3.5664    -1.1805     0.0292 C.ar    
  21 C21           -2.4647    -0.3489     0.0295 C.ar    
  22 N22           -1.9651    -4.4922    -0.0038 N.pl3   
  23 H23            6.6311     4.3879    -1.2411 H       
  24 H24            4.2632     4.7694    -0.2861 H       
  25 H25            4.2830     3.8226    -1.7957 H       
  26 H26            4.1134     1.7319    -0.5435 H       
  27 H27            4.0932     3.4583     1.9728 H       
  28 H28            4.0051     1.6801     1.8956 H       
  29 H29            6.3588     2.2883     2.3760 H       
  30 H30            7.3089     0.9962     0.6027 H       
  31 H31            5.5808     0.6603     0.2776 H       
  32 H32            5.7304     1.8133    -1.7086 H       
  33 H33            7.4585     2.1492    -1.3835 H       
  34 H34            8.2363     4.8115     0.4950 H       
  35 H35            8.1084     3.9948     2.0714 H       
  36 H36            8.3890     3.0409     0.5950 H       
  37 H37           -0.0213    -2.7041    -0.0126 H       
  38 H38           -4.2678    -3.1984     0.0255 H       
  39 H39           -4.5600    -0.7575     0.0406 H       
  40 H40           -2.5973     0.7229     0.0410 H       
  41 H41           -1.0749    -4.8771    -0.0147 H       
  42 H42           -2.7437    -5.0707     0.0005 H       
@<TRIPOS>BOND
   1    1    2 1
   2    1    5 1
   3    2    3 2
   4    2   16 1
   5    3    4 1
   6    4    5 2
   7    5    6 1
   8    6    9 1
   9    7    8 1
  10    7   13 1
  11    7   14 1
  12    7   23 1
  13    8    9 1
  14    8   24 1
  15    8   25 1
  16    9   10 1
  17    9   26 1
  18   10   11 1
  19   10   27 1
  20   10   28 1
  21   11   12 1
  22   11   14 1
  23   11   29 1
  24   12   13 1
  25   12   30 1
  26   12   31 1
  27   13   32 1
  28   13   33 1
  29   14   15 1
  30   15   34 1
  31   15   35 1
  32   15   36 1
  33   16   17 ar
  34   16   21 ar
  35   17   18 ar
  36   17   37 1
  37   18   19 ar
  38   18   22 1
  39   19   20 ar
  40   19   38 1
  41   20   21 ar
  42   20   39 1
  43   21   40 1
  44   22   41 1
  45   22   42 1

#	End of record

