#	Name: ASD01911130
#	Creating user name:	WinNT
#	Creation time:	15. 06. 2019 19:57

#	Modifying user name:	WinNT
#	Modification time:	15. 06. 2019 19:57

#	Program:	/corina/corina34_cracker 3.40 0067  02.08.2006

@<TRIPOS>MOLECULE
ASD01911130
  49   52    0    0    0
SMALL
NO_CHARGES


@<TRIPOS>ATOM
   1 C1             0.1186     1.0164     0.1958 C.2     
   2 O2             1.1333     1.6838     0.2462 O.2     
   3 C3             0.2064    -0.4546     0.0754 C.ar    
   4 C4             1.2126    -1.0350    -0.6977 C.ar    
   5 C5             1.2889    -2.4132    -0.8054 C.ar    
   6 C6             0.3659    -3.2139    -0.1459 C.ar    
   7 C7            -0.6318    -2.6403     0.6200 C.ar    
   8 C8            -0.7133    -1.2678     0.7392 C.ar    
   9 O9             2.2675    -2.9826    -1.5573 O.3     
  10 C10            2.2866    -4.4099    -1.6242 C.3     
  11 N11           -1.0866     1.6169     0.2551 N.am    
  12 C12           -2.3192     0.8432     0.0537 C.3     
  13 C13           -3.1485     1.5142    -1.0457 C.3     
  14 C14           -3.3805     2.9821    -0.6800 C.3     
  15 C15           -2.0346     3.7039    -0.5816 C.3     
  16 C16           -1.1929     3.0566     0.5286 C.3     
  17 O17           -5.4017     0.6823    -0.2192 O.3     
  18 N18           -6.3531     0.0632    -0.6468 N.2     
  19 C19           -6.1515    -0.2666    -1.8930 C.2     
  20 N20           -4.9402     0.2130    -2.2433 N.2     
  21 C21           -4.4757     0.8120    -1.1741 C.2     
  22 O22           -7.0014    -0.9626    -2.6882 O.3     
  23 C23           -8.1370    -1.4575    -2.1292 C.ar    
  24 C24           -8.4722    -1.1231    -0.8253 C.ar    
  25 C25           -9.6288    -1.6284    -0.2589 C.ar    
  26 C26          -10.4506    -2.4673    -0.9935 C.ar    
  27 C27          -10.1169    -2.8006    -2.2927 C.ar    
  28 C28           -8.9656    -2.2934    -2.8639 C.ar    
  29 F29           -9.9565    -1.3041     1.0110 F       
  30 H30            1.9295    -0.4110    -1.2107 H       
  31 H31            0.4275    -4.2887    -0.2319 H       
  32 H32           -1.3473    -3.2683     1.1300 H       
  33 H33           -1.4913    -0.8230     1.3419 H       
  34 H34            3.1149    -4.7330    -2.2548 H       
  35 H35            2.4122    -4.8189    -0.6217 H       
  36 H36            1.3474    -4.7665    -2.0470 H       
  37 H37           -2.0673    -0.1736    -0.2478 H       
  38 H38           -2.8919     0.8203     0.9808 H       
  39 H39           -2.6123     1.4556    -1.9929 H       
  40 H40           -3.9912     3.4557    -1.4487 H       
  41 H41           -3.8948     3.0404     0.2792 H       
  42 H42           -1.5088     3.6247    -1.5332 H       
  43 H43           -2.2017     4.7545    -0.3441 H       
  44 H44           -1.6756     3.2105     1.4937 H       
  45 H45           -0.1976     3.5007     0.5406 H       
  46 H46           -7.8309    -0.4693    -0.2529 H       
  47 H47          -11.3532    -2.8616    -0.5504 H       
  48 H48          -10.7592    -3.4548    -2.8635 H       
  49 H49           -8.7085    -2.5509    -3.8807 H       
@<TRIPOS>BOND
   1    1    2 2
   2    1    3 1
   3    1   11 am
   4    3    4 ar
   5    3    8 ar
   6    4    5 ar
   7    4   30 1
   8    5    6 ar
   9    5    9 1
  10    6    7 ar
  11    6   31 1
  12    7    8 ar
  13    7   32 1
  14    8   33 1
  15    9   10 1
  16   10   34 1
  17   10   35 1
  18   10   36 1
  19   11   12 1
  20   11   16 1
  21   12   13 1
  22   12   37 1
  23   12   38 1
  24   13   14 1
  25   13   21 1
  26   13   39 1
  27   14   15 1
  28   14   40 1
  29   14   41 1
  30   15   16 1
  31   15   42 1
  32   15   43 1
  33   16   44 1
  34   16   45 1
  35   17   18 1
  36   17   21 1
  37   18   19 2
  38   19   20 1
  39   19   22 1
  40   20   21 2
  41   22   23 1
  42   23   24 ar
  43   23   28 ar
  44   24   25 ar
  45   24   46 1
  46   25   26 ar
  47   25   29 1
  48   26   27 ar
  49   26   47 1
  50   27   28 ar
  51   27   48 1
  52   28   49 1

#	End of record

