#	Name: ASD06170371
#	Creating user name:	WinNT
#	Creation time:	15. 06. 2019 21:05

#	Modifying user name:	WinNT
#	Modification time:	15. 06. 2019 21:05

#	Program:	/corina/corina34_cracker 3.40 0067  02.08.2006

@<TRIPOS>MOLECULE
ASD06170371
  63   67    0    0    0
SMALL
NO_CHARGES


@<TRIPOS>ATOM
   1 N1             0.1075     2.3780    -0.3912 N.am    
   2 N2             0.3500     3.6993    -0.7781 N.pl3   
   3 C3             1.6640     3.9744    -0.6730 C.2     
   4 C4             2.3134     2.8442    -0.2161 C.2     
   5 C5             1.2801     1.8117    -0.0378 C.2     
   6 C6             3.7514     2.7009     0.0405 C.2     
   7 O7             4.5001     3.6409    -0.1505 O.2     
   8 N8             4.2426     1.5283     0.4878 N.am    
   9 C9             5.6202     1.3545     0.6211 C.ar    
  10 C10            6.1255     0.1060     0.9646 C.ar    
  11 C11            8.3152     1.0470     0.8739 C.ar    
  12 C12            7.7408     2.2604     0.5288 C.ar    
  13 N13            6.4321     2.3790     0.4139 N.ar    
  14 O14            9.6650     0.9331     0.9903 O.3     
  15 N15           11.4024     2.2420     4.4945 N.ar    
  16 C16           12.1896     1.6764     3.5716 C.ar    
  17 C17           11.6321     1.2138     2.3548 C.ar    
  18 C18           10.2432     1.3606     2.1398 C.ar    
  19 C19            9.4913     1.9543     3.1383 C.ar    
  20 C20           10.1116     2.3835     4.3048 C.ar    
  21 O21            1.4498     0.6716     0.3522 O.2     
  22 C22           -1.1421     1.7500    -0.3684 C.ar    
  23 C23           12.4597     0.6222     1.3888 C.ar    
  24 C24           13.7974     0.4973     1.6303 C.ar    
  25 C25           14.3524     0.9543     2.8341 C.ar    
  26 C26           13.5697     1.5333     3.7911 C.ar    
  27 C27           -1.3015     0.4964    -0.9446 C.ar    
  28 C28           -2.5366    -0.1211    -0.9200 C.ar    
  29 O29           15.6869     0.8187     3.0513 O.3     
  30 C30           16.1941     1.3031     4.2963 C.3     
  31 C31            7.4935    -0.0553     1.0942 C.ar    
  32 C32            2.3161     5.2933    -0.9990 C.3     
  33 C33           -0.6736     4.6443    -1.2315 C.3     
  34 C34           -3.6139     0.5076    -0.3230 C.ar    
  35 C35           -3.4586     1.7560     0.2511 C.ar    
  36 C36           -2.2247     2.3763     0.2354 C.ar    
  37 O37           14.5996    -0.0765     0.6943 O.3     
  38 C38           13.9743    -0.5223    -0.5108 C.3     
  39 H39            3.6381     0.8051     0.7170 H       
  40 H40            5.4587    -0.7275     1.1286 H       
  41 H41            8.3721     3.1187     0.3523 H       
  42 H42            8.4266     2.0838     3.0111 H       
  43 H43            9.5149     2.8455     5.0774 H       
  44 H44           12.0406     0.2671     0.4590 H       
  45 H45           14.0103     1.8806     4.7139 H       
  46 H46           -0.4607     0.0052    -1.4116 H       
  47 H47           -2.6613    -1.0959    -1.3678 H       
  48 H48           17.2699     1.1337     4.3410 H       
  49 H49           15.9906     2.3706     4.3809 H       
  50 H50           15.7087     0.7746     5.1168 H       
  51 H51            7.9141    -1.0137     1.3604 H       
  52 H52            2.3309     5.9213    -0.1082 H       
  53 H53            3.3374     5.1197    -1.3381 H       
  54 H54            1.7518     5.7929    -1.7864 H       
  55 H55           -1.1308     5.1268    -0.3677 H       
  56 H56           -0.2138     5.3998    -1.8687 H       
  57 H57           -1.4376     4.1094    -1.7956 H       
  58 H58           -4.5788     0.0228    -0.3055 H       
  59 H59           -4.3020     2.2445     0.7163 H       
  60 H60           -2.1040     3.3513     0.6840 H       
  61 H61           14.7249    -0.9590    -1.1696 H       
  62 H62           13.2195    -1.2718    -0.2728 H       
  63 H63           13.5015     0.3240    -1.0093 H       
@<TRIPOS>BOND
   1    1    2 1
   2    1    5 am
   3    1   22 1
   4    2    3 1
   5    2   33 1
   6    3    4 2
   7    3   32 1
   8    4    5 1
   9    4    6 1
  10    5   21 2
  11    6    7 2
  12    6    8 am
  13    8    9 1
  14    8   39 1
  15    9   10 ar
  16    9   13 ar
  17   10   31 ar
  18   10   40 1
  19   11   12 ar
  20   11   14 1
  21   11   31 ar
  22   12   13 ar
  23   12   41 1
  24   14   18 1
  25   15   16 ar
  26   15   20 ar
  27   16   17 ar
  28   16   26 ar
  29   17   18 ar
  30   17   23 ar
  31   18   19 ar
  32   19   20 ar
  33   19   42 1
  34   20   43 1
  35   22   27 ar
  36   22   36 ar
  37   23   24 ar
  38   23   44 1
  39   24   25 ar
  40   24   37 1
  41   25   26 ar
  42   25   29 1
  43   26   45 1
  44   27   28 ar
  45   27   46 1
  46   28   34 ar
  47   28   47 1
  48   29   30 1
  49   30   48 1
  50   30   49 1
  51   30   50 1
  52   31   51 1
  53   32   52 1
  54   32   53 1
  55   32   54 1
  56   33   55 1
  57   33   56 1
  58   33   57 1
  59   34   35 ar
  60   34   58 1
  61   35   36 ar
  62   35   59 1
  63   36   60 1
  64   37   38 1
  65   38   61 1
  66   38   62 1
  67   38   63 1

#	End of record

