#	Name: ASD01630005
#	Creating user name:	WinNT
#	Creation time:	15. 06. 2019 19:22

#	Modifying user name:	WinNT
#	Modification time:	15. 06. 2019 19:22

#	Program:	/corina/corina34_cracker 3.40 0067  02.08.2006

@<TRIPOS>MOLECULE
ASD01630005
  51   53    0    0    0
SMALL
NO_CHARGES


@<TRIPOS>ATOM
   1 C1            -0.0170     1.4009     0.0119 C.ar    
   2 C2             0.0021    -0.0041     0.0075 C.ar    
   3 N3             1.1791    -0.6214    -0.0024 N.ar    
   4 C4             2.3093     0.0613    -0.0081 C.ar    
   5 N5             2.3399     1.3774    -0.0043 N.ar    
   6 C6            -0.4538     3.5249     0.0192 C.2     
   7 N7            -0.9929     2.3404     0.0162 N.2     
   8 C8             1.2126     2.0811     0.0056 C.ar    
   9 N9             0.9052     3.4182     0.0118 N.pl3   
  10 C10            1.8619     4.5276     0.0124 C.3     
  11 C11            2.3920     4.7814    -1.4162 C.3     
  12 C12            1.4771     5.9001    -1.9630 C.3     
  13 C13            0.5025     6.1899    -0.8000 C.3     
  14 O14            1.2045     5.7581     0.3861 O.3     
  15 C15            0.1961     7.6869    -0.7223 C.3     
  16 O16            2.2702     3.6011    -2.2125 O.3     
  17 O17            0.7624     5.4448    -3.1136 O.3     
  18 N18           -1.1772    -0.7282     0.0139 N.pl3   
  19 O19           -0.7938     7.9190     0.2818 O.3     
  20 P20           -1.3573     9.3851     0.6353 P.3     
  21 C21           -2.4871     9.2743     2.0616 C.3     
  22 O22           -0.2273    10.2806     0.9694 O.2     
  23 O23           -2.1522     9.9750    -0.6345 O.3     
  24 P24           -3.1252    10.9344     2.4618 P.3     
  25 C25           -4.2551    10.8236     3.8882 C.3     
  26 P26           -4.8932    12.4837     4.2884 P.3     
  27 O27           -5.8910    12.3859     5.5481 O.3     
  28 O28           -1.9953    11.8299     2.7960 O.2     
  29 O29           -3.7632    13.3792     4.6225 O.2     
  30 O30           -3.9202    11.5243     1.1921 O.3     
  31 O31           -5.6881    13.0736     3.0187 O.3     
  32 H32            3.2437    -0.4803    -0.0158 H       
  33 H33           -1.0023     4.4553     0.0228 H       
  34 H34            2.6877     4.3152     0.6914 H       
  35 H35            3.4286     5.1169    -1.3850 H       
  36 H36            2.0615     6.7886    -2.2020 H       
  37 H37           -0.4178     5.6193    -0.9250 H       
  38 H38            1.1057     8.2312    -0.4684 H       
  39 H39           -0.1767     8.0320    -1.6866 H       
  40 H40            2.5885     3.7041    -3.1198 H       
  41 H41            1.3300     5.1912    -3.8543 H       
  42 H42           -2.0300    -0.2662     0.0214 H       
  43 H43           -1.1510    -1.6979     0.0107 H       
  44 H44           -3.3194     8.6148     1.8156 H       
  45 H45           -1.9490     8.8750     2.9213 H       
  46 H46           -2.9076     9.4377    -0.9099 H       
  47 H47           -5.0873    10.1641     3.6421 H       
  48 H48           -3.7169    10.4243     4.7478 H       
  49 H49           -6.2691    13.2342     5.8172 H       
  50 H50           -4.6755    10.9870     0.9167 H       
  51 H51           -6.4435    12.5363     2.7433 H       
@<TRIPOS>BOND
   1    1    2 ar
   2    1    8 ar
   3    1    7 1
   4    2    3 ar
   5    2   18 1
   6    3    4 ar
   7    4    5 ar
   8    4   32 1
   9    5    8 ar
  10    6    7 2
  11    6    9 1
  12    6   33 1
  13    8    9 1
  14    9   10 1
  15   10   11 1
  16   10   14 1
  17   10   34 1
  18   11   12 1
  19   11   16 1
  20   11   35 1
  21   12   13 1
  22   12   17 1
  23   12   36 1
  24   13   14 1
  25   13   15 1
  26   13   37 1
  27   15   19 1
  28   15   38 1
  29   15   39 1
  30   16   40 1
  31   17   41 1
  32   18   42 1
  33   18   43 1
  34   19   20 1
  35   20   21 1
  36   20   22 2
  37   20   23 1
  38   21   24 1
  39   21   44 1
  40   21   45 1
  41   23   46 1
  42   24   25 1
  43   24   28 2
  44   24   30 1
  45   25   26 1
  46   25   47 1
  47   25   48 1
  48   26   27 1
  49   26   29 2
  50   26   31 1
  51   27   49 1
  52   30   50 1
  53   31   51 1

#	End of record

