#	Name: ASD05430057
#	Creating user name:	WinNT
#	Creation time:	15. 06. 2019 20:59

#	Modifying user name:	WinNT
#	Modification time:	15. 06. 2019 20:59

#	Program:	/corina/corina34_cracker 3.40 0067  02.08.2006

@<TRIPOS>MOLECULE
ASD05430057
  60   66    0    0    0
SMALL
NO_CHARGES


@<TRIPOS>ATOM
   1 C1             0.0575     0.7860    -0.3565 C.ar    
   2 C2             0.1919    -0.5707    -0.6746 C.ar    
   3 C3             1.4479    -1.1286    -0.8598 C.ar    
   4 C4             2.5816    -0.3555    -0.7327 C.ar    
   5 C5             2.4615     1.0015    -0.4110 C.ar    
   6 C6             1.1977     1.5586    -0.2222 C.ar    
   7 O7             5.0281    -0.0947     0.0810 O.3     
   8 C8             4.8746     1.2581    -0.1193 C.2     
   9 C9             3.6650     1.8371    -0.2730 C.2     
  10 C10            6.0390    -0.4564     1.0315 C.3     
  11 C11            7.4502     0.0707     0.7289 C.3     
  12 N12            7.3263     1.4739     0.3354 N.pl3   
  13 C13            6.1400     2.0316    -0.1529 C.2     
  14 C14           -1.2450    -2.2071    -1.8528 C.2     
  15 N15           -0.9518    -1.3713    -0.8066 N.pl3   
  16 C16           -2.4316    -2.7798    -1.5739 C.2     
  17 N17           -2.8554    -2.3101    -0.3913 N.2     
  18 C18           -1.9777    -1.4657     0.0783 C.2     
  19 C19           -3.1578    -3.7758    -2.4409 C.3     
  20 C20            8.3091     2.5542     0.3692 C.3     
  21 O21            7.7324     3.5507    -0.5017 O.3     
  22 N22            6.3546     3.2178    -0.6091 N.2     
  23 C23            8.4595     3.0933     1.7685 C.ar    
  24 C24            9.6567     2.0759    -0.1748 C.3     
  25 C25            8.1008     2.3127     2.8516 C.ar    
  26 C26            8.9614     4.3658     1.9682 C.ar    
  27 C27            9.1006     4.8608     3.2509 C.ar    
  28 C28            8.7367     4.0819     4.3363 C.ar    
  29 C29            8.2387     2.8057     4.1352 C.ar    
  30 F30            8.8724     4.5648     5.5907 F       
  31 C31           -0.7224     2.7240     0.5636 C.3     
  32 O32           -1.0678     1.5263    -0.1533 O.3     
  33 C33            5.6251    -0.5556     2.4993 C.3     
  34 C34            5.9257    -1.8255     1.6998 C.3     
  35 C35            0.7478     2.9597     0.1433 C.3     
  36 H36            1.5382    -2.1765    -1.1049 H       
  37 H37            3.5573    -0.7943    -0.8802 H       
  38 H38            3.5804     2.9136    -0.2947 H       
  39 H39            8.0733    -0.0095     1.6196 H       
  40 H40            7.8923    -0.5036    -0.0852 H       
  41 H41           -0.6423    -2.3712    -2.7339 H       
  42 H42           -2.0542    -0.9319     1.0141 H       
  43 H43           -2.8488    -4.7856    -2.1712 H       
  44 H44           -4.2325    -3.6724    -2.2910 H       
  45 H45           -2.9173    -3.5896    -3.4876 H       
  46 H46            9.5349     1.7425    -1.2054 H       
  47 H47           10.3741     2.8959    -0.1407 H       
  48 H48           10.0214     1.2486     0.4340 H       
  49 H49            7.7123     1.3173     2.6945 H       
  50 H50            9.2452     4.9732     1.1215 H       
  51 H51            9.4934     5.8547     3.4068 H       
  52 H52            7.9542     2.1974     4.9811 H       
  53 H53           -1.3520     3.5568     0.2507 H       
  54 H54           -0.7961     2.5652     1.6395 H       
  55 H55            6.3537    -0.2489     3.2497 H       
  56 H56            4.5830    -0.3494     2.7435 H       
  57 H57            5.0814    -2.4548     1.4182 H       
  58 H58            6.8520    -2.3542     1.9244 H       
  59 H59            1.3324     3.3519     0.9756 H       
  60 H60            0.8052     3.6245    -0.7186 H       
@<TRIPOS>BOND
   1    1    2 ar
   2    1    6 ar
   3    1   32 1
   4    2    3 ar
   5    2   15 1
   6    3    4 ar
   7    3   36 1
   8    4    5 ar
   9    4   37 1
  10    5    6 ar
  11    5    9 1
  12    6   35 1
  13    7    8 1
  14    7   10 1
  15    8    9 2
  16    8   13 1
  17    9   38 1
  18   10   11 1
  19   10   33 1
  20   10   34 1
  21   11   12 1
  22   11   39 1
  23   11   40 1
  24   12   13 1
  25   12   20 1
  26   13   22 2
  27   14   15 1
  28   14   16 2
  29   14   41 1
  30   15   18 1
  31   16   17 1
  32   16   19 1
  33   17   18 2
  34   18   42 1
  35   19   43 1
  36   19   44 1
  37   19   45 1
  38   20   21 1
  39   20   23 1
  40   20   24 1
  41   21   22 1
  42   23   25 ar
  43   23   26 ar
  44   24   46 1
  45   24   47 1
  46   24   48 1
  47   25   29 ar
  48   25   49 1
  49   26   27 ar
  50   26   50 1
  51   27   28 ar
  52   27   51 1
  53   28   29 ar
  54   28   30 1
  55   29   52 1
  56   31   32 1
  57   31   35 1
  58   31   53 1
  59   31   54 1
  60   33   34 1
  61   33   55 1
  62   33   56 1
  63   34   57 1
  64   34   58 1
  65   35   59 1
  66   35   60 1

#	End of record

