#	Name: ASD01901378
#	Creating user name:	WinNT
#	Creation time:	15. 06. 2019 19:53

#	Modifying user name:	WinNT
#	Modification time:	15. 06. 2019 19:53

#	Program:	/corina/corina34_cracker 3.40 0067  02.08.2006

@<TRIPOS>MOLECULE
ASD01901378
  40   43    0    0    0
SMALL
NO_CHARGES


@<TRIPOS>ATOM
   1 C1            -0.0169     1.3953     0.0097 C.ar    
   2 C2             1.1768     2.1007     0.0021 C.ar    
   3 C3             2.3828     1.4219    -0.0135 C.ar    
   4 C4             2.4038     0.0346    -0.0216 C.ar    
   5 C5             1.2202    -0.6786    -0.0142 C.ar    
   6 C6             0.0021    -0.0041     0.0020 C.ar    
   7 C7            -1.2710    -0.7660     0.0106 C.2     
   8 N8            -3.1794    -1.5367    -1.1468 N.2     
   9 C9            -2.0559    -0.8621    -1.1593 C.2     
  10 C10           -1.6979    -1.3898     1.1496 C.2     
  11 N11           -2.8727    -2.0822     1.1226 N.pl3   
  12 C12           -3.6087    -2.1474    -0.0322 C.2     
  13 C13           -3.5499    -2.7953     2.0747 C.2     
  14 C14           -4.6688    -3.2742     1.4905 C.2     
  15 N15           -4.6903    -2.8725     0.2163 N.2     
  16 C16           -5.7192    -4.1196     2.1636 C.3     
  17 O17           -5.3509    -4.3412     3.5264 O.3     
  18 C18           -6.1976    -5.0912     4.2805 C.ar    
  19 C19           -7.3557    -5.6075     3.7180 C.ar    
  20 C20           -5.9015    -5.3457     5.6115 C.ar    
  21 C21           -6.7627    -6.1084     6.3764 C.ar    
  22 C22           -7.9207    -6.6191     5.8150 C.ar    
  23 C23           -8.2151    -6.3699     4.4853 C.ar    
  24 F24           -8.7615    -7.3655     6.5640 F       
  25 N25           -1.2346     2.0792     0.0308 N.pl3   
  26 F26            3.5438     2.1127    -0.0213 F       
  27 F27            3.5850    -0.6209    -0.0373 F       
  28 H28            1.1655     3.1807     0.0080 H       
  29 H29            1.2398    -1.7584    -0.0212 H       
  30 H30           -1.7293    -0.3776    -2.0676 H       
  31 H31           -1.1139    -1.3355     2.0565 H       
  32 H32           -3.2461    -2.9467     3.1000 H       
  33 H33           -6.6791    -3.6046     2.1258 H       
  34 H34           -5.7999    -5.0769     1.6488 H       
  35 H35           -7.5856    -5.4133     2.6808 H       
  36 H36           -4.9980    -4.9480     6.0495 H       
  37 H37           -6.5324    -6.3066     7.4128 H       
  38 H38           -9.1168    -6.7720     4.0476 H       
  39 H39           -2.0687     1.5843     0.0402 H       
  40 H40           -1.2461     3.0491     0.0361 H       
@<TRIPOS>BOND
   1    1    6 ar
   2    1    2 ar
   3    1   25 1
   4    2    3 ar
   5    2   28 1
   6    3    4 ar
   7    3   26 1
   8    4    5 ar
   9    4   27 1
  10    5    6 ar
  11    5   29 1
  12    6    7 1
  13    7   10 2
  14    7    9 1
  15    8    9 2
  16    8   12 1
  17    9   30 1
  18   10   11 1
  19   10   31 1
  20   11   13 1
  21   11   12 1
  22   12   15 2
  23   13   14 2
  24   13   32 1
  25   14   15 1
  26   14   16 1
  27   16   17 1
  28   16   33 1
  29   16   34 1
  30   17   18 1
  31   18   20 ar
  32   18   19 ar
  33   19   23 ar
  34   19   35 1
  35   20   21 ar
  36   20   36 1
  37   21   22 ar
  38   21   37 1
  39   22   23 ar
  40   22   24 1
  41   23   38 1
  42   25   39 1
  43   25   40 1

#	End of record

