#	Name: ASD01916525
#	Creating user name:	WinNT
#	Creation time:	15. 06. 2019 20:07

#	Modifying user name:	WinNT
#	Modification time:	15. 06. 2019 20:07

#	Program:	/corina/corina34_cracker 3.40 0067  02.08.2006

@<TRIPOS>MOLECULE
ASD01916525
  25   25    0    0    0
SMALL
NO_CHARGES


@<TRIPOS>ATOM
   1 C1            -0.0184     1.5028     0.0103 C.2     
   2 C2             0.0021    -0.0041     0.0020 C.3     
   3 N3             1.0915     2.1639     0.0033 N.2     
   4 N4            -1.2203     2.1751     0.0197 N.pl3   
   5 C5             1.4295    -0.4870    -0.0142 C.ar    
   6 C6             2.0947    -0.7146     1.1764 C.ar    
   7 C7             3.4032    -1.1573     1.1642 C.ar    
   8 C8             4.0499    -1.3735    -0.0440 C.ar    
   9 C9             3.3803    -1.1444    -1.2372 C.ar    
  10 C10            2.0699    -0.7071    -1.2197 C.ar    
  11 O11            5.3372    -1.8086    -0.0586 O.3     
  12 C12            5.9396    -2.0097    -1.3388 C.3     
  13 O13            1.0723     3.5797     0.0110 O.3     
  14 H14           -0.4983    -0.3791     0.8948 H       
  15 H15           -0.5153    -0.3696    -0.8850 H       
  16 H16           -2.0537     1.6787     0.0209 H       
  17 H17           -1.2334     3.1450     0.0250 H       
  18 H18            1.5909    -0.5458     2.1167 H       
  19 H19            3.9224    -1.3346     2.0944 H       
  20 H20            3.8815    -1.3120    -2.1791 H       
  21 H21            1.5467    -0.5332    -2.1483 H       
  22 H22            5.3718    -2.7562    -1.8942 H       
  23 H23            5.9417    -1.0699    -1.8910 H       
  24 H24            6.9646    -2.3564    -1.2076 H       
  25 H25            1.9502     3.9850     0.0048 H       
@<TRIPOS>BOND
   1    1    2 1
   2    1    3 2
   3    1    4 1
   4    2    5 1
   5    2   14 1
   6    2   15 1
   7    3   13 1
   8    4   16 1
   9    4   17 1
  10    5    6 ar
  11    5   10 ar
  12    6    7 ar
  13    6   18 1
  14    7    8 ar
  15    7   19 1
  16    8    9 ar
  17    8   11 1
  18    9   10 ar
  19    9   20 1
  20   10   21 1
  21   11   12 1
  22   12   22 1
  23   12   23 1
  24   12   24 1
  25   13   25 1

#	End of record

