#	Name: ASD00311240
#	Creating user name:	WinNT
#	Creation time:	15. 06. 2019 18:34

#	Modifying user name:	WinNT
#	Modification time:	15. 06. 2019 18:34

#	Program:	/corina/corina34_cracker 3.40 0067  02.08.2006

@<TRIPOS>MOLECULE
ASD00311240
  43   46    0    0    0
SMALL
NO_CHARGES


@<TRIPOS>ATOM
   1 C1            -0.0167     1.3776     0.0096 C.2     
   2 C2             0.0021    -0.0041     0.0020 C.2     
   3 C3             1.2591    -0.6767    -0.0128 C.2     
   4 C4             2.4314     0.0670    -0.0193 C.2     
   5 C5             2.3574     1.4748    -0.0111 C.2     
   6 N6             1.1649     2.0901     0.0022 N.am    
   7 C7            -1.3430    -0.5751     0.0118 C.2     
   8 C8            -2.3224     0.3256     0.0260 C.2     
   9 S9            -1.6793     1.9559     0.0358 S.3     
  10 O10            3.3824     2.1368    -0.0163 O.2     
  11 C11           -1.5954    -2.0355     0.0059 C.ar    
  12 C12           -2.2061    -2.6447     1.1013 C.ar    
  13 C13           -2.4389    -4.0048     1.0899 C.ar    
  14 C14           -2.0676    -4.7637    -0.0055 C.ar    
  15 C15           -1.4609    -4.1649    -1.0951 C.ar    
  16 C16           -1.2282    -2.8048    -1.0976 C.ar    
  17 C17           -3.7911    -0.0118     0.0381 C.3     
  18 C18            3.7480    -0.6125    -0.0343 C.ar    
  19 C19            4.5935    -0.4743    -1.1348 C.ar    
  20 C20            5.8183    -1.1084    -1.1452 C.ar    
  21 C21            6.2099    -1.8833    -0.0622 C.ar    
  22 C22            5.3710    -2.0230     1.0347 C.ar    
  23 C23            4.1471    -1.3872     1.0546 C.ar    
  24 O24            7.4176    -2.5071    -0.0762 O.3     
  25 C25            7.7573    -3.2886     1.0709 C.3     
  26 O26            1.3092    -2.0294    -0.0201 O.3     
  27 H27            1.1328     3.0596     0.0073 H       
  28 H28           -2.4961    -2.0533     1.9572 H       
  29 H29           -2.9116    -4.4778     1.9380 H       
  30 H30           -2.2518    -5.8278    -0.0100 H       
  31 H31           -1.1725    -4.7626    -1.9472 H       
  32 H32           -0.7585    -2.3377    -1.9506 H       
  33 H33           -4.1354    -0.0987     1.0687 H       
  34 H34           -4.3493     0.7770    -0.4662 H       
  35 H35           -3.9509    -0.9578    -0.4793 H       
  36 H36            4.2893     0.1281    -1.9779 H       
  37 H37            6.4734    -1.0021    -1.9973 H       
  38 H38            5.6789    -2.6267     1.8757 H       
  39 H39            3.4970    -1.4925     1.9105 H       
  40 H40            7.7671    -2.6511     1.9550 H       
  41 H41            7.0200    -4.0806     1.2023 H       
  42 H42            8.7439    -3.7303     0.9305 H       
  43 H43            2.2065    -2.3897    -0.0301 H       
@<TRIPOS>BOND
   1    1    2 2
   2    1    6 1
   3    1    9 1
   4    2    3 1
   5    2    7 1
   6    3    4 2
   7    3   26 1
   8    4    5 1
   9    4   18 1
  10    5    6 am
  11    5   10 2
  12    6   27 1
  13    7    8 2
  14    7   11 1
  15    8    9 1
  16    8   17 1
  17   11   12 ar
  18   11   16 ar
  19   12   13 ar
  20   12   28 1
  21   13   14 ar
  22   13   29 1
  23   14   15 ar
  24   14   30 1
  25   15   16 ar
  26   15   31 1
  27   16   32 1
  28   17   33 1
  29   17   34 1
  30   17   35 1
  31   18   19 ar
  32   18   23 ar
  33   19   20 ar
  34   19   36 1
  35   20   21 ar
  36   20   37 1
  37   21   22 ar
  38   21   24 1
  39   22   23 ar
  40   22   38 1
  41   23   39 1
  42   24   25 1
  43   25   40 1
  44   25   41 1
  45   25   42 1
  46   26   43 1

#	End of record

