#	Name: ASD01916429
#	Creating user name:	WinNT
#	Creation time:	15. 06. 2019 20:07

#	Modifying user name:	WinNT
#	Modification time:	15. 06. 2019 20:07

#	Program:	/corina/corina34_cracker 3.40 0067  02.08.2006

@<TRIPOS>MOLECULE
ASD01916429
  41   44    0    0    0
SMALL
NO_CHARGES


@<TRIPOS>ATOM
   1 C1            -0.0171     1.4091     0.0098 C.ar    
   2 C2             0.0021    -0.0041     0.0020 C.ar    
   3 C3            -1.1924    -0.7258     0.0124 C.ar    
   4 C4            -2.3857    -0.0660     0.0290 C.ar    
   5 C5            -2.4255     1.3367     0.0349 C.ar    
   6 C6            -1.2433     2.0767     0.0309 C.ar    
   7 N7             1.1590     2.0796     0.0022 N.2     
   8 C8             2.3136     1.4691    -0.0138 C.2     
   9 N9             2.4214     0.1126    -0.0277 N.am    
  10 C10            1.3106    -0.6682    -0.0176 C.2     
  11 C11            3.7020     2.0883    -0.0182 C.3     
  12 C12            4.6392     0.9330     0.3942 C.3     
  13 C13            3.8340    -0.3038    -0.0544 C.3     
  14 C14           -3.6878     2.0126     0.0503 C.1     
  15 C15           -4.7228     2.5667     0.0629 C.1     
  16 C16           -5.9851     3.2426     0.0782 C.ar    
  17 N17           -6.0222     4.5717     0.0838 N.ar    
  18 C18           -7.1629     5.2297     0.0979 C.ar    
  19 C19           -8.3716     4.5573     0.1073 C.ar    
  20 C20           -8.3801     3.1688     0.1019 C.ar    
  21 C21           -7.1693     2.5007     0.0814 C.ar    
  22 O22            1.3976    -1.8825    -0.0251 O.2     
  23 C23            5.9727     1.0176    -0.3513 C.3     
  24 C24            4.8608     0.9221     1.9080 C.3     
  25 F25           -1.2843     3.4270     0.0374 F       
  26 H26           -1.1717    -1.8056     0.0070 H       
  27 H27           -3.3081    -0.6278     0.0372 H       
  28 H28            3.9558     2.4469    -1.0157 H       
  29 H29            3.7586     2.9014     0.7055 H       
  30 H30            3.9963    -1.1303     0.6374 H       
  31 H31            4.1220    -0.5948    -1.0645 H       
  32 H32           -7.1545     6.3097     0.1024 H       
  33 H33           -9.3008     5.1076     0.1192 H       
  34 H34           -9.3117     2.6227     0.1091 H       
  35 H35           -7.1394     1.4211     0.0763 H       
  36 H36            6.4721     1.9526    -0.0975 H       
  37 H37            6.6046     0.1779    -0.0619 H       
  38 H38            5.7912     0.9825    -1.4255 H       
  39 H39            3.9012     0.8201     2.4149 H       
  40 H40            5.5037     0.0834     2.1751 H       
  41 H41            5.3353     1.8549     2.2125 H       
@<TRIPOS>BOND
   1    1    2 ar
   2    1    7 1
   3    1    6 ar
   4    2    3 ar
   5    2   10 1
   6    3    4 ar
   7    3   26 1
   8    4    5 ar
   9    4   27 1
  10    5    6 ar
  11    5   14 1
  12    6   25 1
  13    7    8 2
  14    8    9 1
  15    8   11 1
  16    9   10 am
  17    9   13 1
  18   10   22 2
  19   11   12 1
  20   11   28 1
  21   11   29 1
  22   12   13 1
  23   12   23 1
  24   12   24 1
  25   13   30 1
  26   13   31 1
  27   14   15 3
  28   15   16 1
  29   16   17 ar
  30   16   21 ar
  31   17   18 ar
  32   18   19 ar
  33   18   32 1
  34   19   20 ar
  35   19   33 1
  36   20   21 ar
  37   20   34 1
  38   21   35 1
  39   23   36 1
  40   23   37 1
  41   23   38 1
  42   24   39 1
  43   24   40 1
  44   24   41 1

#	End of record

