#	Name: ASD01915791
#	Creating user name:	WinNT
#	Creation time:	15. 06. 2019 20:06

#	Modifying user name:	WinNT
#	Modification time:	15. 06. 2019 20:06

#	Program:	/corina/corina34_cracker 3.40 0067  02.08.2006

@<TRIPOS>MOLECULE
ASD01915791
  51   54    0    0    0
SMALL
NO_CHARGES


@<TRIPOS>ATOM
   1 C1            -0.3504     1.1210     0.4791 C.2     
   2 N2            -0.3077    -0.1798     0.0295 N.pl3   
   3 C3            -1.5065    -0.8401    -0.5011 C.3     
   4 C4            -2.7451    -0.2637     0.1829 C.3     
   5 N5            -2.7369     1.1946     0.2228 N.am    
   6 C6            -1.6039     1.8899     0.4854 C.2     
   7 C7             0.9153     1.4483     0.8772 C.2     
   8 C8             1.6764     0.2933     0.6522 C.2     
   9 N9             0.8811    -0.6251     0.1552 N.2     
  10 C10            3.1488     0.1341     0.9309 C.3     
  11 O11            3.6666     1.3530     1.4676 O.3     
  12 C12            4.9899     1.3784     1.7761 C.ar    
  13 O13           -1.6227     3.0844     0.7141 O.2     
  14 C14            5.5591     2.5296     2.3010 C.ar    
  15 C15            5.7727     0.2514     1.5718 C.ar    
  16 C16            7.1176     0.2797     1.8861 C.ar    
  17 C17            7.6837     1.4301     2.4039 C.ar    
  18 C18            6.9044     2.5528     2.6137 C.ar    
  19 C19           -3.9212     1.8882    -0.0145 C.ar    
  20 N20           -3.8858     3.1977    -0.2094 N.ar    
  21 C21           -5.1266     1.1984    -0.0498 C.ar    
  22 C22           -6.2998     1.8964    -0.2865 C.ar    
  23 C23           -6.2283     3.2661    -0.4806 C.ar    
  24 C24           -4.9891     3.8943    -0.4381 C.ar    
  25 N25           -4.9074     5.2682    -0.6317 N.3     
  26 C26           -4.3186     5.9309     0.5397 C.3     
  27 C27           -4.1509     5.5840    -1.8507 C.3     
  28 C28           -7.4791     4.0650    -0.7416 C.3     
  29 H29           -1.5711    -0.6682    -1.5755 H       
  30 H30           -1.4484    -1.9109    -0.3062 H       
  31 H31           -3.6320    -0.5963    -0.3564 H       
  32 H32           -2.7928    -0.6437     1.2034 H       
  33 H33            1.2552     2.3919     1.2777 H       
  34 H34            3.2975    -0.6716     1.6499 H       
  35 H35            3.6702    -0.1053     0.0041 H       
  36 H36            4.9509     3.4069     2.4648 H       
  37 H37            5.3310    -0.6475     1.1677 H       
  38 H38            7.7273    -0.5975     1.7276 H       
  39 H39            8.7353     1.4502     2.6490 H       
  40 H40            7.3490     3.4502     3.0179 H       
  41 H41           -5.1488     0.1298     0.1051 H       
  42 H42           -7.2497     1.3836    -0.3193 H       
  43 H43           -3.2903     5.5936     0.6693 H       
  44 H44           -4.3308     7.0106     0.3906 H       
  45 H45           -4.8980     5.6803     1.4283 H       
  46 H46           -4.5991     5.0687    -2.7002 H       
  47 H47           -4.1745     6.6598    -2.0246 H       
  48 H48           -3.1176     5.2578    -1.7319 H       
  49 H49           -7.8759     4.4376     0.2028 H       
  50 H50           -7.2436     4.9061    -1.3937 H       
  51 H51           -8.2226     3.4294    -1.2225 H       
@<TRIPOS>BOND
   1    1    2 1
   2    1    7 2
   3    1    6 1
   4    2    3 1
   5    2    9 1
   6    3    4 1
   7    3   29 1
   8    3   30 1
   9    4    5 1
  10    4   31 1
  11    4   32 1
  12    5    6 am
  13    5   19 1
  14    6   13 2
  15    7    8 1
  16    7   33 1
  17    8    9 2
  18    8   10 1
  19   10   11 1
  20   10   34 1
  21   10   35 1
  22   11   12 1
  23   12   14 ar
  24   12   15 ar
  25   14   18 ar
  26   14   36 1
  27   15   16 ar
  28   15   37 1
  29   16   17 ar
  30   16   38 1
  31   17   18 ar
  32   17   39 1
  33   18   40 1
  34   19   21 ar
  35   19   20 ar
  36   20   24 ar
  37   21   22 ar
  38   21   41 1
  39   22   23 ar
  40   22   42 1
  41   23   24 ar
  42   23   28 1
  43   24   25 1
  44   25   26 1
  45   25   27 1
  46   26   43 1
  47   26   44 1
  48   26   45 1
  49   27   46 1
  50   27   47 1
  51   27   48 1
  52   28   49 1
  53   28   50 1
  54   28   51 1

#	End of record

