#	Name: ASD03430516
#	Creating user name:	WinNT
#	Creation time:	15. 06. 2019 20:41

#	Modifying user name:	WinNT
#	Modification time:	15. 06. 2019 20:41

#	Program:	/corina/corina34_cracker 3.40 0067  02.08.2006

@<TRIPOS>MOLECULE
ASD03430516
  38   41    0    0    0
SMALL
NO_CHARGES


@<TRIPOS>ATOM
   1 N1            -0.0161     1.3395     0.0094 N.am    
   2 C2             0.0021    -0.0041     0.0020 C.2     
   3 C3             1.4548    -0.4298    -0.0141 C.3     
   4 C4             2.2197     0.8737    -0.0144 C.ar    
   5 C5             3.5641     1.1705    -0.0263 C.ar    
   6 C6             3.9795     2.4906    -0.0239 C.ar    
   7 C7             3.0415     3.5068    -0.0095 C.ar    
   8 C8             1.6940     3.2122     0.0024 C.ar    
   9 C9             1.2680     1.8853     0.0001 C.ar    
  10 O10           -0.9637    -0.7377     0.0076 O.2     
  11 C11            0.6805     4.3274     0.0181 C.3     
  12 F12            1.3430     5.5596     0.0176 F       
  13 F13           -0.1325     4.2346    -1.1166 F       
  14 F14           -0.1098     4.2233     1.1678 F       
  15 C15            1.7880    -1.2466     1.2360 C.3     
  16 O16            0.9870    -2.4298     1.2594 O.3     
  17 O17            2.3365    -3.3563    -4.7356 O.3     
  18 C18            1.1372    -2.9536    -5.4230 C.3     
  19 O19            0.2347    -2.6003    -4.3581 O.3     
  20 C20            1.0316    -2.2119    -3.3188 C.ar    
  21 C21            2.3239    -2.6770    -3.5516 C.ar    
  22 C22            0.7551    -1.4848    -2.1731 C.ar    
  23 C23            1.7593    -1.2210    -1.2601 C.ar    
  24 C24            3.0463    -1.6831    -1.4895 C.ar    
  25 C25            3.3282    -2.4115    -2.6357 C.ar    
  26 O26            4.0326    -1.4218    -0.5907 O.3     
  27 H27           -0.8287     1.8692     0.0162 H       
  28 H28            4.2935     0.3741    -0.0372 H       
  29 H29            5.0333     2.7266    -0.0329 H       
  30 H30            3.3659     4.5370    -0.0072 H       
  31 H31            2.8425    -1.5220     1.2197 H       
  32 H32            1.5818    -0.6506     2.1250 H       
  33 H33            1.1456    -2.9970     2.0263 H       
  34 H34            1.3325    -2.0918    -6.0612 H       
  35 H35            0.7347    -3.7809    -6.0075 H       
  36 H36           -0.2466    -1.1240    -1.9921 H       
  37 H37            4.3307    -2.7714    -2.8140 H       
  38 H38            4.1256    -2.0944     0.0978 H       
@<TRIPOS>BOND
   1    1    2 am
   2    1    9 1
   3    1   27 1
   4    2    3 1
   5    2   10 2
   6    3    4 1
   7    3   15 1
   8    3   23 1
   9    4    5 ar
  10    4    9 ar
  11    5    6 ar
  12    5   28 1
  13    6    7 ar
  14    6   29 1
  15    7    8 ar
  16    7   30 1
  17    8    9 ar
  18    8   11 1
  19   11   12 1
  20   11   13 1
  21   11   14 1
  22   15   16 1
  23   15   31 1
  24   15   32 1
  25   16   33 1
  26   17   18 1
  27   17   21 1
  28   18   19 1
  29   18   34 1
  30   18   35 1
  31   19   20 1
  32   20   21 ar
  33   20   22 ar
  34   21   25 ar
  35   22   23 ar
  36   22   36 1
  37   23   24 ar
  38   24   25 ar
  39   24   26 1
  40   25   37 1
  41   26   38 1

#	End of record

