#	Name: ASD03540351
#	Creating user name:	WinNT
#	Creation time:	15. 06. 2019 20:43

#	Modifying user name:	WinNT
#	Modification time:	15. 06. 2019 20:43

#	Program:	/corina/corina34_cracker 3.40 0067  02.08.2006

@<TRIPOS>MOLECULE
ASD03540351
  64   68    0    0    0
SMALL
NO_CHARGES


@<TRIPOS>ATOM
   1 C1            -0.0161     1.3365     0.0094 C.2     
   2 N2             0.0021    -0.0041     0.0020 N.am    
   3 C3             1.1934    -0.7075    -0.0132 C.2     
   4 C4             2.3927    -0.0052    -0.0209 C.2     
   5 C5             2.3194     1.4731    -0.0123 C.2     
   6 N6             1.1112     2.0659     0.0025 N.am    
   7 C7             3.5132    -0.8389    -0.0357 C.2     
   8 C8             3.2261    -2.1513    -0.0396 C.2     
   9 S9             1.4880    -2.3901    -0.0245 S.3     
  10 C10            4.2202    -3.2270    -0.0552 C.2     
  11 O11            5.4074    -2.9586    -0.0657 O.2     
  12 N12            3.8203    -4.5141    -0.0579 N.am    
  13 C13            4.8145    -5.5900    -0.0735 C.3     
  14 C14            4.1120    -6.9232    -0.0734 C.ar    
  15 C15            3.7782    -7.5277    -1.2701 C.ar    
  16 C16            3.1316    -8.7548    -1.2694 C.ar    
  17 C17            2.8215    -9.3723    -0.0661 C.ar    
  18 C18            3.1574    -8.7639     1.1276 C.ar    
  19 C19            3.8071    -7.5431     1.1241 C.ar    
  20 O20            2.8018    -9.3511    -2.4452 O.3     
  21 C21            2.1374   -10.6139    -2.3682 C.3     
  22 O22            3.3359     2.1421    -0.0183 O.2     
  23 O23           -1.0880     1.9102     0.0175 O.2     
  24 C24           -1.2652    -0.7390     0.0107 C.3     
  25 C25            1.0247     3.5284     0.0113 C.3     
  26 C26            1.0086     4.0221     1.4350 C.ar    
  27 C27            2.1963     4.3193     2.0769 C.ar    
  28 C28            2.1816     4.7722     3.3829 C.ar    
  29 C29            0.9792     4.9283     4.0468 C.ar    
  30 C30           -0.2085     4.6320     3.4046 C.ar    
  31 C31           -0.1940     4.1833     2.0972 C.ar    
  32 S32            0.9605     5.5045     5.7118 S.o2    
  33 O33           -0.2597     5.0492     6.2803 O.2     
  34 O34            2.2354     5.1951     6.2578 O.2     
  35 N35            0.8634     7.1568     5.6577 N.am    
  36 C36           -0.3312     7.8027     5.1083 C.3     
  37 C37           -0.7825     9.1162     5.7501 C.3     
  38 C38           -0.1395     9.1245     4.3619 C.3     
  39 H39            4.5248    -0.4605    -0.0436 H       
  40 H40            2.8742    -4.7281    -0.0495 H       
  41 H41            5.4295    -5.5035    -0.9692 H       
  42 H42            5.4474    -5.5127     0.8106 H       
  43 H43            4.0202    -7.0449    -2.2054 H       
  44 H44            2.3178   -10.3276    -0.0628 H       
  45 H45            2.9160    -9.2439     2.0645 H       
  46 H46            4.0731    -7.0713     2.0584 H       
  47 H47            1.1993   -10.4985    -1.8252 H       
  48 H48            1.9320   -10.9784    -3.3747 H       
  49 H49            2.7739   -11.3282    -1.8460 H       
  50 H50           -2.0950    -0.0323     0.0228 H       
  51 H51           -1.3306    -1.3610    -0.8820 H       
  52 H52           -1.3129    -1.3705     0.8978 H       
  53 H53            1.8867     3.9464    -0.5086 H       
  54 H54            0.1099     3.8413    -0.4921 H       
  55 H55            3.1357     4.1973     1.5582 H       
  56 H56            3.1095     5.0037     3.8846 H       
  57 H57           -1.1479     4.7537     3.9234 H       
  58 H58           -1.1222     3.9553     1.5942 H       
  59 H59            1.5975     7.6969     5.9899 H       
  60 H60           -1.1061     7.1274     4.7456 H       
  61 H61           -1.8544     9.3051     5.8094 H       
  62 H62           -0.1907     9.4997     6.5812 H       
  63 H63            0.8754     9.5134     4.2796 H       
  64 H64           -0.7883     9.3189     3.5078 H       
@<TRIPOS>BOND
   1    1    2 am
   2    1    6 am
   3    1   23 2
   4    2    3 1
   5    2   24 1
   6    3    4 2
   7    3    9 1
   8    4    5 1
   9    4    7 1
  10    5    6 am
  11    5   22 2
  12    6   25 1
  13    7    8 2
  14    7   39 1
  15    8    9 1
  16    8   10 1
  17   10   11 2
  18   10   12 am
  19   12   13 1
  20   12   40 1
  21   13   14 1
  22   13   41 1
  23   13   42 1
  24   14   15 ar
  25   14   19 ar
  26   15   16 ar
  27   15   43 1
  28   16   17 ar
  29   16   20 1
  30   17   18 ar
  31   17   44 1
  32   18   19 ar
  33   18   45 1
  34   19   46 1
  35   20   21 1
  36   21   47 1
  37   21   48 1
  38   21   49 1
  39   24   50 1
  40   24   51 1
  41   24   52 1
  42   25   26 1
  43   25   53 1
  44   25   54 1
  45   26   27 ar
  46   26   31 ar
  47   27   28 ar
  48   27   55 1
  49   28   29 ar
  50   28   56 1
  51   29   30 ar
  52   29   32 1
  53   30   31 ar
  54   30   57 1
  55   31   58 1
  56   32   33 2
  57   32   34 2
  58   32   35 am
  59   35   36 1
  60   35   59 1
  61   36   37 1
  62   36   38 1
  63   36   60 1
  64   37   38 1
  65   37   61 1
  66   37   62 1
  67   38   63 1
  68   38   64 1

#	End of record

