#	Name: ASD08170453
#	Creating user name:	WinNT
#	Creation time:	15. 06. 2019 21:17

#	Modifying user name:	WinNT
#	Modification time:	15. 06. 2019 21:17

#	Program:	/corina/corina34_cracker 3.40 0067  02.08.2006

@<TRIPOS>MOLECULE
ASD08170453
  64   67    0    0    0
SMALL
NO_CHARGES


@<TRIPOS>ATOM
   1 N1             0.1724     0.7997     0.1167 N.ar    
   2 C2             0.3881    -0.4977     0.0269 C.ar    
   3 C3            -0.7731    -1.4580     0.0496 C.3     
   4 C4            -3.6279    -1.9476     2.5866 C.3     
   5 C5            -4.7891    -2.9079     2.6093 C.2     
   6 N6            -4.7945    -4.0876     3.1439 N.2     
   7 N7            -5.8708    -4.7419     3.0578 N.2     
   8 C8            -6.8701    -4.1810     2.4464 C.2     
   9 S9            -6.3875    -2.6241     1.9193 S.3     
  10 N10           -8.1257    -4.7481     2.2562 N.am    
  11 C11           -2.7900    -2.1902     1.3296 C.3     
  12 C12           -1.6110    -1.2153     1.3066 C.3     
  13 C13           -8.3849    -5.9844     2.7261 C.2     
  14 O14           -7.5232    -6.6024     3.3148 O.2     
  15 C15           -9.7454    -6.5989     2.5201 C.3     
  16 C16           -9.9806    -6.8162     1.0475 C.ar    
  17 C17          -10.6617    -5.8669     0.3090 C.ar    
  18 C18          -10.8778    -6.0657    -1.0420 C.ar    
  19 C19          -10.4129    -7.2139    -1.6548 C.ar    
  20 C20           -9.7311    -8.1644    -0.9160 C.ar    
  21 C21           -9.5103    -7.9624     0.4342 C.ar    
  22 N22            3.4038     2.2567    -0.0188 N.am    
  23 C23            3.0827     3.5656    -0.0267 C.2     
  24 O24            1.9189     3.9055    -0.1176 O.2     
  25 N25            4.0517     4.4978     0.0661 N.am    
  26 C26            3.7026     5.9206     0.0575 C.3     
  27 C27            4.9579     6.7464     0.1724 C.ar    
  28 C28            5.6318     7.1421    -0.9680 C.ar    
  29 C29            6.7833     7.8996    -0.8626 C.ar    
  30 C30            7.2607     8.2619     0.3831 C.ar    
  31 C31            6.5863     7.8670     1.5234 C.ar    
  32 C32            5.4324     7.1132     1.4179 C.ar    
  33 O33           -9.8102    -7.8526     3.2029 O.3     
  34 Br34          -9.0953    -9.7360    -1.7537 Br      
  35 C35            1.6845    -0.9792    -0.0891 C.ar    
  36 C36            2.7218    -0.0599    -0.1063 C.ar    
  37 C37            2.3972     1.2920    -0.0059 C.ar    
  38 N38            1.1283     1.6560     0.1014 N.ar    
  39 H39           -1.3910    -1.3019    -0.8347 H       
  40 H40           -0.3982    -2.4814     0.0548 H       
  41 H41           -4.0028    -0.9242     2.5814 H       
  42 H42           -3.0099    -2.1037     3.4709 H       
  43 H43           -8.8148    -4.2538     1.7854 H       
  44 H44           -2.4150    -3.2137     1.3349 H       
  45 H45           -3.4079    -2.0342     0.4454 H       
  46 H46           -0.9931    -1.3714     2.1908 H       
  47 H47           -1.9859    -0.1919     1.3014 H       
  48 H48          -10.5099    -5.9300     2.9153 H       
  49 H49          -11.0254    -4.9696     0.7876 H       
  50 H50          -11.4103    -5.3238    -1.6186 H       
  51 H51          -10.5820    -7.3693    -2.7101 H       
  52 H52           -8.9778    -8.7040     1.0113 H       
  53 H53            4.3352     1.9858    -0.0221 H       
  54 H54            4.9802     4.2266     0.1386 H       
  55 H55            3.1918     6.1637    -0.8742 H       
  56 H56            3.0459     6.1387     0.8996 H       
  57 H57            5.2588     6.8590    -1.9412 H       
  58 H58            7.3101     8.2081    -1.7535 H       
  59 H59            8.1607     8.8531     0.4654 H       
  60 H60            6.9595     8.1498     2.4966 H       
  61 H61            4.9056     6.8047     2.3087 H       
  62 H62           -9.1567    -8.4986     2.9018 H       
  63 H63            1.8795    -2.0389    -0.1634 H       
  64 H64            3.7492    -0.3810    -0.1943 H       
@<TRIPOS>BOND
   1    1    2 ar
   2    1   38 ar
   3    2    3 1
   4    2   35 ar
   5    3   12 1
   6    3   39 1
   7    3   40 1
   8    4    5 1
   9    4   11 1
  10    4   41 1
  11    4   42 1
  12    5    6 2
  13    5    9 1
  14    6    7 1
  15    7    8 2
  16    8    9 1
  17    8   10 1
  18   10   13 am
  19   10   43 1
  20   11   12 1
  21   11   44 1
  22   11   45 1
  23   12   46 1
  24   12   47 1
  25   13   14 2
  26   13   15 1
  27   15   16 1
  28   15   33 1
  29   15   48 1
  30   16   17 ar
  31   16   21 ar
  32   17   18 ar
  33   17   49 1
  34   18   19 ar
  35   18   50 1
  36   19   20 ar
  37   19   51 1
  38   20   21 ar
  39   20   34 1
  40   21   52 1
  41   22   23 am
  42   22   37 1
  43   22   53 1
  44   23   24 2
  45   23   25 am
  46   25   26 1
  47   25   54 1
  48   26   27 1
  49   26   55 1
  50   26   56 1
  51   27   28 ar
  52   27   32 ar
  53   28   29 ar
  54   28   57 1
  55   29   30 ar
  56   29   58 1
  57   30   31 ar
  58   30   59 1
  59   31   32 ar
  60   31   60 1
  61   32   61 1
  62   33   62 1
  63   35   36 ar
  64   35   63 1
  65   36   37 ar
  66   36   64 1
  67   37   38 ar

#	End of record

