#	Name: ASD01901377
#	Creating user name:	WinNT
#	Creation time:	15. 06. 2019 19:53

#	Modifying user name:	WinNT
#	Modification time:	15. 06. 2019 19:53

#	Program:	/corina/corina34_cracker 3.40 0067  02.08.2006

@<TRIPOS>MOLECULE
ASD01901377
  43   46    0    0    0
SMALL
NO_CHARGES


@<TRIPOS>ATOM
   1 C1            -0.0168     1.3881     0.0097 C.ar    
   2 C2             1.1771     2.0937     0.0021 C.ar    
   3 C3             2.3875     1.4103    -0.0132 C.ar    
   4 C4             2.4048     0.0287    -0.0212 C.ar    
   5 C5             1.2201    -0.6808    -0.0137 C.ar    
   6 C6             0.0021    -0.0041     0.0020 C.ar    
   7 C7            -1.2720    -0.7655     0.0106 C.2     
   8 N8            -3.2659    -1.3667     1.1229 N.2     
   9 C9            -2.1420    -0.6925     1.1201 C.2     
  10 C10           -1.6221    -1.5426    -1.0579 C.2     
  11 N11           -2.7995    -2.2286    -1.0178 N.pl3   
  12 C12           -3.6151    -2.1358     0.0806 C.2     
  13 C13           -3.4133    -3.0687    -1.9074 C.2     
  14 C14           -4.5734    -3.4655    -1.3426 C.2     
  15 N15           -4.6800    -2.8936    -0.1395 N.2     
  16 C16           -5.5802    -4.3983    -1.9648 C.3     
  17 O17           -5.1195    -4.8045    -3.2551 O.3     
  18 C18           -5.9169    -5.6534    -3.9561 C.ar    
  19 C19           -7.1203    -6.0814    -3.4151 C.ar    
  20 C20           -5.5307    -6.0879    -5.2155 C.ar    
  21 C21           -6.3423    -6.9502    -5.9270 C.ar    
  22 C22           -7.5409    -7.3804    -5.3838 C.ar    
  23 C23           -7.9300    -6.9438    -4.1288 C.ar    
  24 C24            3.6841     2.1782    -0.0214 C.3     
  25 N25            1.1633     3.4905     0.0092 N.pl3   
  26 F26           -8.3340    -8.2230    -6.0810 F       
  27 H27           -0.9583     1.9169     0.0260 H       
  28 H28            3.3477    -0.4978    -0.0338 H       
  29 H29            1.2377    -1.7606    -0.0204 H       
  30 H30           -1.8803    -0.0792     1.9696 H       
  31 H31           -0.9761    -1.6119    -1.9207 H       
  32 H32           -3.0400    -3.3590    -2.8784 H       
  33 H33           -5.7033    -5.2759    -1.3301 H       
  34 H34           -6.5368    -3.8856    -2.0654 H       
  35 H35           -7.4240    -5.7409    -2.4362 H       
  36 H36           -4.5961    -5.7519    -5.6398 H       
  37 H37           -6.0417    -7.2887    -6.9076 H       
  38 H38           -8.8670    -7.2771    -3.7078 H       
  39 H39            4.0066     2.3578     1.0042 H       
  40 H40            4.4453     1.6004    -0.5457 H       
  41 H41            3.5384     3.1319    -0.5288 H       
  42 H42            0.3186     3.9671     0.0195 H       
  43 H43            1.9985     3.9838     0.0039 H       
@<TRIPOS>BOND
   1    1    6 ar
   2    1    2 ar
   3    1   27 1
   4    2    3 ar
   5    2   25 1
   6    3    4 ar
   7    3   24 1
   8    4    5 ar
   9    4   28 1
  10    5    6 ar
  11    5   29 1
  12    6    7 1
  13    7   10 2
  14    7    9 1
  15    8    9 2
  16    8   12 1
  17    9   30 1
  18   10   11 1
  19   10   31 1
  20   11   13 1
  21   11   12 1
  22   12   15 2
  23   13   14 2
  24   13   32 1
  25   14   15 1
  26   14   16 1
  27   16   17 1
  28   16   33 1
  29   16   34 1
  30   17   18 1
  31   18   20 ar
  32   18   19 ar
  33   19   23 ar
  34   19   35 1
  35   20   21 ar
  36   20   36 1
  37   21   22 ar
  38   21   37 1
  39   22   23 ar
  40   22   26 1
  41   23   38 1
  42   24   39 1
  43   24   40 1
  44   24   41 1
  45   25   42 1
  46   25   43 1

#	End of record

