#	Name: ASD01901306
#	Creating user name:	WinNT
#	Creation time:	15. 06. 2019 19:53

#	Modifying user name:	WinNT
#	Modification time:	15. 06. 2019 19:53

#	Program:	/corina/corina34_cracker 3.40 0067  02.08.2006

@<TRIPOS>MOLECULE
ASD01901306
  38   41    0    0    0
SMALL
NO_CHARGES


@<TRIPOS>ATOM
   1 C1            -0.0167     1.3780     0.0096 C.ar    
   2 C2             0.0021    -0.0041     0.0020 C.ar    
   3 C3             1.2080    -0.6812    -0.0127 C.ar    
   4 C4             2.4006     0.0191    -0.0198 C.ar    
   5 C5             2.3947     1.3996    -0.0128 C.ar    
   6 C6             1.1844     2.0886     0.0020 C.ar    
   7 F7            -1.1947     2.0393     0.0188 F       
   8 C8             1.1721     3.5727     0.0096 C.2     
   9 N9             0.8578     5.5905     1.1945 N.2     
  10 C10            0.8679     4.2800     1.1930 C.2     
  11 C11            1.4606     4.2739    -1.1276 C.2     
  12 C12            1.1345     6.2868     0.0818 C.2     
  13 N13            1.1861     7.5902    -0.1539 N.2     
  14 N14            1.4403     5.6367    -1.0861 N.pl3   
  15 C15            1.6779     6.5963    -2.0329 C.2     
  16 C16            1.5147     7.7945    -1.4329 C.2     
  17 C17            1.6757     9.1385    -2.0953 C.3     
  18 O18            2.0306     8.9540    -3.4672 O.3     
  19 C19            2.2147    10.0750    -4.2130 C.ar    
  20 C20            2.0626    11.3269    -3.6349 C.ar    
  21 C21            2.5606     9.9695    -5.5524 C.ar    
  22 C22            2.7471    11.1105    -6.3084 C.ar    
  23 C23            2.5899    12.3571    -5.7311 C.ar    
  24 C24            2.2503    12.4650    -4.3952 C.ar    
  25 H25           -0.9262    -0.5560     0.0079 H       
  26 H26            1.2183    -1.7612    -0.0182 H       
  27 H27            3.3390    -0.5155    -0.0306 H       
  28 H28            3.3271     1.9444    -0.0181 H       
  29 H29            0.6423     3.7391     2.1002 H       
  30 H30            1.7012     3.7567    -2.0447 H       
  31 H31            1.9455     6.4267    -3.0654 H       
  32 H32            0.7368     9.6888    -2.0337 H       
  33 H33            2.4605     9.7011    -1.5896 H       
  34 H34            1.7974    11.4118    -2.5914 H       
  35 H35            2.6842     8.9961    -6.0035 H       
  36 H36            3.0164    11.0289    -7.3511 H       
  37 H37            2.7365    13.2480    -6.3238 H       
  38 H38            2.1321    13.4398    -3.9455 H       
@<TRIPOS>BOND
   1    1    2 ar
   2    1    6 ar
   3    1    7 1
   4    2    3 ar
   5    2   25 1
   6    3    4 ar
   7    3   26 1
   8    4    5 ar
   9    4   27 1
  10    5    6 ar
  11    5   28 1
  12    6    8 1
  13    8   11 2
  14    8   10 1
  15    9   10 2
  16    9   12 1
  17   10   29 1
  18   11   14 1
  19   11   30 1
  20   12   14 1
  21   12   13 2
  22   13   16 1
  23   14   15 1
  24   15   16 2
  25   15   31 1
  26   16   17 1
  27   17   18 1
  28   17   32 1
  29   17   33 1
  30   18   19 1
  31   19   21 ar
  32   19   20 ar
  33   20   24 ar
  34   20   34 1
  35   21   22 ar
  36   21   35 1
  37   22   23 ar
  38   22   36 1
  39   23   24 ar
  40   23   37 1
  41   24   38 1

#	End of record

