#	Name: ASD04870005
#	Creating user name:	WinNT
#	Creation time:	15. 06. 2019 20:52

#	Modifying user name:	WinNT
#	Modification time:	15. 06. 2019 20:52

#	Program:	/corina/corina34_cracker 3.40 0067  02.08.2006

@<TRIPOS>MOLECULE
ASD04870005
  67   70    0    0    0
SMALL
NO_CHARGES


@<TRIPOS>ATOM
   1 C1             0.0469     1.2495    -0.6000 C.ar    
   2 C2             0.0011    -0.0028    -0.0151 C.ar    
   3 C3             1.1582    -0.5450     0.5510 C.ar    
   4 C4             2.3730     1.4609    -0.0827 C.ar    
   5 C5             1.2320     1.9722    -0.6293 C.ar    
   6 N6             1.4261    -1.7340     1.1891 N.pl3   
   7 C7             2.7582    -1.7530     1.5522 C.2     
   8 C8             3.3444    -0.5932     1.1552 C.2     
   9 C9             2.3553     0.1937     0.5171 C.ar    
  10 C10            3.4344    -2.8527     2.2568 C.2     
  11 N11            2.7442    -3.9580     2.6007 N.am    
  12 C12            3.4178    -5.0534     3.3025 C.3     
  13 C13            2.3899    -5.8532     4.1054 C.3     
  14 C14            4.0953    -5.9718     2.2834 C.3     
  15 N15           -1.1992    -0.7241     0.0101 N.am    
  16 C16           -2.3739    -0.0738     0.1271 C.2     
  17 N17           -3.5333    -0.7547     0.0338 N.am    
  18 C18           -4.7488    -0.0818     0.1548 C.2     
  19 N19           -5.9883    -0.6389     0.0821 N.pl3   
  20 N20           -6.9283     0.3851     0.2557 N.2     
  21 C21           -6.2852     1.5121     0.4259 C.2     
  22 C22           -4.9129     1.2517     0.3732 C.2     
  23 C23           -6.2734    -1.9947    -0.1294 C.ar    
  24 C24           -7.3700    -2.5798     0.4895 C.ar    
  25 C25           -7.6484    -3.9161     0.2791 C.ar    
  26 C26           -6.8360    -4.6714    -0.5466 C.ar    
  27 C27           -5.7429    -4.0917    -1.1641 C.ar    
  28 C28           -5.4632    -2.7541    -0.9628 C.ar    
  29 C29           -7.1423    -6.1294    -0.7736 C.3     
  30 C30           -6.9175     2.8621     0.6468 C.3     
  31 C31           -6.8098     3.6915    -0.6344 C.3     
  32 C32           -8.3915     2.6809     1.0146 C.3     
  33 C33           -6.1931     3.5846     1.7844 C.3     
  34 O34            4.6168    -2.7646     2.5291 O.2     
  35 O35           -2.3877     1.1272     0.3167 O.2     
  36 H36           -0.8459     1.6671    -1.0416 H       
  37 H37            3.2891     2.0321    -0.1118 H       
  38 H38            1.2512     2.9489    -1.0898 H       
  39 H39            0.7848    -2.4423     1.3565 H       
  40 H40            4.3793    -0.3205     1.3004 H       
  41 H41            1.8014    -4.0282     2.3835 H       
  42 H42            4.1686    -4.6445     3.9786 H       
  43 H43            1.6391    -6.2621     3.4293 H       
  44 H44            2.8911    -6.6682     4.6276 H       
  45 H45            1.9073    -5.1989     4.8315 H       
  46 H46            3.3445    -6.3807     1.6073 H       
  47 H47            4.8276    -5.4020     1.7113 H       
  48 H48            4.5965    -6.7868     2.8055 H       
  49 H49           -1.1851    -1.6917    -0.0565 H       
  50 H50           -3.5223    -1.7128    -0.1174 H       
  51 H51           -4.1229     1.9803     0.4803 H       
  52 H52           -8.0044    -1.9906     1.1350 H       
  53 H53           -8.5012    -4.3718     0.7602 H       
  54 H54           -5.1099    -4.6843    -1.8079 H       
  55 H55           -4.6121    -2.3008    -1.4492 H       
  56 H56           -7.8036    -6.2320    -1.6340 H       
  57 H57           -6.2149    -6.6705    -0.9616 H       
  58 H58           -7.6299    -6.5402     0.1105 H       
  59 H59           -7.3259     3.1768    -1.4449 H       
  60 H60           -7.2671     4.6679    -0.4747 H       
  61 H61           -5.7597     3.8206    -0.8965 H       
  62 H62           -8.4682     2.0900     1.9273 H       
  63 H63           -8.8488     3.6573     1.1743 H       
  64 H64           -8.9076     2.1662     0.2041 H       
  65 H65           -5.1430     3.7137     1.5223 H       
  66 H66           -6.6504     4.5610     1.9441 H       
  67 H67           -6.2698     2.9937     2.6971 H       
@<TRIPOS>BOND
   1    1    2 ar
   2    1    5 ar
   3    1   36 1
   4    2    3 ar
   5    2   15 1
   6    3    6 1
   7    3    9 ar
   8    4    5 ar
   9    4    9 ar
  10    4   37 1
  11    5   38 1
  12    6    7 1
  13    6   39 1
  14    7    8 2
  15    7   10 1
  16    8    9 1
  17    8   40 1
  18   10   11 am
  19   10   34 2
  20   11   12 1
  21   11   41 1
  22   12   13 1
  23   12   14 1
  24   12   42 1
  25   13   43 1
  26   13   44 1
  27   13   45 1
  28   14   46 1
  29   14   47 1
  30   14   48 1
  31   15   16 am
  32   15   49 1
  33   16   17 am
  34   16   35 2
  35   17   18 1
  36   17   50 1
  37   18   19 1
  38   18   22 2
  39   19   20 1
  40   19   23 1
  41   20   21 2
  42   21   22 1
  43   21   30 1
  44   22   51 1
  45   23   24 ar
  46   23   28 ar
  47   24   25 ar
  48   24   52 1
  49   25   26 ar
  50   25   53 1
  51   26   27 ar
  52   26   29 1
  53   27   28 ar
  54   27   54 1
  55   28   55 1
  56   29   56 1
  57   29   57 1
  58   29   58 1
  59   30   31 1
  60   30   32 1
  61   30   33 1
  62   31   59 1
  63   31   60 1
  64   31   61 1
  65   32   62 1
  66   32   63 1
  67   32   64 1
  68   33   65 1
  69   33   66 1
  70   33   67 1

#	End of record

