#	Name: ASD02270010
#	Creating user name:	WinNT
#	Creation time:	15. 06. 2019 20:20

#	Modifying user name:	WinNT
#	Modification time:	15. 06. 2019 20:20

#	Program:	/corina/corina34_cracker 3.40 0067  02.08.2006

@<TRIPOS>MOLECULE
ASD02270010
  57   60    0    0    0
SMALL
NO_CHARGES


@<TRIPOS>ATOM
   1 N1            -0.2332     1.3103     0.1491 N.am    
   2 C2            -0.0766    -0.1487     0.2081 C.3     
   3 N3             1.3689    -0.4007     0.4141 N.3     
   4 C4             2.0043     0.7943    -0.1791 C.3     
   5 C5             0.9654     1.8846    -0.0858 C.2     
   6 O6             1.1721     3.0739    -0.2024 O.2     
   7 C7             3.2501     1.1760     0.6158 C.3     
   8 C8             3.9168     2.3888    -0.0396 C.3     
   9 N9             4.2619     2.0654    -1.4299 N.3     
  10 C10            3.0624     1.7606    -2.2203 C.3     
  11 C11            2.3670     0.5271    -1.6374 C.3     
  12 C12            5.0366     3.1508    -2.0462 C.3     
  13 C13            5.4830     2.7272    -3.4469 C.3     
  14 N14            6.2153     1.4610    -3.3640 N.am    
  15 C15            6.7071     0.8925    -4.4826 C.2     
  16 C16            7.4455    -0.3843    -4.3990 C.ar    
  17 C17            7.9561    -0.9756    -5.5565 C.ar    
  18 C18            8.6443    -2.1669    -5.4728 C.ar    
  19 C19            8.8299    -2.7782    -4.2422 C.ar    
  20 C20            8.3246    -2.1957    -3.0898 C.ar    
  21 C21            7.6403    -1.0013    -3.1614 C.ar    
  22 O22            6.5430     1.4303    -5.5605 O.2     
  23 C23            1.7735    -1.5628    -0.2468 C.ar    
  24 C24            2.7357    -2.3878     0.3217 C.ar    
  25 C25            3.1331    -3.5363    -0.3342 C.ar    
  26 C26            2.5743    -3.8655    -1.5556 C.ar    
  27 C27            1.6162    -3.0464    -2.1243 C.ar    
  28 C28            1.2104    -1.8992    -1.4713 C.ar    
  29 C29            4.1665     4.4054    -2.1459 C.3     
  30 F30            9.5052    -3.9458    -4.1657 F       
  31 H31           -1.0705     1.7878     0.2580 H       
  32 H32           -0.6502    -0.5538     1.0418 H       
  33 H33           -0.4059    -0.5992    -0.7281 H       
  34 H34            2.9670     1.4249     1.6385 H       
  35 H35            3.9471     0.3381     0.6243 H       
  36 H36            3.2292     3.2345    -0.0232 H       
  37 H37            4.8227     2.6462     0.5092 H       
  38 H38            2.3809     2.6107    -2.1889 H       
  39 H39            3.3485     1.5622    -3.2532 H       
  40 H40            3.0382    -0.3298    -1.6942 H       
  41 H41            1.4605     0.3181    -2.2054 H       
  42 H42            5.9131     3.3642    -1.4345 H       
  43 H43            4.6079     2.5997    -4.0841 H       
  44 H44            6.1313     3.4948    -3.8694 H       
  45 H45            6.3462     1.0319    -2.5040 H       
  46 H46            7.8118    -0.5004    -6.5156 H       
  47 H47            9.0393    -2.6252    -6.3674 H       
  48 H48            8.4717    -2.6762    -2.1339 H       
  49 H49            7.2474    -0.5482    -2.2632 H       
  50 H50            3.1728    -2.1312     1.2754 H       
  51 H51            3.8814    -4.1780     0.1070 H       
  52 H52            2.8872    -4.7640    -2.0666 H       
  53 H53            1.1818    -3.3064    -3.0783 H       
  54 H54            0.4619    -1.2601    -1.9159 H       
  55 H55            4.7413     5.2108    -2.6031 H       
  56 H56            3.2900     4.1920    -2.7576 H       
  57 H57            3.8485     4.7073    -1.1480 H       
@<TRIPOS>BOND
   1    1    2 1
   2    1    5 am
   3    1   31 1
   4    2    3 1
   5    2   32 1
   6    2   33 1
   7    3    4 1
   8    3   23 1
   9    4    5 1
  10    4    7 1
  11    4   11 1
  12    5    6 2
  13    7    8 1
  14    7   34 1
  15    7   35 1
  16    8    9 1
  17    8   36 1
  18    8   37 1
  19    9   10 1
  20    9   12 1
  21   10   11 1
  22   10   38 1
  23   10   39 1
  24   11   40 1
  25   11   41 1
  26   12   13 1
  27   12   29 1
  28   12   42 1
  29   13   14 1
  30   13   43 1
  31   13   44 1
  32   14   15 am
  33   14   45 1
  34   15   16 1
  35   15   22 2
  36   16   17 ar
  37   16   21 ar
  38   17   18 ar
  39   17   46 1
  40   18   19 ar
  41   18   47 1
  42   19   20 ar
  43   19   30 1
  44   20   21 ar
  45   20   48 1
  46   21   49 1
  47   23   24 ar
  48   23   28 ar
  49   24   25 ar
  50   24   50 1
  51   25   26 ar
  52   25   51 1
  53   26   27 ar
  54   26   52 1
  55   27   28 ar
  56   27   53 1
  57   28   54 1
  58   29   55 1
  59   29   56 1
  60   29   57 1

#	End of record

