#	Name: ASD01140449
#	Creating user name:	WinNT
#	Creation time:	15. 06. 2019 19:00

#	Modifying user name:	WinNT
#	Modification time:	15. 06. 2019 19:00

#	Program:	/corina/corina34_cracker 3.40 0067  02.08.2006

@<TRIPOS>MOLECULE
ASD01140449
  48   51    0    0    0
SMALL
NO_CHARGES


@<TRIPOS>ATOM
   1 C1            -0.0170     1.4025     0.0098 C.2     
   2 C2             0.0021    -0.0041     0.0020 C.2     
   3 N3            -1.1147    -0.6913     0.0090 N.2     
   4 N4            -2.3485    -0.0383     0.0243 N.pl3   
   5 C5            -2.4020     1.3339     0.0322 C.2     
   6 C6            -1.2025     2.0693     0.0303 C.2     
   7 C7            -3.6437    -0.4640     0.0343 C.2     
   8 N8            -4.4103     0.6108     0.0474 N.2     
   9 N9            -3.6829     1.6725     0.0462 N.2     
  10 O10            1.1911    -0.6579    -0.0133 O.3     
  11 C11            1.1460    -2.0862    -0.0205 C.3     
  12 C12            2.5502    -2.6331    -0.0374 C.2     
  13 H13            0.6298    -2.4379     0.8728 H       
  14 H14            0.6122    -2.4284    -0.9071 H       
  15 N15            3.2966    -2.9253     1.0418 N.pl3   
  16 N16            4.5244    -3.4034     0.5557 N.2     
  17 C17            4.4516    -3.3733    -0.7490 C.2     
  18 N18            3.2535    -2.9115    -1.1049 N.2     
  19 H19            5.2343    -3.6770    -1.4284 H       
  20 C20           -4.1041    -1.8681     0.0304 C.ar    
  21 C21           -5.4690    -2.1581     0.0420 C.ar    
  22 C22           -5.8927    -3.4735     0.0378 C.ar    
  23 C23           -4.9658    -4.5031     0.0221 C.ar    
  24 C24           -3.6112    -4.2225     0.0111 C.ar    
  25 C25           -3.1741    -2.9119     0.0093 C.ar    
  26 F26           -7.2138    -3.7560     0.0494 F       
  27 F27           -1.8509    -2.6396    -0.0020 F       
  28 C28            1.2786     2.1722     0.0015 C.3     
  29 C29            0.9804     3.6728     0.0124 C.3     
  30 H30            0.4141     3.9242     0.9092 H       
  31 H31            1.9175     4.2295     0.0065 H       
  32 H32            0.3971     3.9338    -0.8706 H       
  33 C33            2.0973     1.8059     1.2410 C.3     
  34 H34            2.3097     0.7368     1.2333 H       
  35 H35            3.0344     2.3626     1.2351 H       
  36 H36            1.5310     2.0573     2.1378 H       
  37 C37            2.0735     1.8193    -1.2573 C.3     
  38 H38            1.4902     2.0803    -2.1403 H       
  39 H39            3.0105     2.3760    -1.2632 H       
  40 H40            2.2859     0.7503    -1.2651 H       
  41 C41            2.9069    -2.7744     2.4459 C.3     
  42 H42            2.4365    -3.6943     2.7933 H       
  43 H43            3.7916    -2.5687     3.0485 H       
  44 H44            2.2025    -1.9480     2.5407 H       
  45 H45           -1.2228     3.1491     0.0364 H       
  46 H46           -6.1925    -1.3564     0.0546 H       
  47 H47           -5.3022    -5.5293     0.0189 H       
  48 H48           -2.8938    -5.0297    -0.0008 H       
@<TRIPOS>BOND
   1    1    2 1
   2    1   28 1
   3    1    6 2
   4    2    3 2
   5    2   10 1
   6    3    4 1
   7    4    5 1
   8    4    7 1
   9    5    6 1
  10    5    9 2
  11    6   45 1
  12    7    8 2
  13    7   20 1
  14    8    9 1
  15   10   11 1
  16   11   12 1
  17   11   13 1
  18   11   14 1
  19   12   15 1
  20   12   18 2
  21   15   16 1
  22   15   41 1
  23   16   17 2
  24   17   18 1
  25   17   19 1
  26   20   21 ar
  27   20   25 ar
  28   21   22 ar
  29   21   46 1
  30   22   23 ar
  31   22   26 1
  32   23   24 ar
  33   23   47 1
  34   24   25 ar
  35   24   48 1
  36   25   27 1
  37   28   29 1
  38   28   33 1
  39   28   37 1
  40   29   30 1
  41   29   31 1
  42   29   32 1
  43   33   34 1
  44   33   35 1
  45   33   36 1
  46   37   38 1
  47   37   39 1
  48   37   40 1
  49   41   42 1
  50   41   43 1
  51   41   44 1

#	End of record

