#	Name: ASD08150324
#	Creating user name:	WinNT
#	Creation time:	15. 06. 2019 21:15

#	Modifying user name:	WinNT
#	Modification time:	15. 06. 2019 21:15

#	Program:	/corina/corina34_cracker 3.40 0067  02.08.2006

@<TRIPOS>MOLECULE
ASD08150324
  73   79    0    0    0
SMALL
NO_CHARGES


@<TRIPOS>ATOM
   1 N1             0.6687     0.8165    -1.6260 N.ar    
   2 C2             0.4425    -0.2779    -0.9344 C.ar    
   3 C3             1.4201    -0.8389    -0.1276 C.ar    
   4 C4             2.6670    -0.2426    -0.0421 C.ar    
   5 C5             2.9004     0.9315    -0.7888 C.ar    
   6 C6             4.1345     1.5900    -0.7543 C.ar    
   7 C7             4.3147     2.7388    -1.5051 C.ar    
   8 C8             3.2695     3.2415    -2.2952 C.ar    
   9 C9             2.0650     2.6150    -2.3402 C.ar    
  10 C10            1.8491     1.4453    -1.5900 C.ar    
  11 O11            2.4151    -2.8014     0.8483 O.3     
  12 C12            3.4893    -2.0751     1.2081 C.2     
  13 N13            3.6433    -0.8099     0.7648 N.am    
  14 C14            1.1584    -2.0919     0.6679 C.3     
  15 O15            4.3283    -2.5629     1.9390 O.2     
  16 N16            7.8672     3.4898    -0.7283 N.ar    
  17 C17            6.7044     2.8912    -0.7727 C.ar    
  18 C18            5.6197     3.4428    -1.4739 C.ar    
  19 C19            5.7780     4.6504    -2.1375 C.ar    
  20 C20            7.0354     5.2765    -2.0769 C.ar    
  21 C21            7.2711     6.5012    -2.7234 C.ar    
  22 C22            8.5016     7.0789    -2.6428 C.ar    
  23 C23            9.5304     6.4708    -1.9270 C.ar    
  24 C24            9.3367     5.2841    -1.2886 C.ar    
  25 C25            8.0810     4.6558    -1.3480 C.ar    
  26 C26            4.7835    -0.0728     1.1170 C.ar    
  27 C27            6.0331    -0.4635     0.6541 C.ar    
  28 C28            7.1553     0.2618     1.0005 C.ar    
  29 C29            7.0345     1.3828     1.8120 C.ar    
  30 C30            5.7847     1.7735     2.2744 C.ar    
  31 C31            4.6619     1.0505     1.9236 C.ar    
  32 C32            8.5115    -0.1628     0.4989 C.3     
  33 F33            8.3915    -1.3622    -0.2111 F       
  34 F34            9.0284     0.8278    -0.3429 F       
  35 F35            9.3734    -0.3482     1.5852 F       
  36 N36            8.1716     2.1176     2.1636 N.3     
  37 C37            8.7492     1.6243     3.4209 C.3     
  38 C38           10.0857     2.3291     3.6765 C.3     
  39 N39            9.8655     3.7823     3.6212 N.am    
  40 C40            9.1675     4.3363     2.4512 C.3     
  41 C41            7.8672     3.5524     2.2439 C.3     
  42 C42           10.2918     4.5849     4.6165 C.2     
  43 O43           10.8654     4.1109     5.5742 O.2     
  44 C44           10.0557     6.0713     4.5394 C.3     
  45 C45           10.6331     6.7447     5.7859 C.3     
  46 H46           -0.5267    -0.7504    -0.9956 H       
  47 H47            4.9399     1.2051    -0.1465 H       
  48 H48            3.4248     4.1391    -2.8753 H       
  49 H49            1.2714     3.0163    -2.9531 H       
  50 H50            0.7450    -1.8274     1.6412 H       
  51 H51            0.4544    -2.7264     0.1295 H       
  52 H52            6.5757     1.9506    -0.2577 H       
  53 H53            4.9603     5.0961    -2.6843 H       
  54 H54            6.4811     6.9816    -3.2815 H       
  55 H55            8.6822     8.0203    -3.1404 H       
  56 H56           10.4978     6.9485    -1.8780 H       
  57 H57           10.1457     4.8266    -0.7385 H       
  58 H58            6.1269    -1.3350     0.0232 H       
  59 H59            5.6906     2.6450     2.9053 H       
  60 H60            3.6894     1.3565     2.2801 H       
  61 H61            8.0645     1.8339     4.2427 H       
  62 H62            8.9130     0.5491     3.3488 H       
  63 H63           10.4628     2.0531     4.6612 H       
  64 H64           10.8052     2.0384     2.9110 H       
  65 H65            8.9375     5.3874     2.6258 H       
  66 H66            9.7987     4.2385     1.5679 H       
  67 H67            7.3913     3.8756     1.3180 H       
  68 H68            7.1947     3.7352     3.0820 H       
  69 H69           10.5444     6.4712     3.6510 H       
  70 H70            8.9847     6.2666     4.4839 H       
  71 H71           10.1443     6.3448     6.6743 H       
  72 H72           11.7040     6.5494     5.8414 H       
  73 H73           10.4623     7.8198     5.7302 H       
@<TRIPOS>BOND
   1    1    2 ar
   2    1   10 ar
   3    2    3 ar
   4    2   46 1
   5    3    4 ar
   6    3   14 1
   7    4    5 ar
   8    4   13 1
   9    5    6 ar
  10    5   10 ar
  11    6    7 ar
  12    6   47 1
  13    7    8 ar
  14    7   18 1
  15    8    9 ar
  16    8   48 1
  17    9   10 ar
  18    9   49 1
  19   11   12 1
  20   11   14 1
  21   12   13 am
  22   12   15 2
  23   13   26 1
  24   14   50 1
  25   14   51 1
  26   16   17 ar
  27   16   25 ar
  28   17   18 ar
  29   17   52 1
  30   18   19 ar
  31   19   20 ar
  32   19   53 1
  33   20   21 ar
  34   20   25 ar
  35   21   22 ar
  36   21   54 1
  37   22   23 ar
  38   22   55 1
  39   23   24 ar
  40   23   56 1
  41   24   25 ar
  42   24   57 1
  43   26   27 ar
  44   26   31 ar
  45   27   28 ar
  46   27   58 1
  47   28   29 ar
  48   28   32 1
  49   29   30 ar
  50   29   36 1
  51   30   31 ar
  52   30   59 1
  53   31   60 1
  54   32   33 1
  55   32   34 1
  56   32   35 1
  57   36   37 1
  58   36   41 1
  59   37   38 1
  60   37   61 1
  61   37   62 1
  62   38   39 1
  63   38   63 1
  64   38   64 1
  65   39   40 1
  66   39   42 am
  67   40   41 1
  68   40   65 1
  69   40   66 1
  70   41   67 1
  71   41   68 1
  72   42   43 2
  73   42   44 1
  74   44   45 1
  75   44   69 1
  76   44   70 1
  77   45   71 1
  78   45   72 1
  79   45   73 1

#	End of record

