#	Name: ASD03092316
#	Creating user name:	WinNT
#	Creation time:	15. 06. 2019 20:32

#	Modifying user name:	WinNT
#	Modification time:	15. 06. 2019 20:32

#	Program:	/corina/corina34_cracker 3.40 0067  02.08.2006

@<TRIPOS>MOLECULE
ASD03092316
  62   65    0    0    0
SMALL
NO_CHARGES


@<TRIPOS>ATOM
   1 C1            -0.1265     1.4450     0.0209 C.2     
   2 C2            -0.1631    -0.0324     0.0273 C.ar    
   3 C3             1.0115    -0.7635    -0.1614 C.ar    
   4 C4             0.9711    -2.1416    -0.1539 C.ar    
   5 C5            -0.2317    -2.8011     0.0398 C.ar    
   6 C6            -1.4000    -2.0814     0.2275 C.ar    
   7 C7            -1.3712    -0.7025     0.2278 C.ar    
   8 O8             0.9390     2.0263    -0.0467 O.2     
   9 N9            -1.2747     2.1478     0.0843 N.am    
  10 C10            2.3206    -0.0476    -0.3733 C.3     
  11 C11           -1.2384     3.6123     0.0780 C.3     
  12 S12           -4.9307     5.0757    -0.3945 S.3     
  13 C13           -4.4920     4.7840     1.2317 C.2     
  14 N14           -3.2833     4.3118     1.2947 N.2     
  15 C15           -2.6440     4.1500     0.1566 C.2     
  16 C16           -3.3535     4.5063    -0.9347 C.2     
  17 C17           -2.5939     5.4077    -4.5004 C.ar    
  18 C18           -3.0420     5.5210    -3.2022 C.ar    
  19 C19           -2.8900     4.4317    -2.3339 C.ar    
  20 C20           -2.2851     3.2696    -2.8314 C.ar    
  21 C21           -1.8669     3.2440    -4.1442 C.ar    
  22 N22           -2.0293     4.2937    -4.9283 N.ar    
  23 C23           -1.2149     2.0009    -4.6923 C.3     
  24 C24           -2.7567     6.5692    -5.4467 C.3     
  25 N25           -5.3071     5.0176     2.3243 N.3     
  26 C26           -6.6103     5.5529     1.9045 C.3     
  27 C27           -7.4565     5.8524     3.1448 C.3     
  28 O28           -7.5866     4.6615     3.9258 O.3     
  29 C29           -6.3364     4.1132     4.3523 C.3     
  30 C30           -5.4789     3.7961     3.1242 C.3     
  31 C31           -6.5858     2.8295     5.1465 C.3     
  32 C32           -8.8430     6.3343     2.7131 C.3     
  33 Cl33          -0.2748    -4.5365     0.0468 Cl      
  34 H34            1.8789    -2.7082    -0.2997 H       
  35 H35           -2.3348    -2.6010     0.3777 H       
  36 H36           -2.2821    -0.1423     0.3787 H       
  37 H37           -2.1252     1.6840     0.1342 H       
  38 H38            2.7404     0.2352     0.5921 H       
  39 H39            3.0156    -0.7075    -0.8925 H       
  40 H40            2.1525     0.8472    -0.9726 H       
  41 H41           -0.6659     3.9653     0.9357 H       
  42 H42           -0.7673     3.9601    -0.8414 H       
  43 H43           -3.5027     6.4356    -2.8590 H       
  44 H44           -2.1484     2.4074    -2.1955 H       
  45 H45           -1.9780     1.3446    -5.1106 H       
  46 H46           -0.5053     2.2765    -5.4724 H       
  47 H47           -0.6896     1.4823    -3.8902 H       
  48 H48           -1.8773     7.2106    -5.3893 H       
  49 H49           -2.8682     6.1957    -6.4647 H       
  50 H50           -3.6425     7.1414    -5.1707 H       
  51 H51           -6.4607     6.4707     1.3357 H       
  52 H52           -7.1225     4.8183     1.2832 H       
  53 H53           -6.9702     6.6261     3.7390 H       
  54 H54           -5.8176     4.8363     4.9816 H       
  55 H55           -5.9730     3.0334     2.5224 H       
  56 H56           -4.5034     3.4314     3.4458 H       
  57 H57           -7.1029     2.1066     4.5155 H       
  58 H58           -5.6327     2.4122     5.4712 H       
  59 H59           -7.1996     3.0552     6.0185 H       
  60 H60           -9.3289     5.5591     2.1207 H       
  61 H61           -9.4449     6.5473     3.5966 H       
  62 H62           -8.7429     7.2398     2.1147 H       
@<TRIPOS>BOND
   1    1    2 1
   2    1    8 2
   3    1    9 am
   4    2    3 ar
   5    2    7 ar
   6    3    4 ar
   7    3   10 1
   8    4    5 ar
   9    4   34 1
  10    5    6 ar
  11    5   33 1
  12    6    7 ar
  13    6   35 1
  14    7   36 1
  15    9   11 1
  16    9   37 1
  17   10   38 1
  18   10   39 1
  19   10   40 1
  20   11   15 1
  21   11   41 1
  22   11   42 1
  23   12   13 1
  24   12   16 1
  25   13   14 2
  26   13   25 1
  27   14   15 1
  28   15   16 2
  29   16   19 1
  30   17   18 ar
  31   17   22 ar
  32   17   24 1
  33   18   19 ar
  34   18   43 1
  35   19   20 ar
  36   20   21 ar
  37   20   44 1
  38   21   22 ar
  39   21   23 1
  40   23   45 1
  41   23   46 1
  42   23   47 1
  43   24   48 1
  44   24   49 1
  45   24   50 1
  46   25   26 1
  47   25   30 1
  48   26   27 1
  49   26   51 1
  50   26   52 1
  51   27   28 1
  52   27   32 1
  53   27   53 1
  54   28   29 1
  55   29   30 1
  56   29   31 1
  57   29   54 1
  58   30   55 1
  59   30   56 1
  60   31   57 1
  61   31   58 1
  62   31   59 1
  63   32   60 1
  64   32   61 1
  65   32   62 1

#	End of record

