#	Name: ASD01915886
#	Creating user name:	WinNT
#	Creation time:	15. 06. 2019 20:06

#	Modifying user name:	WinNT
#	Modification time:	15. 06. 2019 20:06

#	Program:	/corina/corina34_cracker 3.40 0067  02.08.2006

@<TRIPOS>MOLECULE
ASD01915886
  40   42    0    0    0
SMALL
NO_CHARGES


@<TRIPOS>ATOM
   1 C1            -0.0180     1.4745     0.0101 C.2     
   2 C2             0.0021    -0.0041     0.0020 C.ar    
   3 C3             1.2207    -0.6858    -0.0133 C.ar    
   4 C4             1.2393    -2.0628    -0.0209 C.ar    
   5 C5             0.0397    -2.7773    -0.0138 C.ar    
   6 C6            -1.1789    -2.0957     0.0010 C.ar    
   7 C7            -1.1976    -0.7187     0.0154 C.ar    
   8 O8             1.0263     2.0965     0.0035 O.2     
   9 N9            -1.1942     2.1324     0.0193 N.am    
  10 C10           -1.2141     3.5973     0.0274 C.3     
  11 C11           -2.6633     4.0876     0.0369 C.3     
  12 C12           -2.6841     5.6175     0.0453 C.3     
  13 O13            1.1484    -5.0405    -0.0367 O.3     
  14 N14            0.8169    -6.2070    -0.0404 N.2     
  15 C15           -0.4878    -6.3087    -0.0294 C.2     
  16 N16           -0.9892    -5.0561    -0.0177 N.2     
  17 C17            0.0597    -4.2559    -0.0225 C.2     
  18 C18           -1.2713    -7.5691    -0.0301 C.ar    
  19 C19           -0.6162    -8.7990    -0.0429 C.ar    
  20 C20           -1.3484    -9.9683    -0.0430 C.ar    
  21 C21           -2.7331    -9.9210    -0.0304 C.ar    
  22 C22           -3.3885    -8.7002    -0.0176 C.ar    
  23 C23           -2.6640    -7.5261    -0.0120 C.ar    
  24 F24           -3.4463   -11.0684    -0.0310 F       
  25 H25            2.1486    -0.1331    -0.0195 H       
  26 H26            2.1818    -2.5900    -0.0327 H       
  27 H27           -2.1068    -2.6484     0.0062 H       
  28 H28           -2.1400    -0.1916     0.0318 H       
  29 H29           -2.0276     1.6361     0.0206 H       
  30 H30           -0.7010     3.9627     0.9169 H       
  31 H31           -0.7094     3.9724    -0.8630 H       
  32 H32           -3.1764     3.7222    -0.8527 H       
  33 H33           -3.1680     3.7125     0.9273 H       
  34 H34           -3.7166     5.9668     0.0521 H       
  35 H35           -2.1710     5.9829     0.9349 H       
  36 H36           -2.1795     5.9926    -0.8450 H       
  37 H37            0.4631    -8.8367    -0.0531 H       
  38 H38           -0.8414   -10.9219    -0.0534 H       
  39 H39           -4.4680    -8.6677    -0.0078 H       
  40 H40           -3.1755    -6.5751     0.0024 H       
@<TRIPOS>BOND
   1    1    2 1
   2    1    8 2
   3    1    9 am
   4    2    3 ar
   5    2    7 ar
   6    3    4 ar
   7    3   25 1
   8    4    5 ar
   9    4   26 1
  10    5    6 ar
  11    5   17 1
  12    6    7 ar
  13    6   27 1
  14    7   28 1
  15    9   10 1
  16    9   29 1
  17   10   11 1
  18   10   30 1
  19   10   31 1
  20   11   12 1
  21   11   32 1
  22   11   33 1
  23   12   34 1
  24   12   35 1
  25   12   36 1
  26   13   14 1
  27   13   17 1
  28   14   15 2
  29   15   16 1
  30   15   18 1
  31   16   17 2
  32   18   19 ar
  33   18   23 ar
  34   19   20 ar
  35   19   37 1
  36   20   21 ar
  37   20   38 1
  38   21   22 ar
  39   21   24 1
  40   22   23 ar
  41   22   39 1
  42   23   40 1

#	End of record

