#	Name: ASD03540124
#	Creating user name:	WinNT
#	Creation time:	15. 06. 2019 20:42

#	Modifying user name:	WinNT
#	Modification time:	15. 06. 2019 20:42

#	Program:	/corina/corina34_cracker 3.40 0067  02.08.2006

@<TRIPOS>MOLECULE
ASD03540124
  58   60    0    0    0
SMALL
NO_CHARGES


@<TRIPOS>ATOM
   1 C1            -0.0179     1.4722     0.0101 C.2     
   2 C2             0.0021    -0.0041     0.0020 C.ar    
   3 C3             1.2180    -0.6841    -0.0132 C.ar    
   4 C4             1.2312    -2.0766    -0.0204 C.ar    
   5 C5             2.5146    -2.8050    -0.0361 C.2     
   6 C6             0.0191    -2.7850    -0.0122 C.ar    
   7 C7            -1.1873    -2.0967     0.0031 C.ar    
   8 C8            -1.2000    -0.7201     0.0155 C.ar    
   9 O9             1.0266     2.0944     0.0035 O.2     
  10 N10           -1.1942     2.1301     0.0193 N.am    
  11 O11            2.5235    -4.0208    -0.0423 O.2     
  12 N12            3.6767    -2.1225    -0.0435 N.am    
  13 C13            4.9508    -2.8455    -0.0590 C.3     
  14 C14            6.0889    -1.8578    -0.0647 C.ar    
  15 C15            6.6214    -1.4114     1.1295 C.ar    
  16 C16            7.6690    -0.5022     1.1236 C.ar    
  17 C17            8.1795    -0.0434    -0.0822 C.ar    
  18 C18            7.6437    -0.4927    -1.2734 C.ar    
  19 C19            6.6030    -1.4034    -1.2648 C.ar    
  20 O20            8.1942    -0.0613     2.2969 O.3     
  21 C21            9.2711     0.8743     2.2147 C.3     
  22 C22           -1.2140     3.5950     0.0273 C.3     
  23 C23           -2.6415     4.0779     0.0367 C.ar    
  24 C24           -3.2897     4.2927     1.2379 C.ar    
  25 C25           -4.6036     4.7372     1.2459 C.ar    
  26 C26           -5.2637     4.9651     0.0469 C.ar    
  27 C27           -4.6113     4.7490    -1.1512 C.ar    
  28 C28           -3.2996     4.3112    -1.1564 C.ar    
  29 O29           -5.2434     4.9487     2.4260 O.3     
  30 C30           -6.5954     5.4065     2.3580 C.3     
  31 O31            0.0261    -4.1398    -0.0195 O.3     
  32 C32           -1.2437    -4.7952    -0.0104 C.3     
  33 H33            2.1469    -0.1333    -0.0199 H       
  34 H34           -2.1187    -2.6434     0.0090 H       
  35 H35           -2.1413    -0.1909     0.0315 H       
  36 H36           -2.0275     1.6338     0.0205 H       
  37 H37            3.6696    -1.1525    -0.0385 H       
  38 H38            5.0214    -3.4762     0.8271 H       
  39 H39            5.0048    -3.4672    -0.9527 H       
  40 H40            6.2221    -1.7698     2.0668 H       
  41 H41            8.9949     0.6648    -0.0895 H       
  42 H42            8.0404    -0.1355    -2.2122 H       
  43 H43            6.1886    -1.7571    -2.1973 H       
  44 H44            9.5961     1.1436     3.2197 H       
  45 H45           10.1027     0.4244     1.6723 H       
  46 H46            8.9361     1.7687     1.6893 H       
  47 H47           -0.7010     3.9604     0.9169 H       
  48 H48           -0.7094     3.9701    -0.8630 H       
  49 H49           -2.7739     4.1142     2.1698 H       
  50 H50           -6.2868     5.3109     0.0505 H       
  51 H51           -5.1248     4.9259    -2.0847 H       
  52 H52           -2.7896     4.1473    -2.0943 H       
  53 H53           -6.9868     5.5346     3.3672 H       
  54 H54           -6.6301     6.3600     1.8311 H       
  55 H55           -7.2006     4.6739     1.8239 H       
  56 H56           -1.8110    -4.5004    -0.8932 H       
  57 H57           -1.0953    -5.8750    -0.0177 H       
  58 H58           -1.7933    -4.5100     0.8866 H       
@<TRIPOS>BOND
   1    1    2 1
   2    1    9 2
   3    1   10 am
   4    2    3 ar
   5    2    8 ar
   6    3    4 ar
   7    3   33 1
   8    4    5 1
   9    4    6 ar
  10    5   11 2
  11    5   12 am
  12    6    7 ar
  13    6   31 1
  14    7    8 ar
  15    7   34 1
  16    8   35 1
  17   10   22 1
  18   10   36 1
  19   12   13 1
  20   12   37 1
  21   13   14 1
  22   13   38 1
  23   13   39 1
  24   14   15 ar
  25   14   19 ar
  26   15   16 ar
  27   15   40 1
  28   16   17 ar
  29   16   20 1
  30   17   18 ar
  31   17   41 1
  32   18   19 ar
  33   18   42 1
  34   19   43 1
  35   20   21 1
  36   21   44 1
  37   21   45 1
  38   21   46 1
  39   22   23 1
  40   22   47 1
  41   22   48 1
  42   23   24 ar
  43   23   28 ar
  44   24   25 ar
  45   24   49 1
  46   25   26 ar
  47   25   29 1
  48   26   27 ar
  49   26   50 1
  50   27   28 ar
  51   27   51 1
  52   28   52 1
  53   29   30 1
  54   30   53 1
  55   30   54 1
  56   30   55 1
  57   31   32 1
  58   32   56 1
  59   32   57 1
  60   32   58 1

#	End of record

