#	Name: ASD06020057
#	Creating user name:	WinNT
#	Creation time:	15. 06. 2019 21:04

#	Modifying user name:	WinNT
#	Modification time:	15. 06. 2019 21:04

#	Program:	/corina/corina34_cracker 3.40 0067  02.08.2006

@<TRIPOS>MOLECULE
ASD06020057
  36   39    0    0    0
SMALL
NO_CHARGES


@<TRIPOS>ATOM
   1 C1            -0.0167     1.3951     0.0029 C.ar    
   2 C2             0.0030    -0.0035     0.0025 C.ar    
   3 C3             1.2298    -0.6766    -0.0198 C.ar    
   4 C4             2.4029     0.1209    -0.0415 C.ar    
   5 C5             2.2924     1.4762    -0.0398 C.ar    
   6 N6             1.1139     2.0792    -0.0177 N.ar    
   7 S7            -1.2861    -1.2017     0.0258 S.3     
   8 C8            -0.0959    -2.4967     0.0042 C.2     
   9 N9             1.0998    -2.0041    -0.0174 N.2     
  10 N10           -1.2344     2.0704     0.0191 N.pl3   
  11 C11           -0.1554     5.4478     0.4363 C.ar    
  12 N12           -0.1353     4.1346     0.3296 N.ar    
  13 C13           -1.2594     3.4525     0.1314 C.ar    
  14 C14           -2.4655     4.1502     0.0378 C.ar    
  15 C15           -2.4377     5.5258     0.1558 C.ar    
  16 N16           -1.2767     6.1348     0.3524 N.ar    
  17 C17           -3.7118     6.3252     0.0615 C.3     
  18 C18           -0.4159    -3.9394     0.0105 C.ar    
  19 C19            0.6109    -4.8863    -0.0082 C.ar    
  20 C20            0.3045    -6.2325    -0.0018 C.ar    
  21 C21           -1.0159    -6.6454     0.0226 C.ar    
  22 C22           -2.0384    -5.7149     0.0408 C.ar    
  23 C23           -1.7473    -4.3633     0.0409 C.ar    
  24 F24           -2.7470    -3.4549     0.0647 F       
  25 Cl25           2.2685    -4.3715    -0.0400 Cl      
  26 Br26           4.1085    -0.6953    -0.0718 Br      
  27 H27            3.1898     2.0768    -0.0561 H       
  28 H28           -2.0651     1.5742    -0.0481 H       
  29 H29            0.7724     5.9753     0.6015 H       
  30 H30           -3.3965     3.6270    -0.1232 H       
  31 H31           -4.1472     6.4333     1.0549 H       
  32 H32           -3.4927     7.3111    -0.3485 H       
  33 H33           -4.4171     5.8092    -0.5900 H       
  34 H34            1.0977    -6.9653    -0.0162 H       
  35 H35           -1.2490    -7.7000     0.0272 H       
  36 H36           -3.0667    -6.0446     0.0591 H       
@<TRIPOS>BOND
   1    1    2 ar
   2    1    6 ar
   3    1   10 1
   4    2    3 ar
   5    2    7 1
   6    3    4 ar
   7    3    9 1
   8    4    5 ar
   9    4   26 1
  10    5    6 ar
  11    5   27 1
  12    7    8 1
  13    8    9 2
  14    8   18 1
  15   10   13 1
  16   10   28 1
  17   11   12 ar
  18   11   16 ar
  19   11   29 1
  20   12   13 ar
  21   13   14 ar
  22   14   15 ar
  23   14   30 1
  24   15   16 ar
  25   15   17 1
  26   17   31 1
  27   17   32 1
  28   17   33 1
  29   18   19 ar
  30   18   23 ar
  31   19   20 ar
  32   19   25 1
  33   20   21 ar
  34   20   34 1
  35   21   22 ar
  36   21   35 1
  37   22   23 ar
  38   22   36 1
  39   23   24 1

#	End of record

