#	Name: ASD02198863
#	Creating user name:	WinNT
#	Creation time:	15. 06. 2019 20:20

#	Modifying user name:	WinNT
#	Modification time:	15. 06. 2019 20:20

#	Program:	/corina/corina34_cracker 3.40 0067  02.08.2006

@<TRIPOS>MOLECULE
ASD02198863
  53   57    0    0    0
SMALL
NO_CHARGES


@<TRIPOS>ATOM
   1 C1            -0.0435     1.5032    -0.1143 C.2     
   2 C2            -0.0737     0.1635     0.0983 C.2     
   3 N3             1.0703    -0.5385     0.2605 N.pl3   
   4 N4             2.2350    -0.0040     0.2267 N.2     
   5 C5             2.4068     1.2856     0.0284 C.2     
   6 C6             1.2214     2.1368    -0.1600 C.2     
   7 C7             0.9784    -1.9176     0.4767 C.ar    
   8 C8             1.5800    -2.4901     1.5968 C.ar    
   9 C9             1.4866    -3.8555     1.8080 C.ar    
  10 C10            0.7950    -4.6508     0.9049 C.ar    
  11 C11            0.1963    -4.0783    -0.2105 C.ar    
  12 C12            0.2830    -2.7171    -0.4210 C.ar    
  13 C13            3.7639     1.8675    -0.0040 C.2     
  14 N14            4.3062     2.6074    -1.0170 N.pl3   
  15 N15            5.6082     2.9583    -0.6392 N.2     
  16 C16            5.8518     2.4586     0.5461 C.2     
  17 C17            4.7194     1.7719     0.9839 C.2     
  18 C18            3.6735     2.9521    -2.2182 C.ar    
  19 C19            2.9111     2.0114    -2.8978 C.ar    
  20 C20            2.2880     2.3546    -4.0818 C.ar    
  21 C21            2.4228     3.6333    -4.5904 C.ar    
  22 C22            3.1815     4.5725    -3.9158 C.ar    
  23 C23            3.8026     4.2372    -2.7289 C.ar    
  24 O24            1.3247     3.3400    -0.3480 O.2     
  25 N25            0.7008    -6.0328     1.1182 N.pl3   
  26 C26            0.0509    -6.9230     0.3075 C.2     
  27 C27            0.1827    -8.1547     0.8432 C.2     
  28 C28            0.9403    -8.0237     2.0267 C.2     
  29 C29            1.2483    -6.7174     2.1687 C.2     
  30 F30           -0.3189    -9.3032     0.3387 F       
  31 F31            1.2963    -9.0239     2.8622 F       
  32 C32            3.3258     5.9650    -4.4736 C.3     
  33 F33            2.6081     6.0647    -5.6703 F       
  34 F34            2.8259     6.8908    -3.5516 F       
  35 F35            4.6773     6.2322    -4.7168 F       
  36 O36            2.2571    -1.7095     2.4795 O.3     
  37 C37            2.8479    -2.3640     3.6040 C.3     
  38 H38           -0.9548     2.0671    -0.2488 H       
  39 H39           -1.0237    -0.3487     0.1387 H       
  40 H40            1.9520    -4.3013     2.6746 H       
  41 H41           -0.3411    -4.6991    -0.9121 H       
  42 H42           -0.1835    -2.2744    -1.2887 H       
  43 H43            6.7753     2.5645     1.0960 H       
  44 H44            4.6132     1.2527     1.9250 H       
  45 H45            2.8057     1.0124    -2.5013 H       
  46 H46            1.6952     1.6233    -4.6111 H       
  47 H47            1.9349     3.8991    -5.5165 H       
  48 H48            4.3946     4.9711    -2.2024 H       
  49 H49           -0.4767    -6.6816    -0.6035 H       
  50 H50            1.8226    -6.2861     2.9753 H       
  51 H51            3.3563    -1.6281     4.2270 H       
  52 H52            2.0704    -2.8582     4.1865 H       
  53 H53            3.5676    -3.1050     3.2562 H       
@<TRIPOS>BOND
   1    1    2 2
   2    1    6 1
   3    1   38 1
   4    2    3 1
   5    2   39 1
   6    3    4 1
   7    3    7 1
   8    4    5 2
   9    5    6 1
  10    5   13 1
  11    6   24 2
  12    7    8 ar
  13    7   12 ar
  14    8    9 ar
  15    8   36 1
  16    9   10 ar
  17    9   40 1
  18   10   11 ar
  19   10   25 1
  20   11   12 ar
  21   11   41 1
  22   12   42 1
  23   13   14 1
  24   13   17 2
  25   14   15 1
  26   14   18 1
  27   15   16 2
  28   16   17 1
  29   16   43 1
  30   17   44 1
  31   18   19 ar
  32   18   23 ar
  33   19   20 ar
  34   19   45 1
  35   20   21 ar
  36   20   46 1
  37   21   22 ar
  38   21   47 1
  39   22   23 ar
  40   22   32 1
  41   23   48 1
  42   25   26 1
  43   25   29 1
  44   26   27 2
  45   26   49 1
  46   27   28 1
  47   27   30 1
  48   28   29 2
  49   28   31 1
  50   29   50 1
  51   32   33 1
  52   32   34 1
  53   32   35 1
  54   36   37 1
  55   37   51 1
  56   37   52 1
  57   37   53 1

#	End of record

