#	Name: ASD02030464
#	Creating user name:	WinNT
#	Creation time:	15. 06. 2019 20:15

#	Modifying user name:	WinNT
#	Modification time:	15. 06. 2019 20:15

#	Program:	/corina/corina34_cracker 3.40 0067  02.08.2006

@<TRIPOS>MOLECULE
ASD02030464
  53   55    0    0    0
SMALL
NO_CHARGES


@<TRIPOS>ATOM
   1 N1             0.1790     1.1240     0.7380 N.am    
   2 C2             0.0749    -0.2577     0.2482 C.3     
   3 C3             0.7485    -0.3421    -1.1271 C.3     
   4 N4             2.0772     0.2797    -1.0382 N.am    
   5 C5             2.1812     1.6614    -0.5484 C.3     
   6 C6             1.5076     1.7458     0.8269 C.3     
   7 C7            -0.9248     1.8106     1.0940 C.2     
   8 O8            -2.0252     1.3278     0.9132 O.2     
   9 O9            -0.8083     3.0312     1.6500 O.3     
  10 C10            0.7792    -1.2027     1.2238 C.3     
  11 C11           -1.3990    -0.6484     0.1229 C.3     
  12 C12            3.1805    -0.4051    -1.3991 C.2     
  13 O13            3.1128    -1.6005    -1.6070 O.2     
  14 C14            4.4759     0.2995    -1.5422 C.ar    
  15 C15            5.6384    -0.4332    -1.7622 C.ar    
  16 C16            6.8457     0.2374    -1.8952 C.ar    
  17 C17            6.8492     1.6181    -1.8036 C.ar    
  18 C18            5.6495     2.2894    -1.5822 C.ar    
  19 N19            4.5159     1.6249    -1.4649 N.ar    
  20 O20            5.6457     3.6430    -1.4909 O.3     
  21 C21            4.3841     4.2743    -1.2631 C.3     
  22 C22           -2.0394     3.7126     2.0083 C.3     
  23 C23           -1.7134     5.0544     2.6121 C.ar    
  24 C24           -1.6042     6.1689     1.8016 C.ar    
  25 C25           -1.3052     7.3996     2.3554 C.ar    
  26 C26           -1.1158     7.5160     3.7198 C.ar    
  27 C27           -1.2259     6.4016     4.5304 C.ar    
  28 C28           -1.5292     5.1717     3.9771 C.ar    
  29 H29            0.8524    -1.3869    -1.4200 H       
  30 H30            0.1448     0.1885    -1.8634 H       
  31 H31            3.2313     1.9398    -0.4592 H       
  32 H32            1.6795     2.3347    -1.2435 H       
  33 H33            1.4038     2.7906     1.1198 H       
  34 H34            2.1114     1.2152     1.5631 H       
  35 H35            0.3084    -1.1297     2.2041 H       
  36 H36            0.7006    -2.2267     0.8584 H       
  37 H37            1.8302    -0.9251     1.3038 H       
  38 H38           -1.8974     0.0307    -0.5688 H       
  39 H39           -1.4737    -1.6689    -0.2527 H       
  40 H40           -1.8760    -0.5854     1.1010 H       
  41 H41            5.6013    -1.5105    -1.8283 H       
  42 H42            7.7630    -0.3065    -2.0662 H       
  43 H43            7.7727     2.1692    -1.9024 H       
  44 H44            3.7047     4.0341    -2.0809 H       
  45 H45            3.9630     3.9162    -0.3237 H       
  46 H46            4.5224     5.3543    -1.2110 H       
  47 H47           -2.6493     3.8542     1.1161 H       
  48 H48           -2.5893     3.1121     2.7329 H       
  49 H49           -1.7522     6.0780     0.7357 H       
  50 H50           -1.2192     8.2702     1.7221 H       
  51 H51           -0.8815     8.4774     4.1524 H       
  52 H52           -1.0776     6.4925     5.5963 H       
  53 H53           -1.6188     4.3018     4.6108 H       
@<TRIPOS>BOND
   1    1    2 1
   2    1    6 1
   3    1    7 am
   4    2    3 1
   5    2   10 1
   6    2   11 1
   7    3    4 1
   8    3   29 1
   9    3   30 1
  10    4    5 1
  11    4   12 am
  12    5    6 1
  13    5   31 1
  14    5   32 1
  15    6   33 1
  16    6   34 1
  17    7    8 2
  18    7    9 1
  19    9   22 1
  20   10   35 1
  21   10   36 1
  22   10   37 1
  23   11   38 1
  24   11   39 1
  25   11   40 1
  26   12   13 2
  27   12   14 1
  28   14   15 ar
  29   14   19 ar
  30   15   16 ar
  31   15   41 1
  32   16   17 ar
  33   16   42 1
  34   17   18 ar
  35   17   43 1
  36   18   19 ar
  37   18   20 1
  38   20   21 1
  39   21   44 1
  40   21   45 1
  41   21   46 1
  42   22   23 1
  43   22   47 1
  44   22   48 1
  45   23   24 ar
  46   23   28 ar
  47   24   25 ar
  48   24   49 1
  49   25   26 ar
  50   25   50 1
  51   26   27 ar
  52   26   51 1
  53   27   28 ar
  54   27   52 1
  55   28   53 1

#	End of record

