#	Name: ASD03740089
#	Creating user name:	WinNT
#	Creation time:	15. 06. 2019 20:46

#	Modifying user name:	WinNT
#	Modification time:	15. 06. 2019 20:46

#	Program:	/corina/corina34_cracker 3.40 0067  02.08.2006

@<TRIPOS>MOLECULE
ASD03740089
  55   58    0    0    0
SMALL
NO_CHARGES


@<TRIPOS>ATOM
   1 C1            -0.4269     2.1770     0.0794 C.ar    
   2 C2            -0.5231     0.7912     0.0714 C.ar    
   3 C3             0.5991     0.0122     0.0467 C.ar    
   4 C4             1.8571     0.6093     0.0287 C.ar    
   5 C5             1.9560     2.0140     0.0363 C.ar    
   6 C6             0.7931     2.7896     0.0622 C.ar    
   7 N7             3.1380     0.1224     0.0031 N.pl3   
   8 N8             4.0366     1.1940    -0.0054 N.2     
   9 C9             3.3851     2.3249     0.0134 C.2     
  10 O10            3.9356     3.5677     0.0116 O.3     
  11 C11            3.5072    -1.2953    -0.0120 C.3     
  12 C12            5.3623     3.6453    -0.0126 C.3     
  13 C13            5.7933     5.1134    -0.0109 C.3     
  14 C14            7.3208     5.1964    -0.0369 C.3     
  15 N15            7.7346     6.6059    -0.0353 N.3     
  16 C16            9.1740     6.7378     0.3080 C.3     
  17 C17            7.6285     7.1935    -1.3956 C.3     
  18 C18            8.5632     8.4218    -1.3627 C.3     
  19 C19            9.5799     8.1220    -0.2420 C.3     
  20 C20            9.3674     6.6887     1.8250 C.3     
  21 N21           10.8031     6.6979     2.1361 N.3     
  22 C22           11.0341     7.0224     3.5557 C.3     
  23 C23           11.8496     5.8618     4.1632 C.3     
  24 C24           12.5208     5.2186     2.9211 C.3     
  25 C25           11.4161     5.3838     1.8478 C.3     
  26 H26           -1.3258     2.7755     0.0948 H       
  27 H27           -1.4966     0.3240     0.0853 H       
  28 H28            0.5107    -1.0642     0.0414 H       
  29 H29            0.8595     3.8676     0.0678 H       
  30 H30            3.5806    -1.6406    -1.0432 H       
  31 H31            4.4689    -1.4255     0.4842 H       
  32 H32            2.7467    -1.8744     0.5119 H       
  33 H33            5.7683     3.1464     0.8673 H       
  34 H34            5.7374     3.1576    -0.9123 H       
  35 H35            5.3872     5.6123    -0.8909 H       
  36 H36            5.4181     5.6011     0.8888 H       
  37 H37            7.7268     4.6975     0.8430 H       
  38 H38            7.6959     4.7087    -0.9366 H       
  39 H39            9.7535     5.9504    -0.1740 H       
  40 H40            7.9664     6.4787    -2.1459 H       
  41 H41            6.6027     7.5017    -1.5976 H       
  42 H42            9.0752     8.5336    -2.3185 H       
  43 H43            7.9962     9.3228    -1.1285 H       
  44 H44            9.5120     8.8758     0.5424 H       
  45 H45           10.5910     8.0866    -0.6476 H       
  46 H46            8.8915     7.5572     2.2802 H       
  47 H47            8.9160     5.7784     2.2195 H       
  48 H48           11.5962     7.9528     3.6366 H       
  49 H49           10.0801     7.1167     4.0745 H       
  50 H50           12.6020     6.2402     4.8552 H       
  51 H51           11.1926     5.1475     4.6594 H       
  52 H52           13.4230     5.7617     2.6397 H       
  53 H53           12.7398     4.1654     3.0971 H       
  54 H54           10.6745     4.5904     1.9413 H       
  55 H55           11.8534     5.3798     0.8494 H       
@<TRIPOS>BOND
   1    1    2 ar
   2    1    6 ar
   3    1   26 1
   4    2    3 ar
   5    2   27 1
   6    3    4 ar
   7    3   28 1
   8    4    5 ar
   9    4    7 1
  10    5    6 ar
  11    5    9 1
  12    6   29 1
  13    7    8 1
  14    7   11 1
  15    8    9 2
  16    9   10 1
  17   10   12 1
  18   11   30 1
  19   11   31 1
  20   11   32 1
  21   12   13 1
  22   12   33 1
  23   12   34 1
  24   13   14 1
  25   13   35 1
  26   13   36 1
  27   14   15 1
  28   14   37 1
  29   14   38 1
  30   15   16 1
  31   15   17 1
  32   16   20 1
  33   16   19 1
  34   16   39 1
  35   17   18 1
  36   17   40 1
  37   17   41 1
  38   18   19 1
  39   18   42 1
  40   18   43 1
  41   19   44 1
  42   19   45 1
  43   20   21 1
  44   20   46 1
  45   20   47 1
  46   21   22 1
  47   21   25 1
  48   22   23 1
  49   22   48 1
  50   22   49 1
  51   23   24 1
  52   23   50 1
  53   23   51 1
  54   24   25 1
  55   24   52 1
  56   24   53 1
  57   25   54 1
  58   25   55 1

#	End of record

