#	Name: ASD03240535
#	Creating user name:	WinNT
#	Creation time:	15. 06. 2019 20:35

#	Modifying user name:	WinNT
#	Modification time:	15. 06. 2019 20:35

#	Program:	/corina/corina34_cracker 3.40 0067  02.08.2006

@<TRIPOS>MOLECULE
ASD03240535
  58   64    0    0    0
SMALL
NO_CHARGES


@<TRIPOS>ATOM
   1 C1            -0.0166     1.3755     0.0096 C.ar    
   2 C2             0.0021    -0.0041     0.0020 C.ar    
   3 N3             1.1422    -0.6683    -0.0058 N.ar    
   4 C4             2.3145    -0.0481    -0.0058 C.ar    
   5 C5             2.3702     1.3442    -0.0124 C.ar    
   6 C6             1.1860     2.0698     0.0019 C.ar    
   7 N7             3.4819    -0.8058     0.0219 N.pl3   
   8 C8             4.3590    -0.7197     1.0996 C.ar    
   9 C9             4.9952     0.4885     1.4038 C.ar    
  10 C10            4.7639     1.6832     0.5622 C.2     
  11 N11            3.5938     2.0277    -0.0512 N.pl3   
  12 C12            4.6048    -1.8396     1.8828 C.ar    
  13 C13            5.4642    -1.7544     2.9615 C.ar    
  14 C14            6.0853    -0.5565     3.2704 C.ar    
  15 C15            5.8561     0.5645     2.4983 C.ar    
  16 N16            5.6754     2.5933     0.2856 N.2     
  17 C17            5.1446     3.5395    -0.5053 C.2     
  18 C18            3.8216     3.2027    -0.7361 C.2     
  19 C19            2.8483     3.9522    -1.5539 C.ar    
  20 C20            2.7488     5.3401    -1.4300 C.ar    
  21 C21            2.0260     3.2777    -2.4598 C.ar    
  22 C22            1.1190     3.9847    -3.2212 C.ar    
  23 C23            1.0226     5.3589    -3.0897 C.ar    
  24 C24            1.8372     6.0341    -2.1979 C.ar    
  25 C25            5.8474     4.7294    -1.0348 C.ar    
  26 C26            0.0297     6.1244    -3.9260 C.3     
  27 N27           -1.0489     5.2760    -4.4500 N.3     
  28 C28           -0.4715     7.4160    -3.2586 C.3     
  29 C29           -0.3842     8.0736    -4.6460 C.3     
  30 C30            0.6829     7.0193    -4.9925 C.3     
  31 C31            6.9559     5.2464    -0.3609 C.ar    
  32 N32            7.5783     6.3075    -0.8378 N.ar    
  33 C33            7.1541     6.8809    -1.9514 C.ar    
  34 C34            6.0557     6.3728    -2.6228 C.ar    
  35 N35            5.4287     5.3078    -2.1580 N.ar    
  36 H36           -0.9556     1.9091     0.0170 H       
  37 H37           -0.9306    -0.5486     0.0028 H       
  38 H38            1.2002     3.1497     0.0064 H       
  39 H39            3.6862    -1.4001    -0.7170 H       
  40 H40            4.1236    -2.7778     1.6490 H       
  41 H41            5.6522    -2.6281     3.5678 H       
  42 H42            6.7513    -0.4987     4.1186 H       
  43 H43            6.3420     1.4979     2.7412 H       
  44 H44            3.3840     5.8684    -0.7344 H       
  45 H45            2.1007     2.2054    -2.5639 H       
  46 H46            0.4827     3.4647    -3.9219 H       
  47 H47            1.7564     7.1067    -2.1002 H       
  48 H48           -0.6758     4.4537    -4.9002 H       
  49 H49           -1.6987     5.0252    -3.7199 H       
  50 H50           -1.4886     7.3423    -2.8736 H       
  51 H51            0.2276     7.8324    -2.5333 H       
  52 H52           -1.2976     7.9776    -5.2330 H       
  53 H53           -0.0002     9.0934    -4.6225 H       
  54 H54            1.6981     7.3267    -4.7415 H       
  55 H55            0.5966     6.6274    -6.0059 H       
  56 H56            7.3028     4.7788     0.5488 H       
  57 H57            7.6665     7.7493    -2.3382 H       
  58 H58            5.7134     6.8458    -3.5314 H       
@<TRIPOS>BOND
   1    1    2 ar
   2    1    6 ar
   3    1   36 1
   4    2    3 ar
   5    2   37 1
   6    3    4 ar
   7    4    5 ar
   8    4    7 1
   9    5    6 ar
  10    5   11 1
  11    6   38 1
  12    7    8 1
  13    7   39 1
  14    8    9 ar
  15    8   12 ar
  16    9   10 1
  17    9   15 ar
  18   10   11 1
  19   10   16 2
  20   11   18 1
  21   12   13 ar
  22   12   40 1
  23   13   14 ar
  24   13   41 1
  25   14   15 ar
  26   14   42 1
  27   15   43 1
  28   16   17 1
  29   17   18 2
  30   17   25 1
  31   18   19 1
  32   19   20 ar
  33   19   21 ar
  34   20   24 ar
  35   20   44 1
  36   21   22 ar
  37   21   45 1
  38   22   23 ar
  39   22   46 1
  40   23   24 ar
  41   23   26 1
  42   24   47 1
  43   25   31 ar
  44   25   35 ar
  45   26   27 1
  46   26   28 1
  47   26   30 1
  48   27   48 1
  49   27   49 1
  50   28   29 1
  51   28   50 1
  52   28   51 1
  53   29   30 1
  54   29   52 1
  55   29   53 1
  56   30   54 1
  57   30   55 1
  58   31   32 ar
  59   31   56 1
  60   32   33 ar
  61   33   34 ar
  62   33   57 1
  63   34   35 ar
  64   34   58 1

#	End of record

