#	Name: ASD02690008
#	Creating user name:	WinNT
#	Creation time:	15. 06. 2019 20:26

#	Modifying user name:	WinNT
#	Modification time:	15. 06. 2019 20:26

#	Program:	/corina/corina34_cracker 3.40 0067  02.08.2006

@<TRIPOS>MOLECULE
ASD02690008
  69   71    0    0    0
SMALL
NO_CHARGES


@<TRIPOS>ATOM
   1 C1             0.0063     1.4527     0.1870 C.3     
   2 N2             0.0021    -0.0041     0.0020 N.3     
   3 C3             0.5789    -0.3762    -1.2961 C.3     
   4 C4             2.0375     0.0828    -1.3581 C.3     
   5 C5             2.0983     1.6009    -1.1679 C.3     
   6 C6             1.4478     1.9663     0.1693 C.3     
   7 C7             5.2085     3.8535    -1.5511 C.ar    
   8 C8             3.8751     3.4317    -1.5497 C.ar    
   9 C9             3.5364     2.0513    -1.1680 C.2     
  10 C10            5.5177     5.1485    -1.9096 C.ar    
  11 C11            4.5126     6.0302    -2.2673 C.ar    
  12 C12            3.1906     5.6204    -2.2684 C.ar    
  13 C13            2.8652     4.3286    -1.9124 C.ar    
  14 C14           -1.3536    -0.5498     0.1516 C.3     
  15 C15           -1.3291    -2.0576    -0.1092 C.3     
  16 N16           -2.6802    -2.6070     0.0607 N.3     
  17 C17           -3.1637    -2.4124     1.4336 C.3     
  18 C18           -3.2430    -0.9152     1.7405 C.3     
  19 C19           -1.8546    -0.2911     1.5751 C.3     
  20 C20           -2.7226    -4.0262    -0.3161 C.3     
  21 C21           -4.0457    -4.6167     0.0984 C.ar    
  22 C22           -5.1173    -4.5912    -0.7747 C.ar    
  23 C23           -6.3310    -5.1328    -0.3958 C.ar    
  24 C24           -6.4735    -5.7011     0.8587 C.ar    
  25 C25           -5.3995    -5.7261     1.7322 C.ar    
  26 C26           -4.1853    -5.1886     1.3492 C.ar    
  27 O27           -0.9517    -0.8795     2.5135 O.3     
  28 O28            4.4145     1.2764    -0.8537 O.2     
  29 F29           -7.6596    -6.2305     1.2302 F       
  30 C30            4.8594     7.4438    -2.6576 C.3     
  31 F31            5.0845     7.5048    -4.0371 F       
  32 F32            3.8009     8.2939    -2.3198 F       
  33 F33            6.0148     7.8451    -1.9785 F       
  34 H34           -0.5566     1.9228    -0.6193 H       
  35 H35           -0.4551     1.6987     1.1434 H       
  36 H36            0.5333    -1.4585    -1.4170 H       
  37 H37            0.0133     0.1025    -2.0955 H       
  38 H38            2.6068    -0.4061    -0.5675 H       
  39 H39            2.4607    -0.1796    -2.3277 H       
  40 H40            1.5618     2.0916    -1.9800 H       
  41 H41            1.4497     3.0495     0.2910 H       
  42 H42            2.0078     1.5070     0.9839 H       
  43 H43            5.9936     3.1679    -1.2680 H       
  44 H44            6.5469     5.4759    -1.9108 H       
  45 H45            2.4119     6.3143    -2.5484 H       
  46 H46            1.8332     4.0103    -1.9138 H       
  47 H47           -2.0208    -0.0677    -0.5629 H       
  48 H48           -0.9863    -2.2446    -1.1269 H       
  49 H49           -0.6505    -2.5372     0.5962 H       
  50 H50           -4.1535    -2.8572     1.5365 H       
  51 H51           -2.4766    -2.8904     2.1318 H       
  52 H52           -3.9405    -0.4390     1.0514 H       
  53 H53           -3.5870    -0.7714     2.7647 H       
  54 H54           -1.9149     0.7830     1.7505 H       
  55 H55           -2.6056    -4.1191    -1.3958 H       
  56 H56           -1.9141    -4.5593     0.1842 H       
  57 H57           -5.0060    -4.1475    -1.7530 H       
  58 H58           -7.1681    -5.1124    -1.0779 H       
  59 H59           -5.5095    -6.1692     2.7110 H       
  60 H60           -3.3475    -5.2080     2.0304 H       
  61 H61           -1.2104    -0.7582     3.4374 H       
  62 C62           12.8464    17.4053     8.4513 C.1     
  63 C63           12.8623    16.2314     8.4448 C.1     
  64 O64           12.8280    18.7601     8.4587 O.3     
  65 O65           12.8807    14.8765     8.4374 O.3     
  66 O66           14.1617    19.3758     8.4493 O.3     
  67 O67           11.5469    14.2608     8.4468 O.3     
  68 H68           14.1486    20.3427     8.4546 H       
  69 H69           11.5601    13.2939     8.4415 H       
@<TRIPOS>BOND
   1    1    2 1
   2    1    6 1
   3    1   34 1
   4    1   35 1
   5    2    3 1
   6    2   14 1
   7    3    4 1
   8    3   36 1
   9    3   37 1
  10    4    5 1
  11    4   38 1
  12    4   39 1
  13    5    6 1
  14    5    9 1
  15    5   40 1
  16    6   41 1
  17    6   42 1
  18    7    8 ar
  19    7   10 ar
  20    7   43 1
  21    8    9 1
  22    8   13 ar
  23    9   28 2
  24   10   11 ar
  25   10   44 1
  26   11   12 ar
  27   11   30 1
  28   12   13 ar
  29   12   45 1
  30   13   46 1
  31   14   15 1
  32   14   19 1
  33   14   47 1
  34   15   16 1
  35   15   48 1
  36   15   49 1
  37   16   17 1
  38   16   20 1
  39   17   18 1
  40   17   50 1
  41   17   51 1
  42   18   19 1
  43   18   52 1
  44   18   53 1
  45   19   27 1
  46   19   54 1
  47   20   21 1
  48   20   55 1
  49   20   56 1
  50   21   22 ar
  51   21   26 ar
  52   22   23 ar
  53   22   57 1
  54   23   24 ar
  55   23   58 1
  56   24   25 ar
  57   24   29 1
  58   25   26 ar
  59   25   59 1
  60   26   60 1
  61   27   61 1
  62   30   31 1
  63   30   32 1
  64   30   33 1
  65   62   63 3
  66   62   64 1
  67   63   65 1
  68   64   66 1
  69   65   67 1
  70   66   68 1
  71   67   69 1

#	End of record

