#	Name: ASD01814135
#	Creating user name:	WinNT
#	Creation time:	15. 06. 2019 19:31

#	Modifying user name:	WinNT
#	Modification time:	15. 06. 2019 19:31

#	Program:	/corina/corina34_cracker 3.40 0067  02.08.2006

@<TRIPOS>MOLECULE
ASD01814135
  55   57    0    0    0
SMALL
NO_CHARGES


@<TRIPOS>ATOM
   1 C1            -0.0180     1.4730     0.0101 C.ar    
   2 C2             0.0021    -0.0041     0.0020 C.2     
   3 N3            -1.1558    -0.6938     0.0094 N.am    
   4 O4             1.0630    -0.5975    -0.0113 O.2     
   5 C5            -1.1360    -2.1586     0.0013 C.3     
   6 C6            -2.5713    -2.6882     0.0122 C.3     
   7 N7            -2.5514    -4.1570     0.0041 N.3     
   8 C8            -3.9155    -4.7021     0.0142 C.3     
   9 C9            -3.9090    -6.1033    -0.6038 C.3     
  10 C10           -5.3079    -6.7212    -0.4498 C.3     
  11 N11           -5.5631    -6.8770     1.0027 N.am    
  12 C12           -5.7869    -5.4868     1.4679 C.3     
  13 C13           -4.4237    -4.7768     1.4569 C.3     
  14 C14           -6.3435    -5.6685    -0.9077 C.3     
  15 C15           -6.6607    -4.8512     0.3622 C.3     
  16 C16           -5.5861    -8.0127     1.7279 C.2     
  17 O17           -5.8373    -7.9624     3.0497 O.3     
  18 O18           -5.3802    -9.0821     1.1889 O.2     
  19 C19           -5.8465    -9.2246     3.7675 C.3     
  20 C20           -6.1471    -8.9685     5.2456 C.3     
  21 C21            1.1802     2.1900     0.0026 C.ar    
  22 C22            1.1558     3.5684     0.0097 C.ar    
  23 C23           -0.0555     4.2426     0.0244 C.ar    
  24 C24           -1.2484     3.5354     0.0325 C.ar    
  25 C25           -1.2355     2.1574     0.0196 C.ar    
  26 C26            2.4480     4.3436     0.0020 C.3     
  27 F27           -0.0738     5.5935     0.0314 F       
  28 F28            3.5264     3.4524    -0.0121 F       
  29 F29            2.4985     5.1547    -1.1367 F       
  30 F30            2.5190     5.1432     1.1478 F       
  31 H31           -2.0023    -0.2203     0.0200 H       
  32 H32           -0.6258    -2.5101    -0.8955 H       
  33 H33           -0.6088    -2.5197     0.8844 H       
  34 H34           -3.0815    -2.3367     0.9090 H       
  35 H35           -3.0985    -2.3271    -0.8709 H       
  36 H36           -2.0279    -4.5072    -0.7842 H       
  37 H37           -4.5700    -4.0525    -0.5670 H       
  38 H38           -3.6545    -6.0347    -1.6614 H       
  39 H39           -3.1764    -6.7256    -0.0898 H       
  40 H40           -5.4010    -7.6645    -0.9880 H       
  41 H41           -6.2595    -5.4519     2.4495 H       
  42 H42           -3.7147    -5.3384     2.0652 H       
  43 H43           -4.5337    -3.7692     1.8579 H       
  44 H44           -5.9160    -5.0248    -1.6765 H       
  45 H45           -7.2438    -6.1581    -1.2788 H       
  46 H46           -7.7171    -4.9387     0.6159 H       
  47 H47           -6.3894    -3.8054     0.2181 H       
  48 H48           -6.6137    -9.8755     3.3481 H       
  49 H49           -4.8720    -9.7036     3.6726 H       
  50 H50           -6.1540    -9.9160     5.7845 H       
  51 H51           -5.3799    -8.3176     5.6650 H       
  52 H52           -7.1216    -8.4895     5.3405 H       
  53 H53            2.1243     1.6658    -0.0085 H       
  54 H54           -2.1892     4.0656     0.0443 H       
  55 H55           -2.1650     1.6076     0.0259 H       
@<TRIPOS>BOND
   1    1    2 1
   2    1   21 ar
   3    1   25 ar
   4    2    3 am
   5    2    4 2
   6    3    5 1
   7    3   31 1
   8    5    6 1
   9    5   32 1
  10    5   33 1
  11    6    7 1
  12    6   34 1
  13    6   35 1
  14    7    8 1
  15    7   36 1
  16    8    9 1
  17    8   13 1
  18    8   37 1
  19    9   10 1
  20    9   38 1
  21    9   39 1
  22   10   11 1
  23   10   14 1
  24   10   40 1
  25   11   12 1
  26   11   16 am
  27   12   13 1
  28   12   15 1
  29   12   41 1
  30   13   42 1
  31   13   43 1
  32   14   15 1
  33   14   44 1
  34   14   45 1
  35   15   46 1
  36   15   47 1
  37   16   17 1
  38   16   18 2
  39   17   19 1
  40   19   20 1
  41   19   48 1
  42   19   49 1
  43   20   50 1
  44   20   51 1
  45   20   52 1
  46   21   22 ar
  47   21   53 1
  48   22   23 ar
  49   22   26 1
  50   23   24 ar
  51   23   27 1
  52   24   25 ar
  53   24   54 1
  54   25   55 1
  55   26   28 1
  56   26   29 1
  57   26   30 1

#	End of record

