#	Name: ASD05380034
#	Creating user name:	WinNT
#	Creation time:	15. 06. 2019 20:59

#	Modifying user name:	WinNT
#	Modification time:	15. 06. 2019 20:59

#	Program:	/corina/corina34_cracker 3.40 0067  02.08.2006

@<TRIPOS>MOLECULE
ASD05380034
  58   63    0    0    0
SMALL
NO_CHARGES


@<TRIPOS>ATOM
   1 C1            -0.0404     1.4608    -0.2388 C.ar    
   2 C2             0.0121     0.0578    -0.0801 C.ar    
   3 C3             1.1245     2.1772    -0.5044 C.ar    
   4 C4             2.3241     1.5075    -0.6106 C.ar    
   5 C5             2.3793     0.1288    -0.4558 C.ar    
   6 C6             1.2396    -0.5978    -0.1919 C.ar    
   7 C7             1.0731     3.6737    -0.6748 C.3     
   8 N8            -1.1348    -0.6188     0.1784 N.2     
   9 C9            -2.2762    -0.0088     0.2832 C.2     
  10 N10           -2.4200     1.3372     0.1455 N.am    
  11 C11           -1.3470     2.1220    -0.1087 C.2     
  12 C12           -3.6888     1.9163     0.2732 C.ar    
  13 C13           -4.0190     2.6220     1.4227 C.ar    
  14 C14           -4.6173     1.7908    -0.7517 C.ar    
  15 C15           -5.8675     2.3635    -0.6230 C.ar    
  16 C16           -6.1949     3.0615     0.5249 C.ar    
  17 C17           -5.2709     3.1923     1.5454 C.ar    
  18 C18           -3.5041    -0.8335     0.5715 C.3     
  19 N19           -3.4231    -2.1014    -0.1579 N.pl3   
  20 C20           -4.5799    -2.7860    -0.4859 C.ar    
  21 N21           -5.7713    -2.3066    -0.1465 N.ar    
  22 O22           -1.4609     3.3274    -0.2342 O.2     
  23 C23           -4.5198    -4.0007    -1.1905 C.ar    
  24 C24           -5.7255    -4.6528    -1.4974 C.ar    
  25 N25           -6.8742    -4.1043    -1.1147 N.ar    
  26 C26           -6.8858    -2.9561    -0.4572 C.ar    
  27 N27           -3.5152    -4.7628    -1.6887 N.2     
  28 C28           -4.0159    -5.8148    -2.2674 C.2     
  29 N29           -5.3771    -5.7931    -2.1762 N.pl3   
  30 C30           -3.5881    -1.1093     2.0506 C.ar    
  31 C31           -4.5217    -0.4467     2.8253 C.ar    
  32 C32           -4.5988    -0.6996     4.1822 C.ar    
  33 C33           -3.7425    -1.6156     4.7642 C.ar    
  34 C34           -2.8095    -2.2789     3.9893 C.ar    
  35 C35           -2.7354    -2.0291     2.6317 C.ar    
  36 N36           -8.1033    -2.4137    -0.0799 N.pl3   
  37 H37            3.2292     2.0597    -0.8164 H       
  38 H38            3.3279    -0.3801    -0.5430 H       
  39 H39            1.2950    -1.6697    -0.0727 H       
  40 H40            1.1050     4.1521     0.3041 H       
  41 H41            1.9271     4.0014    -1.2674 H       
  42 H42            0.1499     3.9498    -1.1842 H       
  43 H43           -3.2978     2.7245     2.2200 H       
  44 H44           -4.3619     1.2464    -1.6488 H       
  45 H45           -6.5900     2.2663    -1.4198 H       
  46 H46           -7.1730     3.5090     0.6230 H       
  47 H47           -5.5298     3.7377     2.4409 H       
  48 H48           -4.3918    -0.2871     0.2528 H       
  49 H49           -2.5584    -2.4610    -0.4109 H       
  50 H50           -3.4393    -6.5906    -2.7492 H       
  51 H51           -5.9866    -6.4614    -2.5264 H       
  52 H52           -5.1907     0.2690     2.3706 H       
  53 H53           -5.3277    -0.1814     4.7876 H       
  54 H54           -3.8022    -1.8127     5.8244 H       
  55 H55           -2.1403    -2.9942     4.4441 H       
  56 H56           -2.0065    -2.5473     2.0263 H       
  57 H57           -8.1309    -1.5730     0.4031 H       
  58 H58           -8.9283    -2.8747    -0.2986 H       
@<TRIPOS>BOND
   1    1    2 ar
   2    1    3 ar
   3    1   11 1
   4    2    8 1
   5    2    6 ar
   6    3    4 ar
   7    3    7 1
   8    4    5 ar
   9    4   37 1
  10    5    6 ar
  11    5   38 1
  12    6   39 1
  13    7   40 1
  14    7   41 1
  15    7   42 1
  16    8    9 2
  17    9   10 1
  18    9   18 1
  19   10   11 am
  20   10   12 1
  21   11   22 2
  22   12   13 ar
  23   12   14 ar
  24   13   17 ar
  25   13   43 1
  26   14   15 ar
  27   14   44 1
  28   15   16 ar
  29   15   45 1
  30   16   17 ar
  31   16   46 1
  32   17   47 1
  33   18   19 1
  34   18   30 1
  35   18   48 1
  36   19   20 1
  37   19   49 1
  38   20   21 ar
  39   20   23 ar
  40   21   26 ar
  41   23   24 ar
  42   23   27 1
  43   24   25 ar
  44   24   29 1
  45   25   26 ar
  46   26   36 1
  47   27   28 2
  48   28   29 1
  49   28   50 1
  50   29   51 1
  51   30   31 ar
  52   30   35 ar
  53   31   32 ar
  54   31   52 1
  55   32   33 ar
  56   32   53 1
  57   33   34 ar
  58   33   54 1
  59   34   35 ar
  60   34   55 1
  61   35   56 1
  62   36   57 1
  63   36   58 1

#	End of record

