#	Name: ASD01870697
#	Creating user name:	WinNT
#	Creation time:	15. 06. 2019 19:39

#	Modifying user name:	WinNT
#	Modification time:	15. 06. 2019 19:39

#	Program:	/corina/corina34_cracker 3.40 0067  02.08.2006

@<TRIPOS>MOLECULE
ASD01870697
  49   52    0    0    0
SMALL
NO_CHARGES


@<TRIPOS>ATOM
   1 C1            -0.0365     1.5084    -0.0078 C.3     
   2 C2             0.0046    -0.0218    -0.0086 C.3     
   3 N3             0.9776    -0.4715     0.9986 N.am    
   4 C4             2.3936    -0.1303     0.7891 C.3     
   5 C5             1.3856     2.0448    -0.0089 C.2     
   6 C6             0.5844    -1.1737     2.0797 C.2     
   7 C7             1.5929    -1.7270     3.0086 C.ar    
   8 O8            -0.5992    -1.3520     2.2911 O.2     
   9 C9             1.7434     3.3966    -0.3916 C.2     
  10 C10            2.4560     1.3200     0.3464 C.2     
  11 S11            3.9219     2.2779     0.2272 S.3     
  12 C12            3.0720     3.6525    -0.3092 C.2     
  13 C13            0.7833     4.3699    -0.8176 C.1     
  14 N14            0.0217     5.1421    -1.1555 N.1     
  15 C15            3.7108     4.9749    -0.6473 C.3     
  16 N16            3.7572     5.8155     0.5517 N.pl3   
  17 C17            4.3096     7.0967     0.4854 C.ar    
  18 C18            1.3269    -1.7866     4.3775 C.ar    
  19 C19            2.2720    -2.3045     5.2387 C.ar    
  20 C20            3.4815    -2.7639     4.7482 C.ar    
  21 C21            3.7514    -2.7076     3.3924 C.ar    
  22 C22            2.8127    -2.1974     2.5197 C.ar    
  23 C23            4.8102     7.5774    -0.7179 C.ar    
  24 C24            4.3544     7.8950     1.6212 C.ar    
  25 C25            4.9013     9.1613     1.5522 C.ar    
  26 C26            5.4036     9.6348     0.3540 C.ar    
  27 C27            5.3558     8.8446    -0.7799 C.ar    
  28 C28            4.5096    -3.3275     5.6951 C.3     
  29 H29           -0.5590     1.8593    -0.8977 H       
  30 H30           -0.5572     1.8584     0.8835 H       
  31 H31           -0.9825    -0.4137     0.2367 H       
  32 H32            0.3069    -0.3785    -0.9932 H       
  33 H33            2.9460    -0.2567     1.7202 H       
  34 H34            2.8180    -0.7714     0.0165 H       
  35 H35            4.7239     4.8062    -1.0122 H       
  36 H36            3.1251     5.4746    -1.4189 H       
  37 H37            3.4043     5.4824     1.3915 H       
  38 H38            0.3835    -1.4277     4.7616 H       
  39 H39            2.0675    -2.3512     6.2981 H       
  40 H40            4.6974    -3.0678     3.0160 H       
  41 H41            3.0228    -2.1581     1.4611 H       
  42 H42            4.7732     6.9608    -1.6038 H       
  43 H43            3.9616     7.5261     2.5572 H       
  44 H44            4.9365     9.7825     2.4349 H       
  45 H45            5.8301    10.6257     0.3025 H       
  46 H46            5.7452     9.2190    -1.7151 H       
  47 H47            4.3532    -4.4006     5.8043 H       
  48 H48            5.5081    -3.1443     5.2982 H       
  49 H49            4.4110    -2.8450     6.6675 H       
@<TRIPOS>BOND
   1    1    2 1
   2    1    5 1
   3    1   29 1
   4    1   30 1
   5    2    3 1
   6    2   31 1
   7    2   32 1
   8    3    4 1
   9    3    6 am
  10    4   10 1
  11    4   33 1
  12    4   34 1
  13    5   10 2
  14    5    9 1
  15    6    7 1
  16    6    8 2
  17    7   18 ar
  18    7   22 ar
  19    9   12 2
  20    9   13 1
  21   10   11 1
  22   11   12 1
  23   12   15 1
  24   13   14 3
  25   15   16 1
  26   15   35 1
  27   15   36 1
  28   16   17 1
  29   16   37 1
  30   17   24 ar
  31   17   23 ar
  32   18   19 ar
  33   18   38 1
  34   19   20 ar
  35   19   39 1
  36   20   21 ar
  37   20   28 1
  38   21   22 ar
  39   21   40 1
  40   22   41 1
  41   23   27 ar
  42   23   42 1
  43   24   25 ar
  44   24   43 1
  45   25   26 ar
  46   25   44 1
  47   26   27 ar
  48   26   45 1
  49   27   46 1
  50   28   47 1
  51   28   48 1
  52   28   49 1

#	End of record

