#	Name: ASD01148576
#	Creating user name:	WinNT
#	Creation time:	15. 06. 2019 19:02

#	Modifying user name:	WinNT
#	Modification time:	15. 06. 2019 19:02

#	Program:	/corina/corina34_cracker 3.40 0067  02.08.2006

@<TRIPOS>MOLECULE
ASD01148576
  50   53    0    0    0
SMALL
NO_CHARGES


@<TRIPOS>ATOM
   1 C1            -0.0169     1.4375    -0.0252 C.ar    
   2 C2             0.0192     0.0537    -0.0359 C.ar    
   3 C3            -1.1616    -0.6687    -0.0208 C.ar    
   4 C4            -2.3763    -0.0071     0.0050 C.ar    
   5 C5            -2.4112     1.3747     0.0152 C.ar    
   6 C6            -1.2326     2.0969     0.0064 C.ar    
   7 C7            -3.7350     2.0942     0.0423 C.3     
   8 O8            -4.7251     1.3265     0.7562 O.3     
   9 C9            -3.6502     3.3776     0.9025 C.3     
  10 C10           -4.1246     2.8963     2.2606 C.2     
  11 N11           -4.7069     1.7532     2.1040 N.2     
  12 C12           -3.9509     3.6088     3.5379 C.ar    
  13 C13           -4.4591     3.0283     4.7785 C.ar    
  14 C14           -3.2983     4.8334     3.5715 C.ar    
  15 C15           -3.1208     5.5241     4.7570 C.ar    
  16 C16           -3.5873     5.0220     5.9644 C.ar    
  17 C17           -4.2777     3.7347     5.9911 C.ar    
  18 C18           -3.3831     5.7800     7.2114 C.2     
  19 O19           -3.8845     5.3908     8.2486 O.2     
  20 N20           -2.6406     6.9048     7.2024 N.am    
  21 C21           -4.7646     3.1896     7.1857 C.ar    
  22 C22           -5.1186     1.7927     4.7925 C.ar    
  23 C23           -4.2096     2.4154    -1.3764 C.3     
  24 F24           -4.3426     1.2278    -2.1037 F       
  25 F25           -5.4459     3.0676    -1.3181 F       
  26 F26           -3.2741     3.2446    -2.0045 F       
  27 Cl27          -1.1182    -2.4041    -0.0347 Cl      
  28 Cl28           1.5442    -0.7752    -0.0688 Cl      
  29 Cl29           1.4629     2.3450    -0.0442 Cl      
  30 C30           -2.4491     7.6154     8.3714 C.2     
  31 N31           -2.9814     7.2021     9.4725 N.2     
  32 O32           -2.7852     7.9306    10.6708 O.3     
  33 C33           -3.4306     7.3593    11.8106 C.3     
  34 C34           -5.5766     1.2874     5.9730 C.ar    
  35 C35           -5.4028     1.9850     7.1654 C.ar    
  36 H36           -3.2976    -0.5705     0.0168 H       
  37 H37           -1.2610     3.1765     0.0147 H       
  38 H38           -2.6236     3.7396     0.9573 H       
  39 H39           -4.3135     4.1495     0.5123 H       
  40 H40           -2.9205     5.2560     2.6523 H       
  41 H41           -2.6078     6.4744     4.7430 H       
  42 H42           -2.2406     7.2153     6.3750 H       
  43 H43           -4.6350     3.7201     8.1175 H       
  44 H44           -5.2638     1.2438     3.8738 H       
  45 H45           -1.8541     8.5167     8.3641 H       
  46 H46           -4.5053     7.3133    11.6345 H       
  47 H47           -3.0467     6.3532    11.9793 H       
  48 H48           -3.2321     7.9757    12.6875 H       
  49 H49           -6.0854     0.3348     5.9828 H       
  50 H50           -5.7779     1.5655     8.0872 H       
@<TRIPOS>BOND
   1    1    2 ar
   2    1   29 1
   3    1    6 ar
   4    2    3 ar
   5    2   28 1
   6    3    4 ar
   7    3   27 1
   8    4    5 ar
   9    4   36 1
  10    5    6 ar
  11    5    7 1
  12    6   37 1
  13    7    8 1
  14    7    9 1
  15    7   23 1
  16    8   11 1
  17    9   10 1
  18    9   38 1
  19    9   39 1
  20   10   11 2
  21   10   12 1
  22   12   13 ar
  23   12   14 ar
  24   13   22 ar
  25   13   17 ar
  26   14   15 ar
  27   14   40 1
  28   15   16 ar
  29   15   41 1
  30   16   17 ar
  31   16   18 1
  32   17   21 ar
  33   18   19 2
  34   18   20 am
  35   20   30 1
  36   20   42 1
  37   21   35 ar
  38   21   43 1
  39   22   34 ar
  40   22   44 1
  41   23   24 1
  42   23   25 1
  43   23   26 1
  44   30   31 2
  45   30   45 1
  46   31   32 1
  47   32   33 1
  48   33   46 1
  49   33   47 1
  50   33   48 1
  51   34   35 ar
  52   34   49 1
  53   35   50 1

#	End of record

