#	Name: ASD01916664
#	Creating user name:	WinNT
#	Creation time:	15. 06. 2019 20:07

#	Modifying user name:	WinNT
#	Modification time:	15. 06. 2019 20:07

#	Program:	/corina/corina34_cracker 3.40 0067  02.08.2006

@<TRIPOS>MOLECULE
ASD01916664
  47   50    0    0    0
SMALL
NO_CHARGES


@<TRIPOS>ATOM
   1 C1            -0.0171     1.4100     0.0098 C.ar    
   2 C2             0.0021    -0.0041     0.0020 C.ar    
   3 C3            -1.1912    -0.7255     0.0414 C.ar    
   4 C4            -2.3838    -0.0642     0.0741 C.ar    
   5 C5            -2.4215     1.3385     0.0663 C.ar    
   6 C6            -1.2406     2.0764     0.0357 C.ar    
   7 N7             1.1598     2.0754     0.0021 N.2     
   8 C8             2.3197     1.4679    -0.0397 C.2     
   9 N9             2.4200     0.1197    -0.1575 N.am    
  10 C10            1.3103    -0.6627    -0.0625 C.2     
  11 C11           -3.7191     2.0354     0.0902 C.2     
  12 O12            1.4017    -1.8763    -0.0316 O.2     
  13 C13           -4.8609     1.3283     0.1194 C.2     
  14 C14           -6.1587     2.0253     0.1432 C.ar    
  15 C15           -7.3412     1.2844     0.1735 C.ar    
  16 C16           -8.5617     1.9629     0.1963 C.ar    
  17 C17           -8.5421     3.3634     0.1877 C.ar    
  18 C18           -7.3274     4.0219     0.1572 C.ar    
  19 N19           -6.1926     3.3545     0.1413 N.ar    
  20 C20            3.5357     2.3453     0.1020 C.3     
  21 C21            4.7921     1.6928    -0.4308 C.3     
  22 C22            4.8965     0.2363    -0.0271 C.3     
  23 C23            3.6795    -0.5617    -0.4368 C.3     
  24 C24            6.1348    -0.3737    -0.6869 C.3     
  25 C25            5.0555     0.1531     1.4924 C.3     
  26 C26           -9.8007     1.2456     0.2271 C.1     
  27 N27          -10.7836     0.6765     0.2516 N.1     
  28 H28           -1.1709    -1.8053     0.0456 H       
  29 H29           -3.3065    -0.6247     0.1060 H       
  30 H30           -1.2730     3.1559     0.0320 H       
  31 H31           -3.7524     3.1149     0.0843 H       
  32 H32           -4.8275     0.2488     0.1253 H       
  33 H33           -7.3128     0.2048     0.1788 H       
  34 H34           -9.4660     3.9224     0.2043 H       
  35 H35           -7.3087     5.1017     0.1501 H       
  36 H36            3.3643     3.2746    -0.4412 H       
  37 H37            3.6804     2.5783     1.1569 H       
  38 H38            4.7909     1.7589    -1.5188 H       
  39 H39            5.6596     2.2293    -0.0465 H       
  40 H40            3.6887    -1.5120     0.0969 H       
  41 H41            3.7379    -0.7638    -1.5063 H       
  42 H42            7.0239     0.1643    -0.3582 H       
  43 H43            6.2187    -1.4225    -0.4023 H       
  44 H44            6.0438    -0.2975    -1.7705 H       
  45 H45            4.1896     0.6076     1.9738 H       
  46 H46            5.1315    -0.8919     1.7930 H       
  47 H47            5.9587     0.6842     1.7928 H       
@<TRIPOS>BOND
   1    1    2 ar
   2    1    7 1
   3    1    6 ar
   4    2    3 ar
   5    2   10 1
   6    3    4 ar
   7    3   28 1
   8    4    5 ar
   9    4   29 1
  10    5    6 ar
  11    5   11 1
  12    6   30 1
  13    7    8 2
  14    8    9 1
  15    8   20 1
  16    9   10 am
  17    9   23 1
  18   10   12 2
  19   11   13 2
  20   11   31 1
  21   13   14 1
  22   13   32 1
  23   14   15 ar
  24   14   19 ar
  25   15   16 ar
  26   15   33 1
  27   16   26 1
  28   16   17 ar
  29   17   18 ar
  30   17   34 1
  31   18   19 ar
  32   18   35 1
  33   20   21 1
  34   20   36 1
  35   20   37 1
  36   21   22 1
  37   21   38 1
  38   21   39 1
  39   22   23 1
  40   22   24 1
  41   22   25 1
  42   23   40 1
  43   23   41 1
  44   24   42 1
  45   24   43 1
  46   24   44 1
  47   25   45 1
  48   25   46 1
  49   25   47 1
  50   26   27 3

#	End of record

