#	Name: ASD01917119
#	Creating user name:	WinNT
#	Creation time:	15. 06. 2019 20:08

#	Modifying user name:	WinNT
#	Modification time:	15. 06. 2019 20:08

#	Program:	/corina/corina34_cracker 3.40 0067  02.08.2006

@<TRIPOS>MOLECULE
ASD01917119
  40   42    0    0    0
SMALL
NO_CHARGES


@<TRIPOS>ATOM
   1 C1            -0.0663     1.4718    -0.1214 C.ar    
   2 C2            -0.0189    -0.0055    -0.0551 C.2     
   3 N3            -0.9975    -0.7942     0.3363 N.2     
   4 C4            -0.6029    -2.0704     0.2677 C.2     
   5 N5             0.6371    -2.1114    -0.1700 N.2     
   6 N6             1.0362    -0.7834    -0.3917 N.pl3   
   7 C7             2.3397    -0.3294    -0.8825 C.3     
   8 C8             2.3255    -0.2965    -2.3891 C.2     
   9 O9             3.4201     0.0913    -3.0623 O.3     
  10 O10            1.3288    -0.6192    -2.9911 O.2     
  11 C11           -1.4297    -3.2491     0.6274 C.ar    
  12 C12            0.8408     2.1660    -0.9229 C.ar    
  13 C13            0.7925     3.5429    -0.9813 C.ar    
  14 C14           -0.1546     4.2373    -0.2451 C.ar    
  15 C15           -1.0573     3.5527     0.5527 C.ar    
  16 C16           -1.0216     2.1750     0.6127 C.ar    
  17 C17           -0.9025    -4.5340     0.5122 C.ar    
  18 C18           -2.7333    -3.0740     1.0869 C.ar    
  19 C19           -3.4985    -4.1728     1.4208 C.ar    
  20 C20           -2.9723    -5.4485     1.2997 C.ar    
  21 C21           -1.6744    -5.6269     0.8482 C.ar    
  22 C22           -1.1074    -7.0171     0.7180 C.3     
  23 F23           -3.7246    -6.5214     1.6281 F       
  24 C24           -2.0841     4.3140     1.3508 C.3     
  25 F25           -0.1976     5.5863    -0.3053 F       
  26 H26            2.5442     0.6702    -0.4992 H       
  27 H27            3.1153    -1.0151    -0.5414 H       
  28 H28            3.3631     0.0961    -4.0276 H       
  29 H29            1.5796     1.6259    -1.4964 H       
  30 H30            1.4941     4.0811    -1.6013 H       
  31 H31           -1.7258     1.6423     1.2346 H       
  32 H32            0.1089    -4.6739     0.1600 H       
  33 H33           -3.1442    -2.0798     1.1819 H       
  34 H34           -4.5090    -4.0379     1.7773 H       
  35 H35           -1.3140    -7.4017    -0.2807 H       
  36 H36           -0.0299    -6.9866     0.8799 H       
  37 H37           -1.5682    -7.6684     1.4607 H       
  38 H38           -2.9870     4.4415     0.7536 H       
  39 H39           -2.3238     3.7591     2.2579 H       
  40 H40           -1.6843     5.2922     1.6182 H       
@<TRIPOS>BOND
   1    1    2 1
   2    1   12 ar
   3    1   16 ar
   4    2    3 2
   5    2    6 1
   6    3    4 1
   7    4    5 2
   8    4   11 1
   9    5    6 1
  10    6    7 1
  11    7    8 1
  12    7   26 1
  13    7   27 1
  14    8    9 1
  15    8   10 2
  16    9   28 1
  17   11   17 ar
  18   11   18 ar
  19   12   13 ar
  20   12   29 1
  21   13   14 ar
  22   13   30 1
  23   14   15 ar
  24   14   25 1
  25   15   16 ar
  26   15   24 1
  27   16   31 1
  28   17   21 ar
  29   17   32 1
  30   18   19 ar
  31   18   33 1
  32   19   20 ar
  33   19   34 1
  34   20   21 ar
  35   20   23 1
  36   21   22 1
  37   22   35 1
  38   22   36 1
  39   22   37 1
  40   24   38 1
  41   24   39 1
  42   24   40 1

#	End of record

