#	Name: ASD05860001
#	Creating user name:	WinNT
#	Creation time:	15. 06. 2019 21:04

#	Modifying user name:	WinNT
#	Modification time:	15. 06. 2019 21:04

#	Program:	/corina/corina34_cracker 3.40 0067  02.08.2006

@<TRIPOS>MOLECULE
ASD05860001
  60   63    0    0    0
SMALL
NO_CHARGES


@<TRIPOS>ATOM
   1 C1             3.0754     8.9066     1.7115 C.ar    
   2 C2             1.9657     8.1241     1.9649 C.ar    
   3 C3             2.0577     6.7469     1.8553 C.ar    
   4 C4             3.2620     6.1464     1.4911 C.ar    
   5 C5             4.3680     6.9291     1.2550 C.ar    
   6 C6             4.2692     8.3110     1.3587 C.ar    
   7 C7             5.5850     4.8976     0.3971 C.3     
   8 C8             5.7023     6.3408     0.9042 C.3     
   9 C9             5.8122     2.1573     0.1202 C.3     
  10 C10            7.0850     2.8495     0.6052 C.3     
  11 C11            7.0068     4.3464     0.3366 C.3     
  12 C12            5.9563     0.6666     0.3676 C.2     
  13 C13            7.2491     0.0314     0.1187 C.2     
  14 C14            8.3579     0.8062    -0.1144 C.2     
  15 C15            8.2965     2.3008    -0.1554 C.3     
  16 O16            5.0141     0.0131     0.7657 O.2     
  17 O17            8.4206    -1.9645    -0.1619 O.2     
  18 C18            7.3617    -1.4358     0.1186 C.2     
  19 O19            0.9671     5.9754     2.1046 O.3     
  20 C20            4.7201     4.0936     1.3629 C.3     
  21 C21            3.2919     4.6541     1.3502 C.3     
  22 O22            2.5570     4.0726     2.4290 O.3     
  23 O23            3.4360     2.4880     0.1192 O.3     
  24 C24            4.6095     2.6363     0.9211 C.3     
  25 C25            6.3522     7.1980    -0.1838 C.3     
  26 O26            6.5361     6.3581     2.0646 O.3     
  27 N27            8.2180     2.7369    -1.5560 N.4     
  28 C28            9.3228     3.6613    -1.8437 C.3     
  29 C29            8.3156     1.5672    -2.4392 C.3     
  30 O30            9.5389     0.2019    -0.3123 O.3     
  31 O31            5.6201     2.4065    -1.2737 O.3     
  32 N32            6.2915    -2.1938     0.4294 N.am    
  33 H33            3.0078     9.9820     1.7850 H       
  34 H34            1.0305     8.5844     2.2477 H       
  35 H35            5.1353     8.9253     1.1612 H       
  36 H36            5.1460     4.8929    -0.6006 H       
  37 H37            7.2099     2.6766     1.6742 H       
  38 H38            7.4174     4.5460    -0.6532 H       
  39 H39            7.6153     4.8667     1.0762 H       
  40 H40            9.2061     2.7048     0.2890 H       
  41 H41            0.4199     5.8044     1.3259 H       
  42 H42            5.1338     4.1541     2.3695 H       
  43 H43            2.8130     4.3787     0.4105 H       
  44 H44            2.8609     4.3473     3.3050 H       
  45 H45            3.2600     1.5778    -0.1558 H       
  46 H46            4.5079     2.0106     1.8077 H       
  47 H47            5.7362     7.1725    -1.0827 H       
  48 H48            6.4399     8.2260     0.1676 H       
  49 H49            7.3435     6.8060    -0.4115 H       
  50 H50            6.6603     7.2377     2.4467 H       
  51 H51            7.3381     3.2050    -1.7137 H       
  52 H52           10.2703     3.1843    -1.5930 H       
  53 H53            9.3147     3.9188    -2.9028 H       
  54 H54            9.2033     4.5667    -1.2487 H       
  55 H55            9.2666     1.0623    -2.2698 H       
  56 H56            7.4965     0.8807    -2.2248 H       
  57 H57            8.2560     1.8906    -3.4784 H       
  58 H58            4.8734     1.9282    -1.6595 H       
  59 H59            6.3840    -3.1566     0.5029 H       
  60 H60            5.4288    -1.7766     0.5796 H       
@<TRIPOS>BOND
   1    1    2 ar
   2    1    6 ar
   3    1   33 1
   4    2    3 ar
   5    2   34 1
   6    3    4 ar
   7    3   19 1
   8    4    5 ar
   9    4   21 1
  10    5    6 ar
  11    5    8 1
  12    6   35 1
  13    7    8 1
  14    7   11 1
  15    7   20 1
  16    7   36 1
  17    8   25 1
  18    8   26 1
  19    9   10 1
  20    9   12 1
  21    9   31 1
  22    9   24 1
  23   10   11 1
  24   10   15 1
  25   10   37 1
  26   11   38 1
  27   11   39 1
  28   12   13 1
  29   12   16 2
  30   13   14 2
  31   13   18 1
  32   14   15 1
  33   14   30 1
  34   15   27 1
  35   15   40 1
  36   17   18 2
  37   18   32 am
  38   19   41 1
  39   20   21 1
  40   20   24 1
  41   20   42 1
  42   21   22 1
  43   21   43 1
  44   22   44 1
  45   23   24 1
  46   23   45 1
  47   24   46 1
  48   25   47 1
  49   25   48 1
  50   25   49 1
  51   26   50 1
  52   27   28 1
  53   27   29 1
  54   27   51 1
  55   28   52 1
  56   28   53 1
  57   28   54 1
  58   29   55 1
  59   29   56 1
  60   29   57 1
  61   31   58 1
  62   32   59 1
  63   32   60 1

#	End of record

