#	Name: ASD01310017
#	Creating user name:	WinNT
#	Creation time:	15. 06. 2019 19:15

#	Modifying user name:	WinNT
#	Modification time:	15. 06. 2019 19:15

#	Program:	/corina/corina34_cracker 3.40 0067  02.08.2006

@<TRIPOS>MOLECULE
ASD01310017
  65   67    0    0    0
SMALL
NO_CHARGES


@<TRIPOS>ATOM
   1 C1            -0.0187     1.5258     0.0104 C.3     
   2 C2             0.0021    -0.0041     0.0020 C.3     
   3 C3             0.6481    -0.4830     1.3092 C.3     
   4 C4             1.9440     0.2483     1.5268 C.ar    
   5 C5             2.8827    -0.2866     2.4006 C.ar    
   6 C6             4.0832     0.3697     2.6226 C.ar    
   7 C7             4.3474     1.5607     1.9732 C.ar    
   8 C8             3.4182     2.0941     1.1038 C.ar    
   9 C9             2.2116     1.4391     0.8739 C.ar    
  10 O10            1.3316     1.9934     0.0000 O.3     
  11 C11            0.8903    -1.9886     1.1944 C.3     
  12 C12           -0.3771    -2.6681     0.7564 C.2     
  13 C13           -1.3948    -2.0384     0.2064 C.2     
  14 C14           -1.4226    -0.5579    -0.0525 C.3     
  15 C15           -0.4869    -4.1203     0.9530 C.2     
  16 O16           -1.4960    -4.7052     0.6117 O.2     
  17 O17            0.5318    -4.8036     1.5120 O.3     
  18 C18            5.3692     3.6701     2.7829 C.3     
  19 C19            5.6508     2.2775     2.2153 C.3     
  20 C20            6.4933     1.4807     3.2133 C.3     
  21 C21            7.8165     2.2084     3.4591 C.3     
  22 C22            8.6591     1.4116     4.4571 C.3     
  23 C23            9.9823     2.1393     4.7028 C.3     
  24 C24           10.8249     1.3425     5.7009 C.3     
  25 C25           12.1481     2.0702     5.9466 C.3     
  26 C26            6.4130     2.4094     0.8953 C.3     
  27 C27           -0.7514     2.0384    -1.2311 C.3     
  28 C28           -0.7275     2.0249     1.2711 C.3     
  29 O29            2.6226    -1.4572     3.0401 O.3     
  30 H30            0.5839    -0.3597    -0.8483 H       
  31 H31           -0.0261    -0.2842     2.1423 H       
  32 H32            4.8108    -0.0488     3.3022 H       
  33 H33            3.6282     3.0254     0.5989 H       
  34 H34            1.6748    -2.1756     0.4611 H       
  35 H35            1.1974    -2.3822     2.1634 H       
  36 H36           -2.2601    -2.6200    -0.0754 H       
  37 H37           -2.0323    -0.0676     0.7064 H       
  38 H38           -1.8482    -0.3693    -1.0381 H       
  39 H39            0.4134    -5.7571     1.6209 H       
  40 H40            4.8261     3.5761     3.7233 H       
  41 H41            6.3119     4.1885     2.9580 H       
  42 H42            4.7689     4.2378     2.0719 H       
  43 H43            5.9502     1.3867     4.1537 H       
  44 H44            6.6939     0.4886     2.8089 H       
  45 H45            8.3596     2.3024     2.5187 H       
  46 H46            7.6159     3.2005     3.8635 H       
  47 H47            8.1160     1.3176     5.3975 H       
  48 H48            8.8597     0.4195     4.0527 H       
  49 H49           10.5254     2.2333     3.7624 H       
  50 H50            9.7817     3.1314     5.1073 H       
  51 H51           10.2818     1.2485     6.6413 H       
  52 H52           11.0255     0.3504     5.2965 H       
  53 H53           12.7484     1.5025     6.6577 H       
  54 H54           12.6912     2.1642     5.0062 H       
  55 H55           11.9475     3.0623     6.3510 H       
  56 H56            5.8128     2.9770     0.1842 H       
  57 H57            7.3557     2.9278     1.0703 H       
  58 H58            6.6136     1.4173     0.4908 H       
  59 H59           -1.7747     1.6631    -1.2298 H       
  60 H60           -0.7640     3.1282    -1.2214 H       
  61 H61           -0.2373     1.6889    -2.1265 H       
  62 H62           -0.1965     1.6659     2.1528 H       
  63 H63           -0.7402     3.1148     1.2734 H       
  64 H64           -1.7507     1.6496     1.2854 H       
  65 H65            2.9146    -2.2425     2.5573 H       
@<TRIPOS>BOND
   1    1    2 1
   2    1   10 1
   3    1   27 1
   4    1   28 1
   5    2    3 1
   6    2   14 1
   7    2   30 1
   8    3    4 1
   9    3   11 1
  10    3   31 1
  11    4    5 ar
  12    4    9 ar
  13    5    6 ar
  14    5   29 1
  15    6    7 ar
  16    6   32 1
  17    7    8 ar
  18    7   19 1
  19    8    9 ar
  20    8   33 1
  21    9   10 1
  22   11   12 1
  23   11   34 1
  24   11   35 1
  25   12   13 2
  26   12   15 1
  27   13   14 1
  28   13   36 1
  29   14   37 1
  30   14   38 1
  31   15   16 2
  32   15   17 1
  33   17   39 1
  34   18   19 1
  35   18   40 1
  36   18   41 1
  37   18   42 1
  38   19   20 1
  39   19   26 1
  40   20   21 1
  41   20   43 1
  42   20   44 1
  43   21   22 1
  44   21   45 1
  45   21   46 1
  46   22   23 1
  47   22   47 1
  48   22   48 1
  49   23   24 1
  50   23   49 1
  51   23   50 1
  52   24   25 1
  53   24   51 1
  54   24   52 1
  55   25   53 1
  56   25   54 1
  57   25   55 1
  58   26   56 1
  59   26   57 1
  60   26   58 1
  61   27   59 1
  62   27   60 1
  63   27   61 1
  64   28   62 1
  65   28   63 1
  66   28   64 1
  67   29   65 1

#	End of record

