#	Name: ASD00070094
#	Creating user name:	WinNT
#	Creation time:	15. 06. 2019 18:30

#	Modifying user name:	WinNT
#	Modification time:	15. 06. 2019 18:30

#	Program:	/corina/corina34_cracker 3.40 0067  02.08.2006

@<TRIPOS>MOLECULE
ASD00070094
  67   70    0    0    0
SMALL
NO_CHARGES


@<TRIPOS>ATOM
   1 C1            -0.0184     1.5028     0.0103 C.2     
   2 C2             0.0021    -0.0041     0.0020 C.3     
   3 C3             1.4513    -0.4944    -0.0145 C.3     
   4 C4             1.4720    -2.0242    -0.0229 C.3     
   5 O5             1.0236     2.1234     0.0037 O.2     
   6 N6            -1.1946     2.1607     0.0195 N.am    
   7 C7            -1.2145     3.6256     0.0275 C.3     
   8 C8            -2.5315     4.1210    -0.5732 C.3     
   9 C9            -2.5522     5.6509    -0.5648 C.3     
  10 C10           -2.4266     6.1547     0.8744 C.3     
  11 C11           -1.1096     5.6592     1.4751 C.3     
  12 C12           -1.0888     4.1294     1.4667 C.3     
  13 C13           -2.4474     7.6846     0.8828 C.3     
  14 C14           -2.4475     8.1867     2.3281 C.3     
  15 N15           -2.4674     9.6555     2.3362 N.3     
  16 C16           -2.7062    10.1711     3.6902 C.3     
  17 C17           -2.8652    11.6923     3.6376 C.3     
  18 C18           -1.5944    12.3135     3.0515 C.3     
  19 C19           -1.3419    11.7238     1.6611 C.3     
  20 C20           -1.2270    10.2018     1.7711 C.3     
  21 O21           -0.1300    16.6738     4.2829 O.3     
  22 C22            0.9559    15.7746     4.5638 C.3     
  23 C23            0.2716    14.3876     4.5232 C.3     
  24 C24           -0.9151    14.6506     3.6164 C.ar    
  25 C25           -1.0650    16.0292     3.5322 C.ar    
  26 C26           -1.7681    13.8064     2.9414 C.ar    
  27 C27           -2.7847    14.3293     2.1614 C.ar    
  28 C28           -2.9392    15.6996     2.0636 C.ar    
  29 C29           -2.0875    16.5473     2.7417 C.ar    
  30 H30           -0.4983    -0.3791     0.8948 H       
  31 H31           -0.5153    -0.3696    -0.8850 H       
  32 H32            1.9516    -0.1193    -0.9073 H       
  33 H33            1.9686    -0.1289     0.8726 H       
  34 H34            2.5045    -2.3735    -0.0346 H       
  35 H35            0.9717    -2.3993     0.8699 H       
  36 H36            0.9547    -2.3897    -0.9099 H       
  37 H37           -2.0280     1.6644     0.0207 H       
  38 H38           -0.3805     4.0035    -0.5638 H       
  39 H39           -2.6210     3.7621    -1.5985 H       
  40 H40           -3.3655     3.7431     0.0182 H       
  41 H41           -1.7182     6.0288    -1.1561 H       
  42 H42           -3.4905     6.0039    -0.9927 H       
  43 H43           -3.2606     5.7768     1.4658 H       
  44 H44           -0.2756     6.0372     0.8838 H       
  45 H45           -1.0201     6.0182     2.5004 H       
  46 H46           -1.9228     3.7515     2.0581 H       
  47 H47           -0.1506     3.7764     1.8947 H       
  48 H48           -1.5649     8.0627     0.3669 H       
  49 H49           -3.3446     8.0386     0.3752 H       
  50 H50           -3.3300     7.8085     2.8441 H       
  51 H51           -1.5502     7.8327     2.8358 H       
  52 H52           -3.6149     9.7247     4.0939 H       
  53 H53           -1.8614     9.9163     4.3301 H       
  54 H54           -3.7183    11.9474     3.0089 H       
  55 H55           -3.0269    12.0764     4.6448 H       
  56 H56           -0.7475    12.0913     3.7007 H       
  57 H57           -2.1710    11.9795     1.0013 H       
  58 H58           -0.4152    12.1304     1.2562 H       
  59 H59           -0.3891     9.9467     2.4199 H       
  60 H60           -1.0614     9.7776     0.7807 H       
  61 H61            1.7262    15.8477     3.7961 H       
  62 H62            1.3736    15.9702     5.5513 H       
  63 H63            0.9345    13.6386     4.0899 H       
  64 H64           -0.0573    14.0862     5.5177 H       
  65 H65           -3.4548    13.6692     1.6307 H       
  66 H66           -3.7304    16.1088     1.4530 H       
  67 H67           -2.2153    17.6167     2.6601 H       
@<TRIPOS>BOND
   1    1    2 1
   2    1    5 2
   3    1    6 am
   4    2    3 1
   5    2   30 1
   6    2   31 1
   7    3    4 1
   8    3   32 1
   9    3   33 1
  10    4   34 1
  11    4   35 1
  12    4   36 1
  13    6    7 1
  14    6   37 1
  15    7    8 1
  16    7   12 1
  17    7   38 1
  18    8    9 1
  19    8   39 1
  20    8   40 1
  21    9   10 1
  22    9   41 1
  23    9   42 1
  24   10   11 1
  25   10   13 1
  26   10   43 1
  27   11   12 1
  28   11   44 1
  29   11   45 1
  30   12   46 1
  31   12   47 1
  32   13   14 1
  33   13   48 1
  34   13   49 1
  35   14   15 1
  36   14   50 1
  37   14   51 1
  38   15   16 1
  39   15   20 1
  40   16   17 1
  41   16   52 1
  42   16   53 1
  43   17   18 1
  44   17   54 1
  45   17   55 1
  46   18   19 1
  47   18   26 1
  48   18   56 1
  49   19   20 1
  50   19   57 1
  51   19   58 1
  52   20   59 1
  53   20   60 1
  54   21   22 1
  55   21   25 1
  56   22   23 1
  57   22   61 1
  58   22   62 1
  59   23   24 1
  60   23   63 1
  61   23   64 1
  62   24   25 ar
  63   24   26 ar
  64   25   29 ar
  65   26   27 ar
  66   27   28 ar
  67   27   65 1
  68   28   29 ar
  69   28   66 1
  70   29   67 1

#	End of record

