#	Name: ASD01815089
#	Creating user name:	WinNT
#	Creation time:	15. 06. 2019 19:33

#	Modifying user name:	WinNT
#	Modification time:	15. 06. 2019 19:33

#	Program:	/corina/corina34_cracker 3.40 0067  02.08.2006

@<TRIPOS>MOLECULE
ASD01815089
  52   56    0    0    0
SMALL
NO_CHARGES


@<TRIPOS>ATOM
   1 C1            -0.0169     1.3972     0.0097 C.2     
   2 C2             0.0021    -0.0041     0.0020 C.2     
   3 C3             1.1986    -0.6593    -0.0129 C.2     
   4 C4             2.3918     0.0821    -0.0204 C.2     
   5 N5             2.3437     1.4497    -0.0122 N.am    
   6 C6             1.1421     2.0937     0.0024 C.2     
   7 C7             3.6227    -0.5889    -0.0356 C.2     
   8 C8             4.7877     0.1218    -0.0425 C.2     
   9 C9             4.7345     1.5280    -0.0346 C.2     
  10 C10            3.4812     2.1736    -0.0189 C.2     
  11 O11            3.4258     3.3917    -0.0123 O.2     
  12 C12            5.9703     2.3140    -0.0413 C.2     
  13 O13            5.9124     3.6618    -0.0337 O.3     
  14 O14            7.0487     1.7516    -0.0537 O.2     
  15 C15            3.6593    -2.0954    -0.0439 C.3     
  16 N16            3.7787    -2.5747    -1.4274 N.3     
  17 C17            2.8542    -1.8561    -2.3154 C.3     
  18 C18            3.5801    -4.0290    -1.4999 C.3     
  19 C19            3.7090    -4.4784    -2.9649 C.3     
  20 N20            2.6019    -3.8272    -3.7174 N.3     
  21 C21            3.0135    -2.3969    -3.7461 C.3     
  22 C22            2.5028    -4.3456    -5.0105 C.ar    
  23 C23            4.5271    -2.4494    -4.0612 C.3     
  24 C24            4.9879    -3.8283    -3.5436 C.3     
  25 C25            1.5285    -3.8694    -5.8787 C.ar    
  26 C26            1.4336    -4.3838    -7.1568 C.ar    
  27 C27            2.3071    -5.3719    -7.5727 C.ar    
  28 C28            3.2782    -5.8482    -6.7111 C.ar    
  29 C29            3.3820    -5.3345    -5.4333 C.ar    
  30 H30           -0.9605     1.9226     0.0170 H       
  31 H31           -0.9233    -0.5609     0.0082 H       
  32 H32            1.2282    -1.7389    -0.0187 H       
  33 H33            1.1156     3.1733     0.0087 H       
  34 H34            5.7393    -0.3889    -0.0536 H       
  35 H35            6.7544     4.1373    -0.0385 H       
  36 H36            4.5153    -2.4412     0.5356 H       
  37 H37            2.7412    -2.4836     0.3971 H       
  38 H38            1.8294    -2.0120    -1.9784 H       
  39 H39            3.0870    -0.7913    -2.2998 H       
  40 H40            4.3362    -4.5310    -0.8964 H       
  41 H41            2.5872    -4.2806    -1.1271 H       
  42 H42            3.6998    -5.5635    -3.0673 H       
  43 H43            2.4474    -1.8155    -4.4738 H       
  44 H44            4.6942    -2.3718    -5.1355 H       
  45 H45            5.0523    -1.6517    -3.5358 H       
  46 H46            5.7397    -3.7092    -2.7635 H       
  47 H47            5.3818    -4.4293    -4.3632 H       
  48 H48            0.8458    -3.0979    -5.5543 H       
  49 H49            0.6762    -4.0143    -7.8321 H       
  50 H50            2.2305    -5.7727    -8.5726 H       
  51 H51            3.9588    -6.6200    -7.0390 H       
  52 H52            4.1408    -5.7066    -4.7610 H       
@<TRIPOS>BOND
   1    1    2 1
   2    1    6 2
   3    1   30 1
   4    2    3 2
   5    2   31 1
   6    3    4 1
   7    3   32 1
   8    4    5 1
   9    4    7 2
  10    5    6 1
  11    5   10 am
  12    6   33 1
  13    7    8 1
  14    7   15 1
  15    8    9 2
  16    8   34 1
  17    9   10 1
  18    9   12 1
  19   10   11 2
  20   12   13 1
  21   12   14 2
  22   13   35 1
  23   15   16 1
  24   15   36 1
  25   15   37 1
  26   16   18 1
  27   16   17 1
  28   17   21 1
  29   17   38 1
  30   17   39 1
  31   18   19 1
  32   18   40 1
  33   18   41 1
  34   19   20 1
  35   19   24 1
  36   19   42 1
  37   20   21 1
  38   20   22 1
  39   21   23 1
  40   21   43 1
  41   22   25 ar
  42   22   29 ar
  43   23   24 1
  44   23   44 1
  45   23   45 1
  46   24   46 1
  47   24   47 1
  48   25   26 ar
  49   25   48 1
  50   26   27 ar
  51   26   49 1
  52   27   28 ar
  53   27   50 1
  54   28   29 ar
  55   28   51 1
  56   29   52 1

#	End of record

