#	Name: ASD05430683
#	Creating user name:	WinNT
#	Creation time:	15. 06. 2019 21:00

#	Modifying user name:	WinNT
#	Modification time:	15. 06. 2019 21:00

#	Program:	/corina/corina34_cracker 3.40 0067  02.08.2006

@<TRIPOS>MOLECULE
ASD05430683
  22   22    0    0    0
SMALL
NO_CHARGES


@<TRIPOS>ATOM
   1 C1            -0.0167     1.3794     0.0096 C.ar    
   2 C2             0.0021    -0.0041     0.0020 C.ar    
   3 C3            -1.1812    -0.7131     0.0095 C.ar    
   4 C4            -2.4111     1.3647     0.0440 C.ar    
   5 C5            -1.2205     2.0612     0.0306 C.ar    
   6 C6             1.2801     2.1471     0.0014 C.3     
   7 C7            -2.3997    -0.0314     0.0253 C.ar    
   8 C8             1.3396     3.0343    -1.2438 C.3     
   9 C9             1.3634     3.0209     1.2546 C.3     
  10 C10           -3.6318    -0.7610     0.0386 C.1     
  11 N11           -4.6093    -1.3398     0.0491 N.1     
  12 H12            0.9453    -0.5300    -0.0102 H       
  13 H13           -1.1651    -1.7930     0.0028 H       
  14 H14           -3.3501     1.8982     0.0607 H       
  15 H15           -1.2278     3.1411     0.0450 H       
  16 H16            2.1162     1.4479    -0.0104 H       
  17 H17            1.2802     2.4118    -2.1366 H       
  18 H18            0.5035     3.7335    -1.2320 H       
  19 H19            2.2775     3.5896    -1.2497 H       
  20 H20            1.3210     2.3889     2.1416 H       
  21 H21            2.3014     3.5762     1.2486 H       
  22 H22            0.5273     3.7201     1.2663 H       
@<TRIPOS>BOND
   1    1    2 ar
   2    1    6 1
   3    1    5 ar
   4    2    3 ar
   5    2   12 1
   6    3    7 ar
   7    3   13 1
   8    4    5 ar
   9    4    7 ar
  10    4   14 1
  11    5   15 1
  12    6    8 1
  13    6    9 1
  14    6   16 1
  15    7   10 1
  16    8   17 1
  17    8   18 1
  18    8   19 1
  19    9   20 1
  20    9   21 1
  21    9   22 1
  22   10   11 3

#	End of record

