#	Name: ASD03091208
#	Creating user name:	WinNT
#	Creation time:	15. 06. 2019 20:30

#	Modifying user name:	WinNT
#	Modification time:	15. 06. 2019 20:30

#	Program:	/corina/corina34_cracker 3.40 0067  02.08.2006

@<TRIPOS>MOLECULE
ASD03091208
  48   52    0    0    0
SMALL
NO_CHARGES


@<TRIPOS>ATOM
   1 N1            -0.2574     1.9550    -0.0722 N.2     
   2 C2            -0.3461     0.6517    -0.1392 C.2     
   3 N3             0.7479    -0.1704    -0.1789 N.am    
   4 C4             1.9969     0.3502    -0.1499 C.2     
   5 C5             2.1206     1.8135    -0.0751 C.ar    
   6 C6             3.3623     2.4441    -0.0409 C.ar    
   7 C7             3.4203     3.8258     0.0291 C.ar    
   8 C8             2.2478     4.5809     0.0652 C.ar    
   9 C9             1.0239     3.9770     0.0325 C.ar    
  10 C10            0.9355     2.5832    -0.0378 C.ar    
  11 O11            2.9807    -0.3660    -0.1840 O.2     
  12 C12            5.6848     3.6197     0.7525 C.3     
  13 N13            4.6612     4.4679     0.0643 N.3     
  14 C14            4.5853     5.7287     0.8411 C.3     
  15 C15            5.6486     5.5732     1.9721 C.3     
  16 N16            5.0569     4.5506     2.8915 N.3     
  17 C17            5.0339     3.2792     2.1288 C.3     
  18 C18            6.7181     4.7099     1.2118 C.3     
  19 C19            3.7030     4.9387     3.3089 C.3     
  20 C20            0.5656    -1.6221    -0.2527 C.3     
  21 C21           -1.6893     0.0382    -0.1731 C.ar    
  22 C22           -2.0552    -0.7938    -1.2360 C.ar    
  23 C23           -3.3142    -1.3642    -1.2597 C.ar    
  24 C24           -4.2093    -1.1127    -0.2360 C.ar    
  25 C25           -3.8524    -0.2902     0.8182 C.ar    
  26 C26           -2.5978     0.2815     0.8585 C.ar    
  27 F27           -1.1813    -1.0389    -2.2367 F       
  28 H28            4.2709     1.8610    -0.0685 H       
  29 H29            2.3092     5.6577     0.1202 H       
  30 H30            0.1251     4.5750     0.0615 H       
  31 H31            6.0723     2.7762     0.1810 H       
  32 H32            4.8300     6.5800     0.2059 H       
  33 H33            3.5907     5.8494     1.2705 H       
  34 H34            5.9940     6.4957     2.4386 H       
  35 H35            4.0074     2.9404     1.9886 H       
  36 H36            5.6176     2.5173     2.6454 H       
  37 H37            7.4768     4.3056     1.8819 H       
  38 H38            7.1591     5.2437     0.3699 H       
  39 H39            3.0248     4.8620     2.4591 H       
  40 H40            3.3642     4.2757     4.1051 H       
  41 H41            3.7154     5.9662     3.6724 H       
  42 H42            0.4490    -1.9212    -1.2944 H       
  43 H43            1.4370    -2.1199     0.1728 H       
  44 H44           -0.3248    -1.9055     0.3085 H       
  45 H45           -3.5994    -2.0071    -2.0793 H       
  46 H46           -5.1919    -1.5602    -0.2595 H       
  47 H47           -4.5571    -0.0986     1.6139 H       
  48 H48           -2.3203     0.9194     1.6846 H       
@<TRIPOS>BOND
   1    1    2 2
   2    1   10 1
   3    2    3 1
   4    2   21 1
   5    3    4 am
   6    3   20 1
   7    4    5 1
   8    4   11 2
   9    5    6 ar
  10    5   10 ar
  11    6    7 ar
  12    6   28 1
  13    7    8 ar
  14    7   13 1
  15    8    9 ar
  16    8   29 1
  17    9   10 ar
  18    9   30 1
  19   12   13 1
  20   12   17 1
  21   12   18 1
  22   12   31 1
  23   13   14 1
  24   14   15 1
  25   14   32 1
  26   14   33 1
  27   15   16 1
  28   15   18 1
  29   15   34 1
  30   16   17 1
  31   16   19 1
  32   17   35 1
  33   17   36 1
  34   18   37 1
  35   18   38 1
  36   19   39 1
  37   19   40 1
  38   19   41 1
  39   20   42 1
  40   20   43 1
  41   20   44 1
  42   21   22 ar
  43   21   26 ar
  44   22   23 ar
  45   22   27 1
  46   23   24 ar
  47   23   45 1
  48   24   25 ar
  49   24   46 1
  50   25   26 ar
  51   25   47 1
  52   26   48 1

#	End of record

