#	Name: ASD01910104
#	Creating user name:	WinNT
#	Creation time:	15. 06. 2019 19:55

#	Modifying user name:	WinNT
#	Modification time:	15. 06. 2019 19:55

#	Program:	/corina/corina34_cracker 3.40 0067  02.08.2006

@<TRIPOS>MOLECULE
ASD01910104
  43   46    0    0    0
SMALL
NO_CHARGES


@<TRIPOS>ATOM
   1 C1             0.1113     0.4848     0.4008 C.ar    
   2 C2             0.3456    -0.8762     0.4497 C.ar    
   3 C3             1.6400    -1.3692     0.3878 C.ar    
   4 C4             2.7050    -0.4904     0.2758 C.ar    
   5 C5             2.4659     0.8981     0.2254 C.ar    
   6 C6             1.1673     1.3762     0.2887 C.ar    
   7 C7             4.1716    -0.6517     0.1868 C.2     
   8 N8             4.7319     0.5676     0.0918 N.am    
   9 C9             3.7954     1.5332     0.1076 C.2     
  10 C10            6.1725     0.8118    -0.0141 C.3     
  11 C11            6.5996     0.6821    -1.4534 C.ar    
  12 C12            6.4506     1.7553    -2.3219 C.ar    
  13 C13            6.8457     1.6325    -3.6479 C.ar    
  14 C14            7.3854     0.4443    -4.0990 C.ar    
  15 C15            7.5328    -0.6239    -3.2313 C.ar    
  16 C16            7.1449    -0.5025    -1.9086 C.ar    
  17 N17            5.9031     2.9579    -1.8624 N.am    
  18 C18            5.3568     3.8269    -2.7358 C.2     
  19 C19            4.8844     5.1469    -2.2674 C.ar    
  20 C20            4.3181     6.0492    -3.1694 C.ar    
  21 C21            3.8788     7.2793    -2.7256 C.ar    
  22 C22            3.9985     7.6195    -1.3898 C.ar    
  23 C23            4.5593     6.7299    -0.4906 C.ar    
  24 C24            4.9974     5.4943    -0.9202 C.ar    
  25 O25            5.2526     3.5251    -3.9088 O.2     
  26 O26            4.0069     2.7271     0.0371 O.2     
  27 O27            4.7705    -1.7081     0.1982 O.2     
  28 Cl28           8.2117    -2.1163    -3.8017 Cl      
  29 H29           -0.9018     0.8564     0.4457 H       
  30 H30           -0.4853    -1.5606     0.5370 H       
  31 H31            1.8173    -2.4339     0.4272 H       
  32 H32            0.9782     2.4389     0.2502 H       
  33 H33            6.3979     1.8168     0.3426 H       
  34 H34            6.7102     0.0823     0.5916 H       
  35 H35            6.7306     2.4656    -4.3255 H       
  36 H36            7.6925     0.3482    -5.1300 H       
  37 H37            7.2610    -1.3375    -1.2336 H       
  38 H38            5.9167     3.1663    -0.9151 H       
  39 H39            4.2244     5.7851    -4.2124 H       
  40 H40            3.4408     7.9786    -3.4225 H       
  41 H41            3.6530     8.5838    -1.0476 H       
  42 H42            4.6505     7.0018     0.5506 H       
  43 H43            5.4346     4.8006    -0.2172 H       
@<TRIPOS>BOND
   1    1    2 ar
   2    1    6 ar
   3    1   29 1
   4    2    3 ar
   5    2   30 1
   6    3    4 ar
   7    3   31 1
   8    4    5 ar
   9    4    7 1
  10    5    6 ar
  11    5    9 1
  12    6   32 1
  13    7    8 am
  14    7   27 2
  15    8    9 am
  16    8   10 1
  17    9   26 2
  18   10   11 1
  19   10   33 1
  20   10   34 1
  21   11   12 ar
  22   11   16 ar
  23   12   13 ar
  24   12   17 1
  25   13   14 ar
  26   13   35 1
  27   14   15 ar
  28   14   36 1
  29   15   16 ar
  30   15   28 1
  31   16   37 1
  32   17   18 am
  33   17   38 1
  34   18   19 1
  35   18   25 2
  36   19   20 ar
  37   19   24 ar
  38   20   21 ar
  39   20   39 1
  40   21   22 ar
  41   21   40 1
  42   22   23 ar
  43   22   41 1
  44   23   24 ar
  45   23   42 1
  46   24   43 1

#	End of record

