#	Name: ASD03090323
#	Creating user name:	WinNT
#	Creation time:	15. 06. 2019 20:28

#	Modifying user name:	WinNT
#	Modification time:	15. 06. 2019 20:28

#	Program:	/corina/corina34_cracker 3.40 0067  02.08.2006

@<TRIPOS>MOLECULE
ASD03090323
  44   46    0    0    0
SMALL
NO_CHARGES


@<TRIPOS>ATOM
   1 N1             0.0123     1.1607     1.2822 N.ar    
   2 C2             0.0699    -0.1625     1.2762 C.ar    
   3 C3             1.2662    -0.8194     1.0177 C.ar    
   4 C4             2.4113    -0.0622     0.7633 C.ar    
   5 C5             2.3001     1.3338     0.7806 C.ar    
   6 C6             1.0749     1.9070     1.0459 C.ar    
   7 C7             3.7087    -0.7176     0.4832 C.2     
   8 N8             5.7288    -3.4337    -0.4637 N.pl3   
   9 C9             4.8915    -4.4844    -0.8475 C.ar    
  10 C10            3.6853    -4.2164    -1.4819 C.ar    
  11 C11            2.8579    -5.2582    -1.8610 C.ar    
  12 C12            3.2312    -6.5675    -1.6079 C.ar    
  13 C13            4.4333    -6.8371    -0.9755 C.ar    
  14 C14            5.2667    -5.7987    -0.6002 C.ar    
  15 N15            3.8790    -1.9657     0.0961 N.2     
  16 C16            5.1797    -2.2145    -0.0616 C.2     
  17 N17            5.8610    -1.1281     0.2225 N.2     
  18 N18            4.9272    -0.1398     0.5737 N.pl3   
  19 C19            5.2168     1.2410     0.9685 C.3     
  20 C20            5.2625     2.1151    -0.2583 C.2     
  21 N21            5.5152     3.4334    -0.1373 N.am    
  22 F22            4.7947    -8.1154    -0.7294 F       
  23 F23            1.6846    -4.9980    -2.4781 F       
  24 N24           -1.0794    -0.9020     1.5319 N.pl3   
  25 C25           -1.0246    -2.3660     1.5273 C.3     
  26 O26            5.0719     1.6322    -1.3544 O.2     
  27 C27            5.5596     4.2832    -1.3298 C.3     
  28 H28            1.3099    -1.8985     1.0140 H       
  29 H29            3.1637     1.9535     0.5889 H       
  30 H30            0.9830     2.9830     1.0602 H       
  31 H31            6.6916    -3.5513    -0.4766 H       
  32 H32            3.3935    -3.1954    -1.6789 H       
  33 H33            2.5836    -7.3796    -1.9039 H       
  34 H34            6.2041    -6.0094    -0.1070 H       
  35 H35            4.4363     1.5981     1.6402 H       
  36 H36            6.1798     1.2789     1.4777 H       
  37 H37            5.6676     3.8196     0.7394 H       
  38 H38           -1.9175    -0.4487     1.7134 H       
  39 H39           -2.0140    -2.7674     1.7462 H       
  40 H40           -0.7000    -2.7143     0.5468 H       
  41 H41           -0.3188    -2.7056     2.2854 H       
  42 H42            6.3402     3.9260    -2.0016 H       
  43 H43            4.5966     4.2452    -1.8391 H       
  44 H44            5.7751     5.3105    -1.0361 H       
@<TRIPOS>BOND
   1    1    2 ar
   2    1    6 ar
   3    2    3 ar
   4    2   24 1
   5    3    4 ar
   6    3   28 1
   7    4    5 ar
   8    4    7 1
   9    5    6 ar
  10    5   29 1
  11    6   30 1
  12    7   15 2
  13    7   18 1
  14    8    9 1
  15    8   16 1
  16    8   31 1
  17    9   10 ar
  18    9   14 ar
  19   10   11 ar
  20   10   32 1
  21   11   12 ar
  22   11   23 1
  23   12   13 ar
  24   12   33 1
  25   13   14 ar
  26   13   22 1
  27   14   34 1
  28   15   16 1
  29   16   17 2
  30   17   18 1
  31   18   19 1
  32   19   20 1
  33   19   35 1
  34   19   36 1
  35   20   21 am
  36   20   26 2
  37   21   27 1
  38   21   37 1
  39   24   25 1
  40   24   38 1
  41   25   39 1
  42   25   40 1
  43   25   41 1
  44   27   42 1
  45   27   43 1
  46   27   44 1

#	End of record

