#	Name: ASD07300439
#	Creating user name:	WinNT
#	Creation time:	15. 06. 2019 21:09

#	Modifying user name:	WinNT
#	Modification time:	15. 06. 2019 21:09

#	Program:	/corina/corina34_cracker 3.40 0067  02.08.2006

@<TRIPOS>MOLECULE
ASD07300439
  46   48    0    0    0
SMALL
NO_CHARGES


@<TRIPOS>ATOM
   1 C1            -0.8588     0.9901    -0.1287 C.ar    
   2 C2            -1.0217    -0.3807    -0.3517 C.ar    
   3 C3             0.0637    -1.2292    -0.1921 C.ar    
   4 C4             1.2787    -0.6763     0.1860 C.ar    
   5 C5             1.3679     0.6878     0.3896 C.ar    
   6 N6             0.3194     1.4722     0.2308 N.ar    
   7 C7            -2.9727     0.6168    -0.6993 C.2     
   8 N8            -2.0973     1.5796    -0.3552 N.am    
   9 N9            -2.3516    -0.5780    -0.7114 N.am    
  10 O10           -4.1464     0.7990    -0.9634 O.2     
  11 C11           -0.0731    -2.7121    -0.4229 C.3     
  12 C12           -2.3862     2.9477    -0.2432 C.ar    
  13 C13           -3.6705     3.4093    -0.4981 C.ar    
  14 C14           -3.9545     4.7560    -0.3872 C.ar    
  15 C15           -2.9567     5.6478    -0.0212 C.ar    
  16 C16           -1.6731     5.1870     0.2337 C.ar    
  17 C17           -1.3894     3.8398     0.1282 C.ar    
  18 O18           -3.2368     6.9738     0.0874 O.3     
  19 C19           -3.9132     7.3925     1.1815 C.2     
  20 N20           -4.2407     6.6360     2.1967 N.2     
  21 C21           -4.9115     7.3750     3.1189 C.ar    
  22 C22           -4.9944     8.6846     2.6168 C.ar    
  23 N23           -4.3497     8.6678     1.3918 N.pl3   
  24 C24           -5.4764     7.0780     4.3613 C.ar    
  25 C25           -6.1073     8.0687     5.0801 C.ar    
  26 C26           -6.1868     9.3596     4.5797 C.ar    
  27 C27           -5.6339     9.6694     3.3541 C.ar    
  28 H28            2.1460    -1.3057     0.3203 H       
  29 H29            2.3132     1.1193     0.6840 H       
  30 H30           -2.7617    -1.4300    -0.9277 H       
  31 H31            0.1416    -2.9386    -1.4673 H       
  32 H32            0.6300    -3.2457     0.2166 H       
  33 H33           -1.0899    -3.0245    -0.1850 H       
  34 H34           -4.4472     2.7152    -0.7834 H       
  35 H35           -4.9535     5.1152    -0.5859 H       
  36 H36           -0.8967     5.8815     0.5186 H       
  37 H37           -0.3912     3.4806     0.3306 H       
  38 H38           -4.2322     9.4220     0.7933 H       
  39 H39           -5.4188     6.0746     4.7568 H       
  40 H40           -6.5439     7.8385     6.0408 H       
  41 H41           -6.6850    10.1274     5.1529 H       
  42 H42           -5.6987    10.6768     2.9702 H       
  43 Cl43           7.3132    15.6768    11.0408 Cl      
  44 H44            7.3132    17.0468    11.0408 H       
  45 Cl45          12.3132    22.0468    16.0408 Cl      
  46 H46           12.3132    23.4168    16.0408 H       
@<TRIPOS>BOND
   1    1    2 ar
   2    1    6 ar
   3    1    8 1
   4    2    3 ar
   5    2    9 1
   6    3    4 ar
   7    3   11 1
   8    4    5 ar
   9    4   28 1
  10    5    6 ar
  11    5   29 1
  12    7    8 am
  13    7    9 am
  14    7   10 2
  15    8   12 1
  16    9   30 1
  17   11   31 1
  18   11   32 1
  19   11   33 1
  20   12   13 ar
  21   12   17 ar
  22   13   14 ar
  23   13   34 1
  24   14   15 ar
  25   14   35 1
  26   15   16 ar
  27   15   18 1
  28   16   17 ar
  29   16   36 1
  30   17   37 1
  31   18   19 1
  32   19   20 2
  33   19   23 1
  34   20   21 1
  35   21   22 ar
  36   21   24 ar
  37   22   23 1
  38   22   27 ar
  39   23   38 1
  40   24   25 ar
  41   24   39 1
  42   25   26 ar
  43   25   40 1
  44   26   27 ar
  45   26   41 1
  46   27   42 1
  47   43   44 1
  48   45   46 1

#	End of record

