#	Name: ASD03330361
#	Creating user name:	WinNT
#	Creation time:	15. 06. 2019 20:37

#	Modifying user name:	WinNT
#	Modification time:	15. 06. 2019 20:37

#	Program:	/corina/corina34_cracker 3.40 0067  02.08.2006

@<TRIPOS>MOLECULE
ASD03330361
  60   62    0    0    0
SMALL
NO_CHARGES


@<TRIPOS>ATOM
   1 C1             1.1378     2.0794    -0.0687 C.3     
   2 N2             0.8439     0.6395    -0.0479 N.3     
   3 C3             1.1222     0.0206    -1.3564 C.3     
   4 C4             2.5045     0.4401    -1.7856 C.2     
   5 N5             3.1878     1.4716    -1.2238 N.pl3   
   6 C6             2.6545     2.2991    -0.1380 C.3     
   7 C7             3.2960    -0.0876    -2.7526 C.2     
   8 N8             4.4489     0.6197    -2.7705 N.2     
   9 C9             4.3895     1.5583    -1.8524 C.2     
  10 C10            5.4521     2.5434    -1.5535 C.ar    
  11 C11            6.4993     2.7391    -2.4543 C.ar    
  12 C12            2.9604    -1.2262    -3.6259 C.2     
  13 O13            1.8853    -1.7833    -3.5126 O.2     
  14 C14            3.5114    -2.7819    -5.4185 C.3     
  15 N15            3.8450    -1.6501    -4.5503 N.am    
  16 C16           -0.5430     0.3913     0.3677 C.3     
  17 C17            7.4870     3.6597    -2.1699 C.ar    
  18 C18            7.4403     4.3878    -0.9945 C.ar    
  19 C19            6.4045     4.1984    -0.0972 C.ar    
  20 C20            5.4079     3.2847    -0.3724 C.ar    
  21 C21            4.7803    -3.4412    -5.8941 C.2     
  22 C22            2.7135    -2.2818    -6.6244 C.3     
  23 C23           -1.4993     0.9426    -0.6918 C.3     
  24 O24            5.7978    -2.7904    -6.0031 O.2     
  25 C25            5.9865    -5.3712    -6.7645 C.3     
  26 N26            4.7843    -4.7542    -6.1984 N.am    
  27 C27            3.5063    -1.1877    -7.3423 C.3     
  28 C28            2.4618    -3.4442    -7.5869 C.3     
  29 C29            1.3746    -1.7134    -6.1499 C.3     
  30 H30            0.6657     2.5330    -0.9402 H       
  31 H31            0.7456     2.5424     0.8368 H       
  32 H32            1.0775    -1.0648    -1.2675 H       
  33 H33            0.3899     0.3614    -2.0884 H       
  34 H34            2.8651     3.3495    -0.3387 H       
  35 H35            3.1121     2.0056     0.8068 H       
  36 H36            6.5370     2.1710    -3.3720 H       
  37 H37            2.9138    -3.5034    -4.8614 H       
  38 H38            4.7025    -1.2057    -4.6406 H       
  39 H39           -0.7027    -0.6813     0.4783 H       
  40 H40           -0.7312     0.8868     1.3201 H       
  41 H41            8.2984     3.8118    -2.8662 H       
  42 H42            8.2160     5.1070    -0.7764 H       
  43 H43            6.3737     4.7699     0.8186 H       
  44 H44            4.5998     3.1377     0.3288 H       
  45 H45           -1.3111     0.4471    -1.6442 H       
  46 H46           -2.5284     0.7584    -0.3835 H       
  47 H47           -1.3396     2.0152    -0.8024 H       
  48 H48            5.8013    -6.4303    -6.9435 H       
  49 H49            6.2371    -4.8820    -7.7058 H       
  50 H50            6.8154    -5.2604    -6.0654 H       
  51 H51            3.9913    -5.2906    -6.0426 H       
  52 H52            4.4602    -1.5927    -7.6803 H       
  53 H53            2.9379    -0.8315    -8.2014 H       
  54 H54            3.6857    -0.3597    -6.6566 H       
  55 H55            1.8548    -4.2016    -7.0910 H       
  56 H56            1.9366    -3.0781    -8.4692 H       
  57 H57            3.4145    -3.8808    -7.8864 H       
  58 H58            1.5540    -0.8853    -5.4642 H       
  59 H59            0.8062    -1.3572    -7.0090 H       
  60 H60            0.8098    -2.4929    -5.6385 H       
@<TRIPOS>BOND
   1    1    2 1
   2    1    6 1
   3    1   30 1
   4    1   31 1
   5    2    3 1
   6    2   16 1
   7    3    4 1
   8    3   32 1
   9    3   33 1
  10    4    5 1
  11    4    7 2
  12    5    6 1
  13    5    9 1
  14    6   34 1
  15    6   35 1
  16    7    8 1
  17    7   12 1
  18    8    9 2
  19    9   10 1
  20   10   11 ar
  21   10   20 ar
  22   11   17 ar
  23   11   36 1
  24   12   13 2
  25   12   15 am
  26   14   15 1
  27   14   21 1
  28   14   22 1
  29   14   37 1
  30   15   38 1
  31   16   23 1
  32   16   39 1
  33   16   40 1
  34   17   18 ar
  35   17   41 1
  36   18   19 ar
  37   18   42 1
  38   19   20 ar
  39   19   43 1
  40   20   44 1
  41   21   24 2
  42   21   26 am
  43   22   27 1
  44   22   28 1
  45   22   29 1
  46   23   45 1
  47   23   46 1
  48   23   47 1
  49   25   26 1
  50   25   48 1
  51   25   49 1
  52   25   50 1
  53   26   51 1
  54   27   52 1
  55   27   53 1
  56   27   54 1
  57   28   55 1
  58   28   56 1
  59   28   57 1
  60   29   58 1
  61   29   59 1
  62   29   60 1

#	End of record

