#	Name: ASD05430115
#	Creating user name:	WinNT
#	Creation time:	15. 06. 2019 20:59

#	Modifying user name:	WinNT
#	Modification time:	15. 06. 2019 20:59

#	Program:	/corina/corina34_cracker 3.40 0067  02.08.2006

@<TRIPOS>MOLECULE
ASD05430115
  67   72    0    0    0
SMALL
NO_CHARGES


@<TRIPOS>ATOM
   1 F1             7.5526     7.0588    -3.8935 F       
   2 C2             0.1653     1.1918    -1.0007 C.ar    
   3 C3             0.0192    -0.0131    -0.3143 C.ar    
   4 C4             1.0595    -0.5032     0.4644 C.ar    
   5 C5             2.2413     0.1988     0.5625 C.ar    
   6 C6             2.3953     1.4080    -0.1236 C.ar    
   7 C7             1.3478     1.9013    -0.9076 C.ar    
   8 C8             4.8912    -0.0022    -0.0896 C.3     
   9 C9             4.8285     1.5000     0.0677 C.2     
  10 C10            3.6566     2.1594    -0.0202 C.2     
  11 C11            6.3148    -0.4362    -0.4438 C.3     
  12 C12            7.0971     0.6106    -1.2429 C.3     
  13 N13            7.1946     1.8377    -0.4509 N.pl3   
  14 C14            6.0864     2.2193     0.3200 C.2     
  15 C15            8.1671     3.8552    -1.3825 C.ar    
  16 C16            9.1875     4.2929    -2.2062 C.ar    
  17 C17            8.9823     5.3682    -3.0497 C.ar    
  18 C18            7.7542     6.0072    -3.0696 C.ar    
  19 C19            6.7330     5.5680    -2.2442 C.ar    
  20 C20            6.9405     4.4925    -1.4015 C.ar    
  21 N21           -1.1812    -0.7315    -0.4101 N.pl3   
  22 C22           -1.3121    -2.0640    -0.7038 C.2     
  23 C23           -2.6306    -2.3383    -0.6923 C.2     
  24 N24           -3.2908    -1.2081    -0.4000 N.2     
  25 C25           -2.4333    -0.2398    -0.2235 C.2     
  26 C26           -3.2560    -3.6828    -0.9612 C.3     
  27 C27            8.3902     2.6786    -0.4677 C.3     
  28 C28            8.6634     3.1790     0.9553 C.3     
  29 N29            7.4272     3.7145     1.5305 N.pl3   
  30 N30            6.1881     3.1375     1.2279 N.2     
  31 C31            7.0943    -0.9634     0.7649 C.3     
  32 S32            7.9947    -2.1070    -0.3179 S.o     
  33 C33            6.3713    -1.8293    -1.0784 C.3     
  34 O34            8.9858    -1.3917    -1.0427 O.2     
  35 C35           -0.6347     2.9062    -2.4412 C.3     
  36 O36           -0.8534     1.6658    -1.7661 O.3     
  37 C37            9.1656     2.0183     1.8164 C.3     
  38 H38            0.9420    -1.4367     0.9946 H       
  39 H39            3.0483    -0.1844     1.1693 H       
  40 H40            1.4625     2.8344    -1.4393 H       
  41 H41            4.5910    -0.4761     0.8450 H       
  42 H42            4.2113    -0.3110    -0.8835 H       
  43 H43            3.6429     3.2393    -0.0148 H       
  44 H44            8.0973     0.2339    -1.4567 H       
  45 H45            6.5767     0.8200    -2.1775 H       
  46 H46           10.1455     3.7945    -2.1902 H       
  47 H47            9.7797     5.7101    -3.6928 H       
  48 H48            5.7746     6.0658    -2.2589 H       
  49 H49            6.1440     4.1498    -0.7576 H       
  50 H50           -0.5116    -2.7601    -0.9061 H       
  51 H51           -2.6789     0.7826     0.0232 H       
  52 H52           -3.3509    -4.2332    -0.0251 H       
  53 H53           -4.2429    -3.5429    -1.4020 H       
  54 H54           -2.6264    -4.2450    -1.6509 H       
  55 H55            9.2415     2.0961    -0.8198 H       
  56 H56            9.4199     3.9632     0.9257 H       
  57 H57            7.4676     4.4776     2.1279 H       
  58 H58            7.7367    -0.2107     1.2218 H       
  59 H59            6.4627    -1.4712     1.4937 H       
  60 H60            5.6013    -2.5030    -0.7024 H       
  61 H61            6.4073    -1.8029    -2.1674 H       
  62 H62           -0.4305     3.6873    -1.7090 H       
  63 H63            0.2166     2.8080    -3.1149 H       
  64 H64           -1.5235     3.1692    -3.0148 H       
  65 H65           10.0855     1.6199     1.3885 H       
  66 H66            9.3599     2.3741     2.8282 H       
  67 H67            8.4092     1.2341     1.8460 H       
@<TRIPOS>BOND
   1    1   18 1
   2    2    3 ar
   3    2    7 ar
   4    2   36 1
   5    3    4 ar
   6    3   21 1
   7    4    5 ar
   8    4   38 1
   9    5    6 ar
  10    5   39 1
  11    6    7 ar
  12    6   10 1
  13    7   40 1
  14    8    9 1
  15    8   11 1
  16    8   41 1
  17    8   42 1
  18    9   10 2
  19    9   14 1
  20   10   43 1
  21   11   12 1
  22   11   31 1
  23   11   33 1
  24   12   13 1
  25   12   44 1
  26   12   45 1
  27   13   14 1
  28   13   27 1
  29   14   30 2
  30   15   16 ar
  31   15   20 ar
  32   15   27 1
  33   16   17 ar
  34   16   46 1
  35   17   18 ar
  36   17   47 1
  37   18   19 ar
  38   19   20 ar
  39   19   48 1
  40   20   49 1
  41   21   22 1
  42   21   25 1
  43   22   23 2
  44   22   50 1
  45   23   24 1
  46   23   26 1
  47   24   25 2
  48   25   51 1
  49   26   52 1
  50   26   53 1
  51   26   54 1
  52   27   28 1
  53   27   55 1
  54   28   29 1
  55   28   37 1
  56   28   56 1
  57   29   30 1
  58   29   57 1
  59   31   32 1
  60   31   58 1
  61   31   59 1
  62   32   33 1
  63   32   34 2
  64   33   60 1
  65   33   61 1
  66   35   36 1
  67   35   62 1
  68   35   63 1
  69   35   64 1
  70   37   65 1
  71   37   66 1
  72   37   67 1

#	End of record

