#	Name: ASD02500818
#	Creating user name:	WinNT
#	Creation time:	15. 06. 2019 20:23

#	Modifying user name:	WinNT
#	Modification time:	15. 06. 2019 20:23

#	Program:	/corina/corina34_cracker 3.40 0067  02.08.2006

@<TRIPOS>MOLECULE
ASD02500818
  40   43    0    0    0
SMALL
NO_CHARGES


@<TRIPOS>ATOM
   1 C1            -0.0169     1.3923     0.0097 C.2     
   2 C2             0.0021    -0.0041     0.0020 C.2     
   3 C3            -1.2329    -0.6953     0.0105 C.2     
   4 N4            -2.3821     0.0095     0.0257 N.am    
   5 N5            -2.3711     1.4071     0.0330 N.2     
   6 C6            -1.2530     2.0769     0.0303 C.2     
   7 C7             1.3824     1.8295    -0.0013 C.2     
   8 C8             2.1633     0.6903    -0.0149 C.2     
   9 N9             1.3096    -0.4163    -0.0127 N.pl3   
  10 S10            2.4034     3.2621    -0.0034 S.3     
  11 C11            3.8574     2.2778    -0.0225 C.2     
  12 C12            3.5282     0.9613    -0.0261 C.2     
  13 O13           -1.2573    -1.9154     0.0038 O.2     
  14 C14           -3.6632    -0.7011     0.0340 C.3     
  15 C15           -4.0887    -0.9529     1.4576 C.ar    
  16 C16           -4.6845     0.0586     2.1914 C.ar    
  17 C17           -5.0750    -0.1742     3.4995 C.ar    
  18 C18           -4.8696    -1.4155     4.0708 C.ar    
  19 C19           -4.2744    -2.4249     3.3369 C.ar    
  20 C20           -3.8895    -2.1954     2.0293 C.ar    
  21 F21           -4.8845     1.2719     1.6320 F       
  22 C22            5.2267     2.8016    -0.0334 C.2     
  23 O23            6.1707     2.0353    -0.0470 O.2     
  24 O24            5.4393     4.1335    -0.0285 O.3     
  25 C25            6.8207     4.5806    -0.0399 C.3     
  26 C26            1.7483    -1.8141    -0.0239 C.3     
  27 H27           -1.2713     3.1567     0.0362 H       
  28 H28            4.2728     0.1791    -0.0372 H       
  29 H29           -4.4176    -0.0962    -0.4691 H       
  30 H30           -3.5543    -1.6527    -0.4863 H       
  31 H31           -5.5395     0.6142     4.0730 H       
  32 H32           -5.1737    -1.5971     5.0910 H       
  33 H33           -4.1139    -3.3947     3.7843 H       
  34 H34           -3.4247    -2.9847     1.4570 H       
  35 H35            6.8500     5.6702    -0.0344 H       
  36 H36            7.3334     4.1989     0.8430 H       
  37 H37            7.3156     4.2084    -0.9369 H       
  38 H38            1.8670    -2.1659     1.0009 H       
  39 H39            1.0030    -2.4247    -0.5337 H       
  40 H40            2.7012    -1.8916    -0.5474 H       
@<TRIPOS>BOND
   1    1    2 2
   2    1    7 1
   3    1    6 1
   4    2    3 1
   5    2    9 1
   6    3    4 am
   7    3   13 2
   8    4    5 1
   9    4   14 1
  10    5    6 2
  11    6   27 1
  12    7    8 2
  13    7   10 1
  14    8    9 1
  15    8   12 1
  16    9   26 1
  17   10   11 1
  18   11   12 2
  19   11   22 1
  20   12   28 1
  21   14   15 1
  22   14   29 1
  23   14   30 1
  24   15   16 ar
  25   15   20 ar
  26   16   17 ar
  27   16   21 1
  28   17   18 ar
  29   17   31 1
  30   18   19 ar
  31   18   32 1
  32   19   20 ar
  33   19   33 1
  34   20   34 1
  35   22   23 2
  36   22   24 1
  37   24   25 1
  38   25   35 1
  39   25   36 1
  40   25   37 1
  41   26   38 1
  42   26   39 1
  43   26   40 1

#	End of record

