#	Name: ASD08178440
#	Creating user name:	WinNT
#	Creation time:	15. 06. 2019 21:18

#	Modifying user name:	WinNT
#	Modification time:	15. 06. 2019 21:18

#	Program:	/corina/corina34_cracker 3.40 0067  02.08.2006

@<TRIPOS>MOLECULE
ASD08178440
  72   75    0    0    0
SMALL
NO_CHARGES


@<TRIPOS>ATOM
   1 C1            -0.1856     1.6463     0.8855 C.2     
   2 C2             1.1556     3.0010     2.7969 C.2     
   3 N3             0.0556     2.7377     3.4406 N.2     
   4 N4            -1.2232     2.3960     0.7023 N.2     
   5 C5            -0.3249     0.1461     0.8534 C.3     
   6 C6            -1.7866    -0.2250     0.5956 C.3     
   7 C7            -1.9280    -1.7481     0.5630 C.3     
   8 C8            -3.3898    -2.1192     0.3052 C.3     
   9 C9            -3.5290    -3.6194     0.2731 C.2     
  10 N10           -2.4905    -4.3692     0.4510 N.2     
  11 N11           -5.5608    -1.7279    -0.0096 N.2     
  12 C12           -6.1129    -2.9059    -0.0465 C.2     
  13 S13           -5.1069    -4.3520    -0.0068 S.3     
  14 N14           -7.4880    -3.0226    -0.1169 N.am    
  15 C15           -8.0547    -4.2367    -0.2626 C.2     
  16 O16           -7.3659    -5.2343    -0.2370 O.2     
  17 C17           -9.5445    -4.3544    -0.4572 C.3     
  18 C18           -9.9200    -5.8075    -0.5935 C.ar    
  19 C19          -10.1450    -6.5892     0.5485 C.ar    
  20 C20          -10.4980    -7.9562     0.4026 C.ar    
  21 C21          -10.6158    -8.5027    -0.8848 C.ar    
  22 C22          -10.3899    -7.7139    -1.9717 C.ar    
  23 C23          -10.0490    -6.3704    -1.8273 C.ar    
  24 N24            2.1380     3.7686     3.3929 N.am    
  25 C25            1.9570     4.2446     4.6407 C.2     
  26 O26            0.9321     3.9992     5.2404 O.2     
  27 C27            3.0284     5.0817     5.2907 C.3     
  28 C28            2.5820     5.4844     6.6726 C.ar    
  29 C29            1.9767     6.6880     6.8749 C.ar    
  30 C30            1.5572     7.0761     8.1459 C.ar    
  31 C31            1.7395     6.2652     9.2248 C.ar    
  32 C32            2.3594     5.0175     9.0550 C.ar    
  33 C33            2.7811     4.6209     7.7591 C.ar    
  34 S34            1.3922     2.3788     1.1655 S.3     
  35 C35          -10.0331    -6.0663     1.8499 C.ar    
  36 C36          -10.2673    -6.8911     2.9078 C.ar    
  37 N37          -10.5959    -8.1653     2.7431 N.ar    
  38 C38          -10.7183    -8.7203     1.5602 C.ar    
  39 C39            2.5740     4.1388    10.1293 C.ar    
  40 N40            3.1578     2.9820     9.9213 N.ar    
  41 C41            3.5658     2.5890     8.7222 C.ar    
  42 C42            3.3996     3.3653     7.6159 C.ar    
  43 H43           -0.6634     2.2606     2.9974 H       
  44 H44           -1.1484     3.3587     0.7946 H       
  45 H45            0.2989    -0.2597     0.0570 H       
  46 H46           -0.0080    -0.2688     1.8102 H       
  47 H47           -2.4104     0.1808     1.3921 H       
  48 H48           -2.1035     0.1899    -0.3612 H       
  49 H49           -1.3043    -2.1540    -0.2334 H       
  50 H50           -1.6111    -2.1630     1.5199 H       
  51 H51           -4.0136    -1.7134     1.1017 H       
  52 H52           -3.7067    -1.7043    -0.6516 H       
  53 H53           -2.5657    -5.3318     0.3585 H       
  54 H54           -6.1154    -0.9338     0.0418 H       
  55 H55           -8.0454    -2.2306    -0.0614 H       
  56 H56          -10.0583    -3.9255     0.4031 H       
  57 H57           -9.8365    -3.8175    -1.3597 H       
  58 H58          -10.8832    -9.5412    -1.0125 H       
  59 H59          -10.4808    -8.1354    -2.9619 H       
  60 H60           -9.8755    -5.7684    -2.7071 H       
  61 H61            2.9579     3.9649     2.9131 H       
  62 H62            3.9493     4.5028     5.3607 H       
  63 H63            3.2052     5.9747     4.6913 H       
  64 H64            1.8198     7.3517     6.0375 H       
  65 H65            1.0800     8.0360     8.2776 H       
  66 H66            1.4097     6.5801    10.2038 H       
  67 H67           -9.7663    -5.0316     2.0067 H       
  68 H68          -10.1828    -6.4964     3.9095 H       
  69 H69          -10.9884    -9.7626     1.4770 H       
  70 H70            2.2594     4.4147    11.1250 H       
  71 H71            4.0400     1.6241     8.6197 H       
  72 H72            3.7394     3.0258     6.6486 H       
@<TRIPOS>BOND
   1    1    5 1
   2    1   34 1
   3    1    4 2
   4    2    3 2
   5    2   24 1
   6    2   34 1
   7    3   43 1
   8    4   44 1
   9    5    6 1
  10    5   45 1
  11    5   46 1
  12    6    7 1
  13    6   47 1
  14    6   48 1
  15    7    8 1
  16    7   49 1
  17    7   50 1
  18    8    9 1
  19    8   51 1
  20    8   52 1
  21    9   10 2
  22    9   13 1
  23   10   53 1
  24   11   12 2
  25   11   54 1
  26   12   13 1
  27   12   14 1
  28   14   15 am
  29   14   55 1
  30   15   16 2
  31   15   17 1
  32   17   18 1
  33   17   56 1
  34   17   57 1
  35   18   19 ar
  36   18   23 ar
  37   19   20 ar
  38   19   35 ar
  39   20   21 ar
  40   20   38 ar
  41   21   22 ar
  42   21   58 1
  43   22   23 ar
  44   22   59 1
  45   23   60 1
  46   24   25 am
  47   24   61 1
  48   25   26 2
  49   25   27 1
  50   27   28 1
  51   27   62 1
  52   27   63 1
  53   28   29 ar
  54   28   33 ar
  55   29   30 ar
  56   29   64 1
  57   30   31 ar
  58   30   65 1
  59   31   32 ar
  60   31   66 1
  61   32   33 ar
  62   32   39 ar
  63   33   42 ar
  64   35   36 ar
  65   35   67 1
  66   36   37 ar
  67   36   68 1
  68   37   38 ar
  69   38   69 1
  70   39   40 ar
  71   39   70 1
  72   40   41 ar
  73   41   42 ar
  74   41   71 1
  75   42   72 1

#	End of record

