#	Name: ASD02198148
#	Creating user name:	WinNT
#	Creation time:	15. 06. 2019 20:18

#	Modifying user name:	WinNT
#	Modification time:	15. 06. 2019 20:18

#	Program:	/corina/corina34_cracker 3.40 0067  02.08.2006

@<TRIPOS>MOLECULE
ASD02198148
  35   37    0    0    0
SMALL
NO_CHARGES


@<TRIPOS>ATOM
   1 C1            -0.0164     1.3759     0.0040 C.2     
   2 C2             0.0033    -0.0034     0.0266 C.2     
   3 C3            -1.1856    -0.8002     0.0748 C.1     
   4 S4             1.5666     2.0064    -0.0529 S.3     
   5 C5             2.2773     0.4003    -0.0468 C.2     
   6 C6             1.2831    -0.5511    -0.0017 C.2     
   7 C7             3.6561     0.1269    -0.0825 C.2     
   8 C8             4.6316     1.2416    -0.1293 C.ar    
   9 O9             4.0491    -1.0273    -0.0751 O.2     
  10 N10            1.5308    -1.9139     0.0139 N.pl3   
  11 N11           -1.1597     2.1396     0.0194 N.pl3   
  12 N12           -2.1287    -1.4323     0.1130 N.1     
  13 C13            5.9965     0.9642    -0.1646 C.ar    
  14 C14           -1.0699     3.5309     0.1321 C.ar    
  15 C15           -1.9818     4.3448    -0.5328 C.ar    
  16 C16           -0.0742     4.1030     0.9120 C.ar    
  17 C17            0.0120     5.4777     1.0214 C.ar    
  18 C18           -0.8919     6.2845     0.3557 C.ar    
  19 C19           -1.8892     5.7194    -0.4185 C.ar    
  20 F20           -2.9557     3.7926    -1.2889 F       
  21 C21            6.8964     2.0169    -0.2081 C.ar    
  22 C22            6.4002     3.3115    -0.2148 C.ar    
  23 C23            5.0304     3.5140    -0.1781 C.ar    
  24 N24            4.1976     2.4961    -0.1426 N.ar    
  25 H25            2.4436    -2.2413    -0.0073 H       
  26 H26            0.7914    -2.5409     0.0461 H       
  27 H27           -2.0285     1.7135    -0.0479 H       
  28 H28            6.3481    -0.0569    -0.1578 H       
  29 H29            0.6323     3.4740     1.4333 H       
  30 H30            0.7867     5.9227     1.6283 H       
  31 H31           -0.8220     7.3586     0.4440 H       
  32 H32           -2.5935     6.3526    -0.9375 H       
  33 H33            7.9603     1.8331    -0.2358 H       
  34 H34            7.0752     4.1539    -0.2479 H       
  35 H35            4.6406     4.5212    -0.1829 H       
@<TRIPOS>BOND
   1    1    2 2
   2    1    4 1
   3    1   11 1
   4    2    3 1
   5    2    6 1
   6    3   12 3
   7    4    5 1
   8    5    6 2
   9    5    7 1
  10    6   10 1
  11    7    8 1
  12    7    9 2
  13    8   13 ar
  14    8   24 ar
  15   10   25 1
  16   10   26 1
  17   11   14 1
  18   11   27 1
  19   13   21 ar
  20   13   28 1
  21   14   15 ar
  22   14   16 ar
  23   15   20 1
  24   15   19 ar
  25   16   17 ar
  26   16   29 1
  27   17   18 ar
  28   17   30 1
  29   18   19 ar
  30   18   31 1
  31   19   32 1
  32   21   22 ar
  33   21   33 1
  34   22   23 ar
  35   22   34 1
  36   23   24 ar
  37   23   35 1

#	End of record

