#	Name: ASD01913766
#	Creating user name:	WinNT
#	Creation time:	15. 06. 2019 20:02

#	Modifying user name:	WinNT
#	Modification time:	15. 06. 2019 20:02

#	Program:	/corina/corina34_cracker 3.40 0067  02.08.2006

@<TRIPOS>MOLECULE
ASD01913766
  56   58    0    0    0
SMALL
NO_CHARGES


@<TRIPOS>ATOM
   1 O1            -0.0163     1.3508     0.0095 O.3     
   2 C2             0.0021    -0.0041     0.0020 C.ar    
   3 N3             1.1629    -0.6408    -0.0125 N.ar    
   4 C4             1.2330    -1.9556    -0.0202 C.ar    
   5 C5             0.0719    -2.7293    -0.0137 C.ar    
   6 C6            -1.1744    -2.0856     0.0016 C.ar    
   7 C7            -1.1994    -0.7064     0.0154 C.ar    
   8 C8             0.1538    -4.2032    -0.0234 C.2     
   9 N9             1.3565    -4.8112    -0.0386 N.am    
  10 O10           -0.8637    -4.8686    -0.0177 O.2     
  11 C11            1.2480     2.0168     0.0010 C.3     
  12 C12            1.0303     3.5079     0.0111 C.ar    
  13 C13            0.9419     4.1851     1.2128 C.ar    
  14 C14            0.7418     5.5532     1.2236 C.ar    
  15 C15            0.6298     6.2450     0.0328 C.ar    
  16 C16            0.7186     5.5677    -1.1718 C.ar    
  17 C17            0.9247     4.1988    -1.1815 C.ar    
  18 C18            1.4378    -6.2739    -0.0482 C.3     
  19 F19            0.6093     6.2431    -2.3368 F       
  20 C20            2.7655    -6.7069    -0.6732 C.3     
  21 C21            1.3543    -6.7988     1.3865 C.3     
  22 N22            2.8989    -6.1040    -2.0062 N.3     
  23 C23            4.2531    -6.2997    -2.5391 C.3     
  24 C24            4.3988    -5.5374    -3.8581 C.3     
  25 C25            3.3580    -6.0514    -4.8567 C.3     
  26 C26            1.9593    -5.8805    -4.2574 C.3     
  27 C27            1.8844    -6.6329    -2.9268 C.3     
  28 C28            3.4582    -5.2514    -6.1570 C.3     
  29 F29            4.7388    -5.4024    -6.6998 F       
  30 F30            2.5069    -5.7218    -7.0685 F       
  31 F31            3.2208    -3.8985    -5.8917 F       
  32 H32            2.1983    -2.4397    -0.0320 H       
  33 H33           -2.0916    -2.6557     0.0069 H       
  34 H34           -2.1409    -0.1774     0.0278 H       
  35 H35            2.1684    -4.2803    -0.0432 H       
  36 H36            1.8174     1.7267     0.8840 H       
  37 H37            1.8004     1.7363    -0.8958 H       
  38 H38            1.0289     3.6451     2.1441 H       
  39 H39            0.6725     6.0812     2.1632 H       
  40 H40            0.4728     7.3135     0.0415 H       
  41 H41            0.9941     3.6695    -2.1203 H       
  42 H42            0.6118    -6.6799    -0.6322 H       
  43 H43            3.5896    -6.3764    -0.0409 H       
  44 H44            2.7884    -7.7930    -0.7617 H       
  45 H45            0.4085    -6.4903     1.8318 H       
  46 H46            1.4148    -7.8871     1.3794 H       
  47 H47            2.1803    -6.3928     1.9705 H       
  48 H48            4.9834    -5.9263    -1.8213 H       
  49 H49            4.4252    -7.3620    -2.7127 H       
  50 H50            4.2405    -4.4733    -3.6828 H       
  51 H51            5.3990    -5.6956    -4.2613 H       
  52 H52            3.5399    -7.1063    -5.0619 H       
  53 H53            1.7626    -4.8218    -4.0883 H       
  54 H54            1.2167    -6.2838    -4.9458 H       
  55 H55            2.0675    -7.6936    -3.0986 H       
  56 H56            0.8942    -6.5014    -2.4905 H       
@<TRIPOS>BOND
   1    1    2 1
   2    1   11 1
   3    2    3 ar
   4    2    7 ar
   5    3    4 ar
   6    4    5 ar
   7    4   32 1
   8    5    6 ar
   9    5    8 1
  10    6    7 ar
  11    6   33 1
  12    7   34 1
  13    8    9 am
  14    8   10 2
  15    9   18 1
  16    9   35 1
  17   11   12 1
  18   11   36 1
  19   11   37 1
  20   12   13 ar
  21   12   17 ar
  22   13   14 ar
  23   13   38 1
  24   14   15 ar
  25   14   39 1
  26   15   16 ar
  27   15   40 1
  28   16   17 ar
  29   16   19 1
  30   17   41 1
  31   18   20 1
  32   18   21 1
  33   18   42 1
  34   20   22 1
  35   20   43 1
  36   20   44 1
  37   21   45 1
  38   21   46 1
  39   21   47 1
  40   22   23 1
  41   22   27 1
  42   23   24 1
  43   23   48 1
  44   23   49 1
  45   24   25 1
  46   24   50 1
  47   24   51 1
  48   25   26 1
  49   25   28 1
  50   25   52 1
  51   26   27 1
  52   26   53 1
  53   26   54 1
  54   27   55 1
  55   27   56 1
  56   28   29 1
  57   28   30 1
  58   28   31 1

#	End of record

