#	Name: ASD08170005
#	Creating user name:	WinNT
#	Creation time:	15. 06. 2019 21:17

#	Modifying user name:	WinNT
#	Modification time:	15. 06. 2019 21:17

#	Program:	/corina/corina34_cracker 3.40 0067  02.08.2006

@<TRIPOS>MOLECULE
ASD08170005
  60   64    0    0    0
SMALL
NO_CHARGES


@<TRIPOS>ATOM
   1 C1            -0.0168     1.3862     0.0097 C.ar    
   2 C2             0.0021    -0.0041     0.0020 C.ar    
   3 C3             1.1854    -0.6764    -0.0623 C.ar    
   4 C4             2.3902     0.0403    -0.1310 C.ar    
   5 C5             2.3794     1.4538     0.0093 C.ar    
   6 C6             1.1455     2.1045     0.0024 C.ar    
   7 C7             3.6018    -0.6296    -0.3899 C.ar    
   8 C8             4.7755     0.0502    -0.4175 C.ar    
   9 C9             4.8256     1.4174    -0.1501 C.ar    
  10 C10            3.6609     2.1441     0.1511 C.ar    
  11 N11            6.0373     2.0922    -0.2223 N.pl3   
  12 C12            6.2675     3.1758     0.7382 C.3     
  13 C13            5.0157     4.0152     0.8495 C.2     
  14 C14            3.7844     3.4750     0.6253 C.2     
  15 C15            5.1701     5.3725     1.1725 C.2     
  16 C16            3.9711     6.2663     1.3335 C.3     
  17 C17            2.8177     5.4260     1.8867 C.3     
  18 C18            2.5440     4.2823     0.9096 C.3     
  19 C19            3.1787     4.8709     3.2644 C.3     
  20 C20            1.5642     6.3015     2.0049 C.3     
  21 O21            6.2843     5.8335     1.3228 O.2     
  22 C22            6.6034     2.5902     2.0856 C.ar    
  23 C23            5.9289     1.4721     2.5389 C.ar    
  24 C24            6.2335     0.9308     3.7750 C.ar    
  25 C25            7.2174     1.5098     4.5614 C.ar    
  26 C26            7.8964     2.6353     4.1041 C.ar    
  27 C27            7.5894     3.1693     2.8628 C.ar    
  28 Br28           5.3076    -0.5982     4.3920 Br      
  29 O29            7.5182     0.9794     5.7771 O.3     
  30 C30            8.4747     0.0383     5.8117 C.2     
  31 C31            8.8617    -0.5949     7.1233 C.3     
  32 O32            9.0254    -0.3012     4.7912 O.2     
  33 O33            8.8623     3.2069     4.8716 O.3     
  34 C34            9.5173     4.3596     4.3382 C.3     
  35 H35           -0.9626     1.9076     0.0260 H       
  36 H36           -0.9249    -0.5536     0.0498 H       
  37 H37            1.1960    -1.7564    -0.0604 H       
  38 H38            1.0760     3.1782    -0.0763 H       
  39 H39            3.5945    -1.6936    -0.5720 H       
  40 H40            5.6888    -0.4766    -0.6518 H       
  41 H41            6.7045     1.8545    -0.8829 H       
  42 H42            7.0943     3.7975     0.3960 H       
  43 H43            4.2040     7.0739     2.0265 H       
  44 H44            3.6912     6.6821     0.3658 H       
  45 H45            2.1452     4.6841    -0.0191 H       
  46 H46            1.8025     3.6281     1.3838 H       
  47 H47            3.3773     5.6963     3.9480 H       
  48 H48            2.3489     4.2754     3.6451 H       
  49 H49            4.0674     4.2451     3.1825 H       
  50 H50            1.2960     6.6867     1.0211 H       
  51 H51            0.7407     5.7058     2.3988 H       
  52 H52            1.7650     7.1344     2.6788 H       
  53 H53            5.1622     1.0204     1.9269 H       
  54 H54            8.1152     4.0424     2.5057 H       
  55 H55            8.2617    -0.1649     7.9254 H       
  56 H56            8.6856    -1.6695     7.0740 H       
  57 H57            9.9175    -0.4084     7.3193 H       
  58 H58           10.0057     4.0981     3.3995 H       
  59 H59            8.7826     5.1446     4.1592 H       
  60 H60           10.2631     4.7151     5.0491 H       
@<TRIPOS>BOND
   1    1    2 ar
   2    1    6 ar
   3    1   35 1
   4    2    3 ar
   5    2   36 1
   6    3    4 ar
   7    3   37 1
   8    4    5 ar
   9    4    7 ar
  10    5    6 ar
  11    5   10 ar
  12    6   38 1
  13    7    8 ar
  14    7   39 1
  15    8    9 ar
  16    8   40 1
  17    9   10 ar
  18    9   11 1
  19   10   14 1
  20   11   12 1
  21   11   41 1
  22   12   13 1
  23   12   22 1
  24   12   42 1
  25   13   14 2
  26   13   15 1
  27   14   18 1
  28   15   16 1
  29   15   21 2
  30   16   17 1
  31   16   43 1
  32   16   44 1
  33   17   18 1
  34   17   19 1
  35   17   20 1
  36   18   45 1
  37   18   46 1
  38   19   47 1
  39   19   48 1
  40   19   49 1
  41   20   50 1
  42   20   51 1
  43   20   52 1
  44   22   23 ar
  45   22   27 ar
  46   23   24 ar
  47   23   53 1
  48   24   25 ar
  49   24   28 1
  50   25   26 ar
  51   25   29 1
  52   26   27 ar
  53   26   33 1
  54   27   54 1
  55   29   30 1
  56   30   31 1
  57   30   32 2
  58   31   55 1
  59   31   56 1
  60   31   57 1
  61   33   34 1
  62   34   58 1
  63   34   59 1
  64   34   60 1

#	End of record

