#	Name: ASD01883181
#	Creating user name:	WinNT
#	Creation time:	15. 06. 2019 19:45

#	Modifying user name:	WinNT
#	Modification time:	15. 06. 2019 19:45

#	Program:	/corina/corina34_cracker 3.40 0067  02.08.2006

@<TRIPOS>MOLECULE
ASD01883181
  52   54    0    0    0
SMALL
NO_CHARGES


@<TRIPOS>ATOM
   1 N1             0.5273     0.1218     0.4241 N.am    
   2 C2             0.3295    -1.1608     0.0671 C.2     
   3 C3            -0.9870    -1.6788    -0.0066 C.2     
   4 C4            -2.0648    -0.8288     0.2988 C.2     
   5 C5            -1.7922     0.5038     0.6659 C.2     
   6 C6            -0.5138     0.9404     0.7238 C.2     
   7 O7             1.2822    -1.8758    -0.1929 O.2     
   8 C8            -1.2157    -3.0409    -0.3851 C.1     
   9 N9            -1.3971    -4.1213    -0.6853 N.1     
  10 C10            1.8942     0.6437     0.4965 C.3     
  11 C11            2.2918     1.2227    -0.8627 C.3     
  12 C12            3.7194     1.7678    -0.7871 C.3     
  13 C13            4.1619     2.2330    -2.1758 C.3     
  14 C14            3.7636     2.9488     0.1846 C.3     
  15 C15           -3.4557    -1.3234     0.2356 C.ar    
  16 C16           -4.2255    -1.3997     1.3989 C.ar    
  17 C17           -5.5217    -1.8614     1.3358 C.ar    
  18 C18           -6.0638    -2.2514     0.1171 C.ar    
  19 C19           -5.3012    -2.1775    -1.0423 C.ar    
  20 C20           -4.0064    -1.7106    -0.9885 C.ar    
  21 O21           -7.3417    -2.7063     0.0591 O.3     
  22 C22           -8.1082    -2.6430     1.2635 C.3     
  23 C23           -9.6099    -2.6008     0.9309 C.3     
  24 C24          -10.2404    -3.8499     1.5805 C.3     
  25 C25           -9.2646    -4.2155     2.7265 C.3     
  26 C26           -7.8784    -3.9162     2.1036 C.3     
  27 H27           -2.6038     1.1751     0.9048 H       
  28 H28           -0.3170     1.9641     1.0064 H       
  29 H29            1.9448     1.4262     1.2536 H       
  30 H30            2.5776    -0.1631     0.7617 H       
  31 H31            2.2413     0.4402    -1.6199 H       
  32 H32            1.6084     2.0295    -1.1279 H       
  33 H33            4.3897     0.9832    -0.4360 H       
  34 H34            3.4916     3.0176    -2.5268 H       
  35 H35            5.1790     2.6213    -2.1219 H       
  36 H36            4.1305     1.3917    -2.8680 H       
  37 H37            3.4483     2.6173     1.1739 H       
  38 H38            4.7806     3.3371     0.2385 H       
  39 H39            3.0933     3.7334    -0.1665 H       
  40 H40           -3.8047    -1.0975     2.3465 H       
  41 H41           -6.1174    -1.9206     2.2347 H       
  42 H42           -5.7259    -2.4818    -1.9875 H       
  43 H43           -3.4145    -1.6531    -1.8901 H       
  44 H44           -7.8280    -1.7600     1.8380 H       
  45 H45          -10.0588    -1.6978     1.3447 H       
  46 H46           -9.7541    -2.6286    -0.1492 H       
  47 H47          -11.2271    -3.6153     1.9799 H       
  48 H48          -10.3037    -4.6644     0.8589 H       
  49 H49           -9.4402    -3.5861     3.5989 H       
  50 H50           -9.3518    -5.2705     2.9861 H       
  51 H51           -7.5603    -4.7414     1.4665 H       
  52 H52           -7.1414    -3.7300     2.8847 H       
@<TRIPOS>BOND
   1    1    2 am
   2    1   10 1
   3    1    6 1
   4    2    3 1
   5    2    7 2
   6    3    4 2
   7    3    8 1
   8    4    5 1
   9    4   15 1
  10    5    6 2
  11    5   27 1
  12    6   28 1
  13    8    9 3
  14   10   11 1
  15   10   29 1
  16   10   30 1
  17   11   12 1
  18   11   31 1
  19   11   32 1
  20   12   13 1
  21   12   14 1
  22   12   33 1
  23   13   34 1
  24   13   35 1
  25   13   36 1
  26   14   37 1
  27   14   38 1
  28   14   39 1
  29   15   16 ar
  30   15   20 ar
  31   16   17 ar
  32   16   40 1
  33   17   18 ar
  34   17   41 1
  35   18   19 ar
  36   18   21 1
  37   19   20 ar
  38   19   42 1
  39   20   43 1
  40   21   22 1
  41   22   23 1
  42   22   26 1
  43   22   44 1
  44   23   24 1
  45   23   45 1
  46   23   46 1
  47   24   25 1
  48   24   47 1
  49   24   48 1
  50   25   26 1
  51   25   49 1
  52   25   50 1
  53   26   51 1
  54   26   52 1

#	End of record

