#	Name: ASD01881974
#	Creating user name:	WinNT
#	Creation time:	15. 06. 2019 19:43

#	Modifying user name:	WinNT
#	Modification time:	15. 06. 2019 19:43

#	Program:	/corina/corina34_cracker 3.40 0067  02.08.2006

@<TRIPOS>MOLECULE
ASD01881974
  44   46    0    0    0
SMALL
NO_CHARGES


@<TRIPOS>ATOM
   1 C1            -0.0184     1.5028     0.0103 C.3     
   2 C2             0.0021    -0.0041     0.0020 C.2     
   3 C3            -1.2926    -0.7753     0.0102 C.3     
   4 C4            -0.9927    -2.2755    -0.0007 C.3     
   5 C5            -2.0879    -0.4233     1.2690 C.3     
   6 C6            -2.1118    -0.4099    -1.2293 C.3     
   7 O7             1.3223     1.9974     0.0002 O.3     
   8 N8             2.2403     7.3975     0.0199 N.pl3   
   9 N9             3.6406     7.3162     0.0067 N.2     
  10 N10            3.9976     6.0804    -0.0028 N.2     
  11 C11            2.9135     5.2794     0.0030 C.ar    
  12 C12            1.7741     6.1026     0.0175 C.ar    
  13 C13            2.7519     3.8871    -0.0033 C.ar    
  14 C14            1.4821     3.3478     0.0059 C.ar    
  15 C15            0.3627     4.1764     0.0206 C.ar    
  16 C16            0.5048     5.5355     0.0255 C.ar    
  17 C17            1.4331     8.6199     0.0388 C.3     
  18 C18            1.1389     9.0591    -1.3969 C.3     
  19 C19            0.2061    10.2560    -1.5925 C.3     
  20 C20            1.7062    10.4043    -1.8545 C.3     
  21 Br21           4.2659     2.7543    -0.0235 Br      
  22 N22            1.1187    -0.6287    -0.0120 N.2     
  23 O23            2.3352     0.0959    -0.0197 O.3     
  24 H24           -0.5455     1.8639    -0.8728 H       
  25 H25           -0.5286     1.8543     0.9071 H       
  26 H26           -0.4091    -2.5358     0.8824 H       
  27 H27           -1.9291    -2.8333     0.0053 H       
  28 H28           -0.4261    -2.5263    -0.8975 H       
  29 H29           -2.3016     0.6455     1.2768 H       
  30 H30           -3.0243    -0.9811     1.2750 H       
  31 H31           -1.5043    -0.6836     2.1521 H       
  32 H32           -1.5452    -0.6606    -2.1261 H       
  33 H33           -3.0482    -0.9677    -1.2233 H       
  34 H34           -2.3254     0.6589    -1.2215 H       
  35 H35           -0.6257     3.7412     0.0273 H       
  36 H36           -0.3695     6.1695     0.0367 H       
  37 H37            0.4950     8.4278     0.5595 H       
  38 H38            1.9803     9.4086     0.5551 H       
  39 H39            1.0892     8.2568    -2.1331 H       
  40 H40           -0.4569    10.2414    -2.4575 H       
  41 H41           -0.1979    10.7306    -0.6982 H       
  42 H42            2.2891    10.9764    -1.1327 H       
  43 H43            2.0301    10.4872    -2.8920 H       
  44 H44            3.1252    -0.4617    -0.0303 H       
@<TRIPOS>BOND
   1    1    2 1
   2    1    7 1
   3    1   24 1
   4    1   25 1
   5    2    3 1
   6    2   22 2
   7    3    4 1
   8    3    5 1
   9    3    6 1
  10    4   26 1
  11    4   27 1
  12    4   28 1
  13    5   29 1
  14    5   30 1
  15    5   31 1
  16    6   32 1
  17    6   33 1
  18    6   34 1
  19    7   14 1
  20    8    9 1
  21    8   12 1
  22    8   17 1
  23    9   10 2
  24   10   11 1
  25   11   12 ar
  26   11   13 ar
  27   12   16 ar
  28   13   14 ar
  29   13   21 1
  30   14   15 ar
  31   15   16 ar
  32   15   35 1
  33   16   36 1
  34   17   18 1
  35   17   37 1
  36   17   38 1
  37   18   19 1
  38   18   20 1
  39   18   39 1
  40   19   20 1
  41   19   40 1
  42   19   41 1
  43   20   42 1
  44   20   43 1
  45   22   23 1
  46   23   44 1

#	End of record

