#	Name: ASD01900935
#	Creating user name:	WinNT
#	Creation time:	15. 06. 2019 19:52

#	Modifying user name:	WinNT
#	Modification time:	15. 06. 2019 19:52

#	Program:	/corina/corina34_cracker 3.40 0067  02.08.2006

@<TRIPOS>MOLECULE
ASD01900935
  44   47    0    0    0
SMALL
NO_CHARGES


@<TRIPOS>ATOM
   1 C1            -0.0168     1.3892     0.0097 C.ar    
   2 C2             0.0021    -0.0041     0.0020 C.ar    
   3 C3             1.2224    -0.6605    -0.0132 C.ar    
   4 C4             2.3820     0.0992    -0.0202 C.ar    
   5 C5             2.2885     1.4816    -0.0119 C.ar    
   6 N6             1.1170     2.0793     0.0026 N.ar    
   7 C7            -1.3129     2.1060     0.0197 C.2     
   8 O8            -2.3540     1.4792     0.0212 O.2     
   9 N9            -1.3376     3.4535     0.0271 N.am    
  10 S10           -4.0881     3.3733     0.0403 S.3     
  11 C11           -2.5528     4.1257     0.0365 C.2     
  12 N12           -2.6883     5.4151     0.0445 N.2     
  13 C13           -3.9211     5.8862     0.0536 C.2     
  14 C14           -4.8727     4.9506     0.0533 C.2     
  15 C15           -4.2291     7.3614     0.0639 C.3     
  16 C16           -3.7029     8.1847     1.2412 C.3     
  17 C17           -3.0613     8.3284    -0.1403 C.3     
  18 S18           -6.6104     5.2420     0.0640 S.o2    
  19 O19           -7.1574     4.0768     0.6660 O.2     
  20 O20           -6.7483     6.5167     0.6766 O.2     
  21 C21           -7.0661     5.3259    -1.6899 C.3     
  22 C22           -8.5473     5.5748    -1.8127 C.ar    
  23 C23           -9.0296     6.8720    -1.8640 C.ar    
  24 C24          -10.3902     7.0998    -1.9772 C.ar    
  25 C25          -11.2667     6.0313    -2.0390 C.ar    
  26 C26          -10.7832     4.7362    -1.9876 C.ar    
  27 C27           -9.4239     4.5087    -1.8798 C.ar    
  28 F28           -8.1726     7.9146    -1.8031 F       
  29 Cl29         -12.9734     6.3158    -2.1805 Cl      
  30 H30           -0.9212    -0.5644     0.0082 H       
  31 H31            1.2690    -1.7395    -0.0191 H       
  32 H32            3.3489    -0.3818    -0.0317 H       
  33 H33            3.1899     2.0764    -0.0174 H       
  34 H34           -0.5066     3.9539     0.0259 H       
  35 H35           -5.1952     7.6428    -0.3551 H       
  36 H36           -4.3225     9.0081     1.5965 H       
  37 H37           -3.1338     7.6594     2.0083 H       
  38 H38           -2.0701     7.8977    -0.2821 H       
  39 H39           -3.2588     9.2463    -0.6939 H       
  40 H40           -6.5202     6.1389    -2.1686 H       
  41 H41           -6.8145     4.3834    -2.1761 H       
  42 H42          -10.7673     8.1110    -2.0170 H       
  43 H43          -11.4678     3.9022    -2.0359 H       
  44 H44           -9.0471     3.4972    -1.8439 H       
@<TRIPOS>BOND
   1    1    2 ar
   2    1    6 ar
   3    1    7 1
   4    2    3 ar
   5    2   30 1
   6    3    4 ar
   7    3   31 1
   8    4    5 ar
   9    4   32 1
  10    5    6 ar
  11    5   33 1
  12    7    8 2
  13    7    9 am
  14    9   11 1
  15    9   34 1
  16   10   11 1
  17   10   14 1
  18   11   12 2
  19   12   13 1
  20   13   14 2
  21   13   15 1
  22   14   18 1
  23   15   16 1
  24   15   17 1
  25   15   35 1
  26   16   17 1
  27   16   36 1
  28   16   37 1
  29   17   38 1
  30   17   39 1
  31   18   19 2
  32   18   20 2
  33   18   21 1
  34   21   22 1
  35   21   40 1
  36   21   41 1
  37   22   23 ar
  38   22   27 ar
  39   23   24 ar
  40   23   28 1
  41   24   25 ar
  42   24   42 1
  43   25   26 ar
  44   25   29 1
  45   26   27 ar
  46   26   43 1
  47   27   44 1

#	End of record

