#	Name: ASD01140143
#	Creating user name:	WinNT
#	Creation time:	15. 06. 2019 19:00

#	Modifying user name:	WinNT
#	Modification time:	15. 06. 2019 19:00

#	Program:	/corina/corina34_cracker 3.40 0067  02.08.2006

@<TRIPOS>MOLECULE
ASD01140143
  48   51    0    0    0
SMALL
NO_CHARGES


@<TRIPOS>ATOM
   1 C1            -0.0164     1.3561     0.0095 C.2     
   2 C2             0.0021    -0.0041     0.0020 C.2     
   3 C3             1.2281    -0.6936    -0.0134 C.2     
   4 N4             2.3658    -0.0416    -0.0203 N.2     
   5 N5             2.3825     1.3543    -0.0130 N.pl3   
   6 C6             1.2032     2.0577     0.0016 C.2     
   7 C7             3.3759     2.2882    -0.0167 C.2     
   8 N8             2.7988     3.4756    -0.0047 N.2     
   9 N9             1.5185     3.3446     0.0061 N.2     
  10 C10            4.8291     2.0209    -0.0313 C.ar    
  11 C11            5.7366     3.0809    -0.0334 C.ar    
  12 C12            7.0944     2.8239    -0.0472 C.ar    
  13 C13            7.5551     1.5174    -0.0592 C.ar    
  14 C14            6.6608     0.4620    -0.0576 C.ar    
  15 C15            5.3010     0.7049    -0.0372 C.ar    
  16 F16            4.4289    -0.3270    -0.0357 F       
  17 F17            7.9744     3.8490    -0.0493 F       
  18 C18           -1.2935    -0.7738     0.0108 C.3     
  19 C19           -2.4686     0.2059     0.0277 C.3     
  20 C20           -1.3761    -1.6476    -1.2424 C.3     
  21 C21           -1.3512    -1.6610     1.2559 C.3     
  22 O22            1.2336    -2.0507    -0.0207 O.3     
  23 C23            2.5094    -2.6942    -0.0364 C.3     
  24 C24            2.3179    -4.1890    -0.0426 C.2     
  25 N25            2.2106    -4.9454    -1.1046 N.2     
  26 C26            2.0514    -6.2170    -0.7397 C.2     
  27 N27            2.0552    -6.2876     0.5655 N.2     
  28 N28            2.2334    -4.9785     1.0422 N.pl3   
  29 C29            2.3034    -4.5562     2.4432 C.3     
  30 H30           -0.9549     1.8905     0.0169 H       
  31 H31            5.3787     4.0999    -0.0248 H       
  32 H32            8.6173     1.3220    -0.0703 H       
  33 H33            7.0265    -0.5542    -0.0678 H       
  34 H34           -2.4275     0.8380    -0.8594 H       
  35 H35           -3.4057    -0.3508     0.0340 H       
  36 H36           -2.4098     0.8284     0.9205 H       
  37 H37           -0.5389    -2.3455    -1.2545 H       
  38 H38           -2.3131    -2.2043    -1.2361 H       
  39 H39           -1.3349    -1.0155    -2.1295 H       
  40 H40           -1.2924    -1.0385     2.1487 H       
  41 H41           -2.2883    -2.2177     1.2622 H       
  42 H42           -0.5141    -2.3589     1.2438 H       
  43 H43            3.0567    -2.3943    -0.9300 H       
  44 H44            3.0737    -2.4039     0.8498 H       
  45 H45            1.9371    -7.0536    -1.4131 H       
  46 H46            3.3394    -4.5868     2.7806 H       
  47 H47            1.9210    -3.5396     2.5358 H       
  48 H48            1.7018    -5.2278     3.0557 H       
@<TRIPOS>BOND
   1    1    2 2
   2    1    6 1
   3    1   30 1
   4    2    3 1
   5    2   18 1
   6    3    4 2
   7    3   22 1
   8    4    5 1
   9    5    6 1
  10    5    7 1
  11    6    9 2
  12    7    8 2
  13    7   10 1
  14    8    9 1
  15   10   11 ar
  16   10   15 ar
  17   11   12 ar
  18   11   31 1
  19   12   13 ar
  20   12   17 1
  21   13   14 ar
  22   13   32 1
  23   14   15 ar
  24   14   33 1
  25   15   16 1
  26   18   19 1
  27   18   20 1
  28   18   21 1
  29   19   34 1
  30   19   35 1
  31   19   36 1
  32   20   37 1
  33   20   38 1
  34   20   39 1
  35   21   40 1
  36   21   41 1
  37   21   42 1
  38   22   23 1
  39   23   24 1
  40   23   43 1
  41   23   44 1
  42   24   25 2
  43   24   28 1
  44   25   26 1
  45   26   27 2
  46   26   45 1
  47   27   28 1
  48   28   29 1
  49   29   46 1
  50   29   47 1
  51   29   48 1

#	End of record

