#	Name: ASD05860006
#	Creating user name:	WinNT
#	Creation time:	15. 06. 2019 21:04

#	Modifying user name:	WinNT
#	Modification time:	15. 06. 2019 21:04

#	Program:	/corina/corina34_cracker 3.40 0067  02.08.2006

@<TRIPOS>MOLECULE
ASD05860006
 191  190    0    0    0
SMALL
NO_CHARGES


@<TRIPOS>ATOM
   1 N1             1.5086     1.3426     0.7874 N.3     
   2 C2             1.1322    -0.0347     1.1327 C.3     
   3 C3             2.2596    -0.6889     1.8891 C.2     
   4 O4             3.2765    -0.0689     2.1180 O.2     
   5 C5            -0.1244    -0.0165     2.0053 C.3     
   6 N6             2.1378    -1.9631     2.3112 N.am    
   7 C7             3.2338    -2.5991     3.0465 C.3     
   8 C8             2.8476    -4.0120     3.4007 C.2     
   9 O9             1.7637    -4.4452     3.0714 O.2     
  10 N10            3.7068    -4.7944     4.0835 N.am    
  11 C11            3.3315    -6.1680     4.4279 C.3     
  12 C12            4.5759    -6.9989     4.6069 C.2     
  13 O13            5.6687    -6.4935     4.4612 O.2     
  14 C14            2.5279    -6.1659     5.7299 C.3     
  15 C15            1.2057    -5.4275     5.5120 C.3     
  16 C16            0.3486    -6.2017     4.5086 C.3     
  17 C17            0.4584    -5.3165     6.8424 C.3     
  18 N18            4.4744    -8.3037     4.9289 N.am    
  19 C19            5.6841    -9.1115     5.1029 C.3     
  20 C20            5.3846   -10.2750     6.0127 C.2     
  21 O21            4.2704   -10.4156     6.4705 O.2     
  22 C22            6.1483    -9.6344     3.7421 C.3     
  23 N23            6.3550   -11.1593     6.3174 N.am    
  24 C24            6.0639   -12.2904     7.2018 C.3     
  25 C25            7.0288   -13.4123     6.9166 C.2     
  26 O26            7.8762   -13.2801     6.0591 O.2     
  27 C27            6.2111   -11.8492     8.6593 C.3     
  28 C28            5.1481   -10.7977     8.9838 C.3     
  29 C29            5.2932   -10.3632    10.4195 C.2     
  30 N30            5.4378    -9.1096    10.7044 N.2     
  31 C31            5.5693    -8.7155    12.0063 C.2     
  32 N32            5.7234    -7.3798    12.3099 N.pl3   
  33 N33            5.5490    -9.6033    12.9616 N.2     
  34 N34            6.9500   -14.5626     7.6145 N.am    
  35 C35            7.8880   -15.6533     7.3373 C.3     
  36 C36            8.0260   -16.5206     8.5619 C.2     
  37 O37            7.1893   -16.4699     9.4384 O.2     
  38 C38            7.3618   -16.4949     6.1729 C.3     
  39 C39            5.9387   -16.9626     6.4839 C.3     
  40 C40            7.3539   -15.6513     4.8965 C.3     
  41 N41            9.0793   -17.3528     8.6831 N.am    
  42 C42            9.2730   -18.1137     9.9199 C.3     
  43 C43           10.0741   -19.3557     9.6253 C.2     
  44 O44           10.4465   -19.5828     8.4936 O.2     
  45 C45           10.0240   -17.2517    10.9367 C.3     
  46 N46           10.3768   -20.2140    10.6193 N.am    
  47 C47           11.1555   -21.4213    10.3329 C.3     
  48 C48           11.8690   -21.8673    11.5832 C.2     
  49 O49           11.7397   -21.2385    12.6122 O.2     
  50 C50           10.2174   -22.5324     9.8573 C.3     
  51 N51           12.6508   -22.9648    11.5579 N.am    
  52 C52           13.2559   -23.4618    12.7960 C.3     
  53 C53           13.5124   -24.9416    12.6710 C.2     
  54 O54           13.2568   -25.5159    11.6338 O.2     
  55 C55           14.5786   -22.7342    13.0451 C.3     
  56 C56           15.4754   -22.8702    11.8130 C.3     
  57 C57           16.7055   -21.9753    11.9762 C.3     
  58 C58           15.9203   -24.3265    11.6643 C.3     
  59 N59           14.0259   -25.6268    13.7118 N.am    
  60 C60           14.2753   -27.0653    13.5903 C.3     
  61 C61           15.3557   -27.4714    14.5592 C.2     
  62 O62           15.8671   -26.6410    15.2802 O.2     
  63 C63           12.9909   -27.8341    13.9071 C.3     
  64 N64           15.7537   -28.7574    14.6245 N.am    
  65 C65           16.8041   -29.1522    15.5663 C.3     
  66 C66           16.6540   -30.6136    15.9025 C.2     
  67 O67           15.7579   -31.2615    15.4043 O.2     
  68 C68           18.1751   -28.9133    14.9308 C.3     
  69 C69           18.3777   -27.4138    14.7038 C.3     
  70 C70           19.7488   -27.1749    14.0683 C.3     
  71 N71           19.9428   -25.7392    13.8510 N.pl3   
  72 C72           21.1098   -25.2808    13.2868 C.2     
  73 N73           21.2919   -23.9334    13.0829 N.pl3   
  74 N74           22.0436   -26.1236    12.9454 N.2     
  75 N75           17.5156   -31.2005    16.7567 N.am    
  76 C76           17.3697   -32.6211    17.0834 C.3     
  77 C77           18.7030   -33.1775    17.5121 C.2     
  78 O78           19.6790   -32.4582    17.5418 O.2     
  79 C79           16.3602   -32.7815    18.2219 C.3     
  80 O80           16.8775   -32.1723    19.4065 O.3     
  81 N81           18.8108   -34.4744    17.8626 N.am    
  82 C82           20.1070   -35.0153    18.2794 C.3     
  83 C83           20.3127   -34.7507    19.7486 C.2     
  84 O84           19.4642   -34.1703    20.3822 O.2     
  85 C85           20.1363   -36.5235    18.0237 C.3     
  86 C86           20.0525   -36.7874    16.5190 C.3     
  87 C87           20.0818   -38.2956    16.2633 C.3     
  88 N88           20.0016   -38.5483    14.8225 N.pl3   
  89 C89           20.0112   -39.8392    14.3494 C.2     
  90 N90           19.9359   -40.0764    12.9973 N.pl3   
  91 N91           20.0917   -40.8381    15.1828 N.2     
  92 H92            2.3718     1.3615     0.2653 H       
  93 H93            0.7685     1.8031     0.2792 H       
  94 H94            0.9328    -0.5965     0.2202 H       
  95 H95           -0.9398     0.4567     1.4583 H       
  96 H96           -0.4037    -1.0385     2.2616 H       
  97 H97            0.0751     0.5453     2.9179 H       
  98 H98            1.3245    -2.4590     2.1281 H       
  99 H99            4.1290    -2.6121     2.4248 H       
 100 H100           3.4332    -2.0373     3.9590 H       
 101 H101           4.5738    -4.4480     4.3469 H       
 102 H102           2.7246    -6.5904     3.6270 H       
 103 H103           2.3248    -7.1930     6.0331 H       
 104 H104           3.1006    -5.6634     6.5094 H       
 105 H105           1.4069    -4.4290     5.1238 H       
 106 H106          -0.5934    -5.6756     4.3534 H       
 107 H107           0.8810    -6.2808     3.5608 H       
 108 H108           0.1475    -7.2002     4.8968 H       
 109 H109           1.0690    -4.7649     7.5573 H       
 110 H110          -0.4836    -4.7904     6.6872 H       
 111 H111           0.2572    -6.3150     7.2306 H       
 112 H112           3.6004    -8.7079     5.0455 H       
 113 H113           6.4701    -8.4984     5.5439 H       
 114 H114           6.3649    -8.7928     3.0841 H       
 115 H115           7.0484   -10.2354     3.8716 H       
 116 H116           5.3624   -10.2475     3.3011 H       
 117 H117           7.2462   -11.0468     5.9512 H       
 118 H118           5.0445   -12.6348     7.0276 H       
 119 H119           6.0819   -12.7107     9.3145 H       
 120 H120           7.2026   -11.4226     8.8114 H       
 121 H121           5.2774    -9.9362     8.3286 H       
 122 H122           4.1567   -11.2244     8.8317 H       
 123 H123           5.2763   -11.0983    11.2105 H       
 124 H124           5.7385    -6.7196    11.5995 H       
 125 H125           5.8168    -7.1001    13.2340 H       
 126 H126           5.6424    -9.3236    13.8857 H       
 127 H127           6.2723   -14.6684     8.3003 H       
 128 H128           8.8609   -15.2379     7.0747 H       
 129 H129           8.0065   -17.3623     6.0311 H       
 130 H130           5.2940   -16.0952     6.6257 H       
 131 H131           5.5638   -17.5621     5.6544 H       
 132 H132           5.9443   -17.5636     7.3932 H       
 133 H133           8.3422   -15.2186     4.7409 H       
 134 H134           7.0953   -16.2818     4.0458 H       
 135 H135           6.6187   -14.8524     4.9935 H       
 136 H136           9.7090   -17.4478     7.9515 H       
 137 H137           8.3028   -18.3957    10.3288 H       
 138 H138          10.9943   -16.9697    10.5278 H       
 139 H139           9.4446   -16.3534    11.1498 H       
 140 H140          10.1682   -17.8179    11.8569 H       
 141 H141          10.0789   -20.0323    11.5244 H       
 142 H142          11.8872   -21.2055     9.5544 H       
 143 H143           9.7013   -22.2099     8.9530 H       
 144 H144          10.7968   -23.4307     9.6442 H       
 145 H145           9.4857   -22.7482    10.6358 H       
 146 H146          12.8127   -23.4257    10.7198 H       
 147 H147          12.5784   -23.2797    13.6302 H       
 148 H148          14.3824   -21.6793    13.2370 H       
 149 H149          15.0781   -23.1738    13.9084 H       
 150 H150          14.9209   -22.5673    10.9248 H       
 151 H151          17.2600   -22.2782    12.8644 H       
 152 H152          17.3444   -22.0722    11.0984 H       
 153 H153          16.3885   -20.9378    12.0821 H       
 154 H154          15.0966   -24.9193    11.2665 H       
 155 H155          16.7687   -24.3794    10.9820 H       
 156 H156          16.2126   -24.7184    12.6385 H       
 157 H157          14.2304   -25.1675    14.5414 H       
 158 H158          14.5943   -27.2941    12.5735 H       
 159 H159          12.6719   -27.6052    14.9239 H       
 160 H160          12.2094   -27.5403    13.2063 H       
 161 H161          13.1764   -28.9043    13.8167 H       
 162 H162          15.3447   -29.4216    14.0478 H       
 163 H163          16.7173   -28.5592    16.4768 H       
 164 H164          18.9538   -29.2887    15.5948 H       
 165 H165          18.2289   -29.4359    13.9757 H       
 166 H166          17.5991   -27.0384    14.0399 H       
 167 H167          18.3239   -26.8913    15.6589 H       
 168 H168          20.5275   -27.5504    14.7322 H       
 169 H169          19.8026   -27.6975    13.1132 H       
 170 H170          19.2479   -25.1119    14.1051 H       
 171 H171          20.5970   -23.3062    13.3370 H       
 172 H172          22.1152   -23.6100    12.6849 H       
 173 H173          22.8669   -25.8002    12.5474 H       
 174 H174          18.2322   -30.6823    17.1551 H       
 175 H175          17.0159   -33.1615    16.2054 H       
 176 H176          15.4219   -32.3004    17.9460 H       
 177 H177          16.1848   -33.8416    18.4054 H       
 178 H178          16.2886   -32.2360    20.1709 H       
 179 H179          18.0302   -35.0497    17.8388 H       
 180 H180          20.9016   -34.5345    17.7089 H       
 181 H181          21.2189   -35.0802    20.2349 H       
 182 H182          21.0645   -36.9403    18.4146 H       
 183 H183          19.2886   -36.9931    18.5227 H       
 184 H184          19.1243   -36.3706    16.1281 H       
 185 H185          20.9001   -36.3178    16.0200 H       
 186 H186          21.0100   -38.7124    16.6542 H       
 187 H187          19.2342   -38.7653    16.7623 H       
 188 H188          19.9417   -37.8049    14.2023 H       
 189 H189          19.8760   -39.3330    12.3771 H       
 190 H190          19.9427   -40.9871    12.6635 H       
 191 H191          20.0985   -41.7489    14.8490 H       
@<TRIPOS>BOND
   1    1    2 1
   2    1   92 1
   3    1   93 1
   4    2    5 1
   5    2    3 1
   6    2   94 1
   7    3    6 am
   8    3    4 2
   9    5   95 1
  10    5   96 1
  11    5   97 1
  12    6    7 1
  13    6   98 1
  14    7    8 1
  15    7   99 1
  16    7  100 1
  17    8    9 2
  18    8   10 am
  19   10   11 1
  20   10  101 1
  21   11   12 1
  22   11   14 1
  23   11  102 1
  24   12   13 2
  25   12   18 am
  26   14   15 1
  27   14  103 1
  28   14  104 1
  29   15   16 1
  30   15   17 1
  31   15  105 1
  32   16  106 1
  33   16  107 1
  34   16  108 1
  35   17  109 1
  36   17  110 1
  37   17  111 1
  38   18   19 1
  39   18  112 1
  40   19   20 1
  41   19   22 1
  42   19  113 1
  43   20   23 am
  44   20   21 2
  45   22  114 1
  46   22  115 1
  47   22  116 1
  48   23   24 1
  49   23  117 1
  50   24   25 1
  51   24   27 1
  52   24  118 1
  53   25   34 am
  54   25   26 2
  55   27   28 1
  56   27  119 1
  57   27  120 1
  58   28   29 1
  59   28  121 1
  60   28  122 1
  61   29   30 2
  62   29  123 1
  63   30   31 1
  64   31   32 1
  65   31   33 2
  66   32  124 1
  67   32  125 1
  68   33  126 1
  69   34   35 1
  70   34  127 1
  71   35   38 1
  72   35   36 1
  73   35  128 1
  74   36   37 2
  75   36   41 am
  76   38   39 1
  77   38   40 1
  78   38  129 1
  79   39  130 1
  80   39  131 1
  81   39  132 1
  82   40  133 1
  83   40  134 1
  84   40  135 1
  85   41   42 1
  86   41  136 1
  87   42   43 1
  88   42   45 1
  89   42  137 1
  90   43   46 am
  91   43   44 2
  92   45  138 1
  93   45  139 1
  94   45  140 1
  95   46   47 1
  96   46  141 1
  97   47   50 1
  98   47   48 1
  99   47  142 1
 100   48   51 am
 101   48   49 2
 102   50  143 1
 103   50  144 1
 104   50  145 1
 105   51   52 1
 106   51  146 1
 107   52   55 1
 108   52   53 1
 109   52  147 1
 110   53   54 2
 111   53   59 am
 112   55   56 1
 113   55  148 1
 114   55  149 1
 115   56   58 1
 116   56   57 1
 117   56  150 1
 118   57  151 1
 119   57  152 1
 120   57  153 1
 121   58  154 1
 122   58  155 1
 123   58  156 1
 124   59   60 1
 125   59  157 1
 126   60   61 1
 127   60   63 1
 128   60  158 1
 129   61   62 2
 130   61   64 am
 131   63  159 1
 132   63  160 1
 133   63  161 1
 134   64   65 1
 135   64  162 1
 136   65   66 1
 137   65   68 1
 138   65  163 1
 139   66   75 am
 140   66   67 2
 141   68   69 1
 142   68  164 1
 143   68  165 1
 144   69   70 1
 145   69  166 1
 146   69  167 1
 147   70   71 1
 148   70  168 1
 149   70  169 1
 150   71   72 1
 151   71  170 1
 152   72   73 1
 153   72   74 2
 154   73  171 1
 155   73  172 1
 156   74  173 1
 157   75   76 1
 158   75  174 1
 159   76   79 1
 160   76   77 1
 161   76  175 1
 162   77   81 am
 163   77   78 2
 164   79   80 1
 165   79  176 1
 166   79  177 1
 167   80  178 1
 168   81   82 1
 169   81  179 1
 170   82   85 1
 171   82   83 1
 172   82  180 1
 173   83   84 2
 174   83  181 1
 175   85   86 1
 176   85  182 1
 177   85  183 1
 178   86   87 1
 179   86  184 1
 180   86  185 1
 181   87   88 1
 182   87  186 1
 183   87  187 1
 184   88   89 1
 185   88  188 1
 186   89   90 1
 187   89   91 2
 188   90  189 1
 189   90  190 1
 190   91  191 1

#	End of record

