#	Name: ASD01208522
#	Creating user name:	WinNT
#	Creation time:	15. 06. 2019 19:09

#	Modifying user name:	WinNT
#	Modification time:	15. 06. 2019 19:09

#	Program:	/corina/corina34_cracker 3.40 0067  02.08.2006

@<TRIPOS>MOLECULE
ASD01208522
  63   66    0    0    0
SMALL
NO_CHARGES


@<TRIPOS>ATOM
   1 N1             0.0287     1.3406    -0.2470 N.pl3   
   2 C2             0.0766    -0.0335    -0.3289 C.2     
   3 C3             1.4049    -0.4129    -0.3521 C.2     
   4 C4             2.1718     0.7480    -0.2834 C.2     
   5 C5             1.3057     1.8186    -0.2192 C.2     
   6 C6            -1.0768    -0.9335    -0.3815 C.2     
   7 O7            -0.9072    -2.1359    -0.4532 O.2     
   8 O8            -2.3278    -0.4293    -0.3504 O.3     
   9 C9             1.6948     3.2421    -0.1350 C.ar    
  10 C10            0.7141     4.2332    -0.0760 C.ar    
  11 C11            1.0831     5.5659     0.0033 C.ar    
  12 C12            2.4261     5.9160     0.0240 C.ar    
  13 C13            3.4039     4.9338    -0.0350 C.ar    
  14 C14            3.0435     3.5983    -0.1086 C.ar    
  15 O15            4.7174     5.2820    -0.0148 O.3     
  16 C16            5.6697     4.2184     0.0474 C.3     
  17 C17            6.9696     4.7333     0.6686 C.3     
  18 C18            5.9494     3.7010    -1.3651 C.3     
  19 O19            7.5533     5.7134    -0.1921 O.3     
  20 C20            8.7786     6.2615     0.2980 C.3     
  21 O21            0.1292     6.5318     0.0604 O.3     
  22 C22           -0.6457     6.5970     1.1724 C.ar    
  23 C23           -1.7209     7.4816     1.2186 C.ar    
  24 C24           -2.5101     7.5505     2.3454 C.ar    
  25 C25           -2.2292     6.7291     3.4449 C.ar    
  26 C26           -1.1473     5.8422     3.3921 C.ar    
  27 C27           -0.3675     5.7769     2.2596 C.ar    
  28 C28           -3.0668     6.7984     4.6491 C.2     
  29 O29           -2.8219     6.0863     5.6000 O.2     
  30 F30           -1.9896     8.2732     0.1572 F       
  31 C31           -3.4061    -1.3654    -0.4052 C.3     
  32 C32           -4.7175    -0.6243    -0.3600 C.ar    
  33 C33           -5.3200    -0.2132    -1.5342 C.ar    
  34 C34           -6.5229     0.4666    -1.4927 C.ar    
  35 C35           -7.1236     0.7350    -0.2770 C.ar    
  36 C36           -6.5215     0.3231     0.8973 C.ar    
  37 C37           -5.3208    -0.3605     0.8555 C.ar    
  38 H38           -0.7780     1.8784    -0.2182 H       
  39 H39            1.7798    -1.4240    -0.4122 H       
  40 H40            3.2505     0.7999    -0.2803 H       
  41 H41           -0.3310     3.9615    -0.0924 H       
  42 H42            2.7105     6.9560     0.0859 H       
  43 H43            3.8055     2.8341    -0.1500 H       
  44 H44            5.2707     3.4088     0.6585 H       
  45 H45            6.7559     5.1825     1.6384 H       
  46 H46            7.6643     3.9033     0.7978 H       
  47 H47            6.6757     2.8896    -1.3176 H       
  48 H48            5.0233     3.3341    -1.8076 H       
  49 H49            6.3483     4.5106    -1.9762 H       
  50 H50            9.5108     5.4632     0.4196 H       
  51 H51            9.1573     6.9969    -0.4118 H       
  52 H52            8.6024     6.7424     1.2602 H       
  53 H53           -3.3435     8.2365     2.3814 H       
  54 H54           -0.9269     5.2074     4.2376 H       
  55 H55            0.4645     5.0896     2.2172 H       
  56 H56           -3.9009     7.4834     4.6881 H       
  57 H57           -3.3439    -1.9375    -1.3309 H       
  58 H58           -3.3423    -2.0433     0.4459 H       
  59 H59           -4.8507    -0.4229    -2.4841 H       
  60 H60           -6.9933     0.7884    -2.4101 H       
  61 H61           -8.0630     1.2668    -0.2445 H       
  62 H62           -6.9906     0.5331     1.8471 H       
  63 H63           -4.8522    -0.6855     1.7727 H       
@<TRIPOS>BOND
   1    1    2 1
   2    1    5 1
   3    1   38 1
   4    2    3 2
   5    2    6 1
   6    3    4 1
   7    3   39 1
   8    4    5 2
   9    4   40 1
  10    5    9 1
  11    6    7 2
  12    6    8 1
  13    8   31 1
  14    9   10 ar
  15    9   14 ar
  16   10   11 ar
  17   10   41 1
  18   11   12 ar
  19   11   21 1
  20   12   13 ar
  21   12   42 1
  22   13   14 ar
  23   13   15 1
  24   14   43 1
  25   15   16 1
  26   16   17 1
  27   16   18 1
  28   16   44 1
  29   17   19 1
  30   17   45 1
  31   17   46 1
  32   18   47 1
  33   18   48 1
  34   18   49 1
  35   19   20 1
  36   20   50 1
  37   20   51 1
  38   20   52 1
  39   21   22 1
  40   22   23 ar
  41   22   27 ar
  42   23   24 ar
  43   23   30 1
  44   24   25 ar
  45   24   53 1
  46   25   26 ar
  47   25   28 1
  48   26   27 ar
  49   26   54 1
  50   27   55 1
  51   28   29 2
  52   28   56 1
  53   31   32 1
  54   31   57 1
  55   31   58 1
  56   32   33 ar
  57   32   37 ar
  58   33   34 ar
  59   33   59 1
  60   34   35 ar
  61   34   60 1
  62   35   36 ar
  63   35   61 1
  64   36   37 ar
  65   36   62 1
  66   37   63 1

#	End of record

