#	Name: ASD03092495
#	Creating user name:	WinNT
#	Creation time:	15. 06. 2019 20:32

#	Modifying user name:	WinNT
#	Modification time:	15. 06. 2019 20:32

#	Program:	/corina/corina34_cracker 3.40 0067  02.08.2006

@<TRIPOS>MOLECULE
ASD03092495
  55   57    0    0    0
SMALL
NO_CHARGES


@<TRIPOS>ATOM
   1 C1             0.3376     2.0152     0.1452 C.2     
   2 C2             0.5539     0.5259     0.2257 C.3     
   3 C3            -0.1034    -0.1507    -0.9790 C.3     
   4 O4             1.2899     2.7641     0.0905 O.2     
   5 N5            -0.9142     2.5144     0.1285 N.am    
   6 C6             2.0545     0.2276     0.2222 C.3     
   7 C7            -1.1244     3.9621     0.0503 C.3     
   8 S8            -4.9835     4.7563    -0.6387 S.3     
   9 C9            -4.5799     4.6083     1.0157 C.2     
  10 N10           -3.3134     4.3515     1.1494 N.2     
  11 C11           -2.6026     4.2556     0.0469 C.2     
  12 C12           -3.3091     4.4424    -1.0876 C.2     
  13 C13           -2.5488     5.3134    -4.6608 C.ar    
  14 C14           -3.0707     5.4005    -3.3882 C.ar    
  15 C15           -2.7735     4.3920    -2.4620 C.ar    
  16 C16           -1.9531     3.3344    -2.8773 C.ar    
  17 C17           -1.4749     3.3279    -4.1694 C.ar    
  18 N18           -1.7797     4.2991    -5.0104 N.ar    
  19 C19           -2.8654     6.3879    -5.6690 C.3     
  20 F20           -1.9012     7.3986    -5.5917 F       
  21 F21           -2.8612     5.8366    -6.9548 F       
  22 F22           -4.1277     6.9258    -5.3963 F       
  23 N23           -5.4737     4.7432     2.0624 N.3     
  24 C24           -6.8269     5.0320     1.5658 C.3     
  25 C25           -7.7694     5.2322     2.7555 C.3     
  26 O26           -7.7345     4.0686     3.5861 O.3     
  27 C27           -6.4316     3.7583     4.0879 C.3     
  28 C28           -5.4756     3.5431     2.9116 C.3     
  29 C29           -6.4992     2.4835     4.9312 C.3     
  30 C30           -9.1951     5.4537     2.2462 C.3     
  31 H31            0.1095     0.1434     1.1445 H       
  32 H32            0.0530    -1.2278    -0.9208 H       
  33 H33           -1.1725     0.0619    -0.9765 H       
  34 H34            0.3410     0.2319    -1.8978 H       
  35 H35           -1.6759     1.9151     0.1682 H       
  36 H36            2.5227     0.7096     1.0804 H       
  37 H37            2.2109    -0.8496     0.2804 H       
  38 H38            2.4989     0.6101    -0.6966 H       
  39 H39           -0.6604     4.4437     0.9110 H       
  40 H40           -0.6758     4.3454    -0.8662 H       
  41 H41           -3.6989     6.2335    -3.1091 H       
  42 H42           -1.6993     2.5368    -2.1947 H       
  43 H43           -0.8416     2.5174    -4.4989 H       
  44 H44           -6.8068     5.9384     0.9607 H       
  45 H45           -7.1781     4.1968     0.9597 H       
  46 H46           -7.4490     6.1004     3.3315 H       
  47 H47           -6.0723     4.5836     4.7026 H       
  48 H48           -5.8052     2.6841     2.3271 H       
  49 H49           -4.4690     3.3627     3.2890 H       
  50 H50           -6.8567     1.6586     4.3149 H       
  51 H51           -5.5060     2.2476     5.3133 H       
  52 H52           -7.1829     2.6361     5.7662 H       
  53 H53           -9.5150     4.5842     1.6720 H       
  54 H54           -9.8656     5.5963     3.0937 H       
  55 H55           -9.2203     6.3385     1.6101 H       
@<TRIPOS>BOND
   1    1    2 1
   2    1    4 2
   3    1    5 am
   4    2    3 1
   5    2    6 1
   6    2   31 1
   7    3   32 1
   8    3   33 1
   9    3   34 1
  10    5    7 1
  11    5   35 1
  12    6   36 1
  13    6   37 1
  14    6   38 1
  15    7   11 1
  16    7   39 1
  17    7   40 1
  18    8    9 1
  19    8   12 1
  20    9   10 2
  21    9   23 1
  22   10   11 1
  23   11   12 2
  24   12   15 1
  25   13   14 ar
  26   13   18 ar
  27   13   19 1
  28   14   15 ar
  29   14   41 1
  30   15   16 ar
  31   16   17 ar
  32   16   42 1
  33   17   18 ar
  34   17   43 1
  35   19   20 1
  36   19   21 1
  37   19   22 1
  38   23   24 1
  39   23   28 1
  40   24   25 1
  41   24   44 1
  42   24   45 1
  43   25   26 1
  44   25   30 1
  45   25   46 1
  46   26   27 1
  47   27   28 1
  48   27   29 1
  49   27   47 1
  50   28   48 1
  51   28   49 1
  52   29   50 1
  53   29   51 1
  54   29   52 1
  55   30   53 1
  56   30   54 1
  57   30   55 1

#	End of record

