#	Name: ASD02198423
#	Creating user name:	WinNT
#	Creation time:	15. 06. 2019 20:19

#	Modifying user name:	WinNT
#	Modification time:	15. 06. 2019 20:19

#	Program:	/corina/corina34_cracker 3.40 0067  02.08.2006

@<TRIPOS>MOLECULE
ASD02198423
  39   41    0    0    0
SMALL
NO_CHARGES


@<TRIPOS>ATOM
   1 C1            -0.4482     2.1688    -0.2945 C.ar    
   2 S2            -0.4584     0.4161    -0.1144 S.o2    
   3 N3             0.0790    -0.2266    -1.5429 N.am    
   4 C4             1.3538     0.0865    -2.0122 C.ar    
   5 C5             1.5824     0.2372    -3.3982 C.ar    
   6 C6             2.8852     0.5559    -3.8536 C.ar    
   7 C7             3.9278     0.7169    -2.9280 C.ar    
   8 C8             3.6775     0.5640    -1.5828 C.ar    
   9 C9             2.3941     0.2558    -1.1269 C.ar    
  10 N10            0.5895     0.0828    -4.2783 N.ar    
  11 C11            0.7917     0.2202    -5.5661 C.ar    
  12 C12            2.0479     0.5331    -6.0813 C.ar    
  13 C13            3.1070     0.7049    -5.2364 C.ar    
  14 O14            0.5279     0.1072     0.8608 O.2     
  15 O15           -1.8212     0.0334     0.0102 O.2     
  16 C16           -1.2980     2.7752    -1.2004 C.ar    
  17 C17            0.4055     2.9373     0.4744 C.ar    
  18 C18            0.4129     4.3144     0.3330 C.ar    
  19 C19           -0.4351     4.9204    -0.5787 C.ar    
  20 C20           -1.2911     4.1505    -1.3428 C.ar    
  21 O21            4.6889     0.7204    -0.6888 O.3     
  22 C22            5.9775     1.0413    -1.2167 C.3     
  23 C23           -2.2324     1.9366    -2.0340 C.3     
  24 F24            1.2466     5.0666     1.0843 F       
  25 H25           -0.4933    -0.8208    -2.0531 H       
  26 H26            4.9232     0.9596    -3.2698 H       
  27 H27            2.2175     0.1402    -0.0677 H       
  28 H28           -0.0370     0.0870    -6.2457 H       
  29 H29            2.1838     0.6399    -7.1474 H       
  30 H30            4.0877     0.9476    -5.6182 H       
  31 H31            1.0662     2.4637     1.1854 H       
  32 H32           -0.4302     5.9947    -0.6899 H       
  33 H33           -1.9523     4.6228    -2.0542 H       
  34 H34            6.3020     0.2481    -1.8902 H       
  35 H35            5.9219     1.9824    -1.7637 H       
  36 H36            6.6914     1.1381    -0.3987 H       
  37 H37           -3.2005     1.8690    -1.5377 H       
  38 H38           -2.3578     2.3974    -3.0138 H       
  39 H39           -1.8147     0.9369    -2.1534 H       
@<TRIPOS>BOND
   1    1    2 1
   2    1   16 ar
   3    1   17 ar
   4    2    3 am
   5    2   14 2
   6    2   15 2
   7    3    4 1
   8    3   25 1
   9    4    5 ar
  10    4    9 ar
  11    5    6 ar
  12    5   10 ar
  13    6    7 ar
  14    6   13 ar
  15    7    8 ar
  16    7   26 1
  17    8    9 ar
  18    8   21 1
  19    9   27 1
  20   10   11 ar
  21   11   12 ar
  22   11   28 1
  23   12   13 ar
  24   12   29 1
  25   13   30 1
  26   16   23 1
  27   16   20 ar
  28   17   18 ar
  29   17   31 1
  30   18   19 ar
  31   18   24 1
  32   19   20 ar
  33   19   32 1
  34   20   33 1
  35   21   22 1
  36   22   34 1
  37   22   35 1
  38   22   36 1
  39   23   37 1
  40   23   38 1
  41   23   39 1

#	End of record

