#	Name: ASD02590047
#	Creating user name:	WinNT
#	Creation time:	15. 06. 2019 20:25

#	Modifying user name:	WinNT
#	Modification time:	15. 06. 2019 20:25

#	Program:	/corina/corina34_cracker 3.40 0067  02.08.2006

@<TRIPOS>MOLECULE
ASD02590047
  31   33    0    0    0
SMALL
NO_CHARGES


@<TRIPOS>ATOM
   1 C1            -0.0168     1.3881     0.0097 C.ar    
   2 C2             0.0021    -0.0041     0.0020 C.ar    
   3 C3            -1.1767    -0.7182     0.0094 C.ar    
   4 C4            -2.3920    -0.0482     0.0246 C.ar    
   5 C5            -2.4200     1.3582     0.0325 C.ar    
   6 C6            -1.2161     2.0707     0.0305 C.ar    
   7 N7            -3.7114    -0.4592     0.0350 N.pl3   
   8 C8            -4.4861     0.6687     0.0485 C.2     
   9 N9            -3.7215     1.7325     0.0469 N.2     
  10 C10           -5.9659     0.6845     0.0623 C.ar    
  11 C11           -6.6443     1.9023     0.0754 C.ar    
  12 C12           -8.0290     1.9006     0.0882 C.ar    
  13 C13           -8.6898     0.6810     0.0875 C.ar    
  14 C14           -7.9528    -0.4905     0.0741 C.ar    
  15 N15           -6.6369    -0.4614     0.0566 N.ar    
  16 C16           -8.6669    -1.8176     0.0738 C.3     
  17 O17            1.1540     2.0795     0.0022 O.3     
  18 C18            2.3600     1.3131    -0.0134 C.3     
  19 H19            0.9465    -0.5277    -0.0102 H       
  20 H20           -1.1546    -1.7980     0.0031 H       
  21 H21           -1.2252     3.1507     0.0365 H       
  22 H22           -4.0290    -1.3757     0.0331 H       
  23 H23           -6.0977     2.8337     0.0759 H       
  24 H24           -8.5821     2.8282     0.0988 H       
  25 H25           -9.7692     0.6459     0.0976 H       
  26 H26           -8.8489    -2.1321    -0.9539 H       
  27 H27           -8.0504    -2.5620     0.5778 H       
  28 H28           -9.6178    -1.7187     0.5973 H       
  29 H29            2.3995     0.6798     0.8728 H       
  30 H30            2.3825     0.6894    -0.9070 H       
  31 H31            3.2178     1.9856    -0.0180 H       
@<TRIPOS>BOND
   1    1    2 ar
   2    1   17 1
   3    1    6 ar
   4    2    3 ar
   5    2   19 1
   6    3    4 ar
   7    3   20 1
   8    4    5 ar
   9    4    7 1
  10    5    6 ar
  11    5    9 1
  12    6   21 1
  13    7    8 1
  14    7   22 1
  15    8    9 2
  16    8   10 1
  17   10   11 ar
  18   10   15 ar
  19   11   12 ar
  20   11   23 1
  21   12   13 ar
  22   12   24 1
  23   13   14 ar
  24   13   25 1
  25   14   15 ar
  26   14   16 1
  27   16   26 1
  28   16   27 1
  29   16   28 1
  30   17   18 1
  31   18   29 1
  32   18   30 1
  33   18   31 1

#	End of record

