#	Name: ASD01884928
#	Creating user name:	WinNT
#	Creation time:	15. 06. 2019 19:49

#	Modifying user name:	WinNT
#	Modification time:	15. 06. 2019 19:49

#	Program:	/corina/corina34_cracker 3.40 0067  02.08.2006

@<TRIPOS>MOLECULE
ASD01884928
  52   56    0    0    0
SMALL
NO_CHARGES


@<TRIPOS>ATOM
   1 C1            -0.0169     1.3751     0.0012 C.ar    
   2 C2             0.0017    -0.0041    -0.0055 C.ar    
   3 C3            -1.1979    -0.7162     0.0125 C.ar    
   4 C4            -2.4121    -0.0305     0.0372 C.ar    
   5 C5            -2.4238     1.3486     0.0437 C.ar    
   6 C6            -1.2289     2.0547     0.0315 C.ar    
   7 C7            -1.1821    -2.1976     0.0049 C.2     
   8 C8            -1.6593    -2.9062     1.0915 C.2     
   9 C9            -0.6832    -2.9016    -1.1181 C.2     
  10 C10           -0.6701    -4.2477    -1.1231 C.2     
  11 N11           -1.1350    -4.9557    -0.0524 N.pl3   
  12 C12           -1.6316    -4.3107     1.0546 C.2     
  13 C13           -1.2415    -6.2868     0.2144 C.2     
  14 N14           -1.7644    -6.4091     1.4071 N.2     
  15 N15           -1.9996    -5.2496     1.9129 N.2     
  16 C16           -0.8320    -7.4138    -0.6985 C.3     
  17 C17           -0.8510    -8.8313    -0.1231 C.3     
  18 O18           -1.2443     3.4134     0.0380 O.3     
  19 C19           -2.5205     4.0482    -0.0634 C.3     
  20 C20           -2.3475     5.4499    -0.6519 C.3     
  21 C21           -3.7139     6.1297    -0.7605 C.3     
  22 C22           -4.3434     6.2344     0.6300 C.3     
  23 C23           -4.5164     4.8327     1.2185 C.3     
  24 C24           -3.1500     4.1530     1.3271 C.3     
  25 C25           -1.9172    -8.4011    -1.1326 C.3     
  26 Cl26           1.4748     2.2627    -0.0212 Cl      
  27 O27           -3.4936     7.0066     1.4807 O.3     
  28 C28           -2.2008    -2.1834     2.2979 C.3     
  29 F29           -3.5909    -2.0699     2.1885 F       
  30 F30           -1.8813    -2.9025     3.4547 F       
  31 F31           -1.6330    -0.9069     2.3706 F       
  32 H32            0.9436    -0.5321    -0.0250 H       
  33 H33           -3.3423    -0.5790     0.0508 H       
  34 H34           -3.3640     1.8798     0.0628 H       
  35 H35           -0.3123    -2.3567    -1.9736 H       
  36 H36           -0.2873    -4.7741    -1.9850 H       
  37 H37           -0.0518    -7.1738    -1.4208 H       
  38 H38           -0.0830    -9.5243    -0.4668 H       
  39 H39           -1.1597    -8.9488     0.9156 H       
  40 H40           -3.1687     3.4593    -0.7123 H       
  41 H41           -1.6993     6.0389    -0.0030 H       
  42 H42           -1.8990     5.3753    -1.6425 H       
  43 H43           -3.5907     7.1282    -1.1797 H       
  44 H44           -4.3621     5.5407    -1.4094 H       
  45 H45           -5.3169     6.7187     0.5526 H       
  46 H46           -4.9649     4.9074     2.2091 H       
  47 H47           -5.1647     4.2437     0.5696 H       
  48 H48           -3.2733     3.1544     1.7463 H       
  49 H49           -2.5018     4.7420     1.9760 H       
  50 H50           -2.9273    -8.2355    -0.7580 H       
  51 H51           -1.8506    -8.8110    -2.1404 H       
  52 H52           -3.8310     7.1145     2.3805 H       
@<TRIPOS>BOND
   1    1    2 ar
   2    1   26 1
   3    1    6 ar
   4    2    3 ar
   5    2   32 1
   6    3    4 ar
   7    3    7 1
   8    4    5 ar
   9    4   33 1
  10    5    6 ar
  11    5   34 1
  12    6   18 1
  13    7    8 2
  14    7    9 1
  15    8   28 1
  16    8   12 1
  17    9   10 2
  18    9   35 1
  19   10   11 1
  20   10   36 1
  21   11   12 1
  22   11   13 1
  23   12   15 2
  24   13   14 2
  25   13   16 1
  26   14   15 1
  27   16   25 1
  28   16   17 1
  29   16   37 1
  30   17   25 1
  31   17   38 1
  32   17   39 1
  33   18   19 1
  34   19   20 1
  35   19   24 1
  36   19   40 1
  37   20   21 1
  38   20   41 1
  39   20   42 1
  40   21   22 1
  41   21   43 1
  42   21   44 1
  43   22   23 1
  44   22   27 1
  45   22   45 1
  46   23   24 1
  47   23   46 1
  48   23   47 1
  49   24   48 1
  50   24   49 1
  51   25   50 1
  52   25   51 1
  53   27   52 1
  54   28   29 1
  55   28   30 1
  56   28   31 1

#	End of record

