#	Name: ASD01351008
#	Creating user name:	WinNT
#	Creation time:	15. 06. 2019 19:16

#	Modifying user name:	WinNT
#	Modification time:	15. 06. 2019 19:16

#	Program:	/corina/corina34_cracker 3.40 0067  02.08.2006

@<TRIPOS>MOLECULE
ASD01351008
  46   49    0    0    0
SMALL
NO_CHARGES


@<TRIPOS>ATOM
   1 N1            -0.2789     1.2007     0.1613 N.am    
   2 C2            -0.0815    -0.2521     0.0254 C.3     
   3 C3            -1.6578     1.6827     0.2959 C.3     
   4 C4            -0.8980    -0.7771    -1.1573 C.3     
   5 C5             1.4020    -0.5547    -0.1949 C.3     
   6 C6            -0.5577    -0.9134     1.3179 C.3     
   7 C7            -2.4071     0.8109     1.2721 C.ar    
   8 C8            -1.9069    -0.3833     1.7260 C.ar    
   9 C9            -3.6518     1.2462     1.7054 C.ar    
  10 C10           -2.6579    -1.1466     2.6113 C.ar    
  11 C11           -4.3897     0.4879     2.5914 C.ar    
  12 C12           -3.8982    -0.7147     3.0331 C.ar    
  13 C13            0.7655     2.0526     0.1673 C.2     
  14 O14            1.9031     1.6206     0.1780 O.2     
  15 O15            1.8430     0.0619    -1.4333 O.3     
  16 C16            3.1360    -0.1106    -1.7768 C.2     
  17 C17            3.6509     0.4829    -3.0129 C.2     
  18 O18            3.8743    -0.7590    -1.0600 O.2     
  19 C19            0.5309     3.5003     0.1611 C.2     
  20 C20            1.4848     4.4683     0.2933 C.2     
  21 C21            0.8189     5.7023     0.2303 C.2     
  22 C22           -0.4957     5.4369     0.0647 C.2     
  23 O23           -0.6646     4.1091     0.0181 O.3     
  24 O24            2.9430     1.2212    -3.8929 O.3     
  25 C25            3.7401     1.5949    -4.9020 C.2     
  26 C26            4.9789     1.0997    -4.6844 C.2     
  27 C27            4.9338     0.3910    -3.4742 C.2     
  28 H28           -1.6490     2.7101     0.6597 H       
  29 H29           -2.1511     1.6466    -0.6754 H       
  30 H30           -0.5722    -0.2818    -2.0720 H       
  31 H31           -0.7483    -1.8525    -1.2532 H       
  32 H32           -1.9550    -0.5709    -0.9891 H       
  33 H33            1.9818    -0.1545     0.6368 H       
  34 H34            1.5480    -1.6332    -0.2539 H       
  35 H35           -0.6270    -1.9904     1.1650 H       
  36 H36            0.1622    -0.7102     2.1108 H       
  37 H37           -4.0457     2.1856     1.3466 H       
  38 H38           -2.2673    -2.0867     2.9720 H       
  39 H39           -5.3573     0.8325     2.9251 H       
  40 H40           -4.4754    -1.3148     3.7210 H       
  41 H41            2.5460     4.3142     0.4217 H       
  42 H42            1.2720     6.6801     0.3010 H       
  43 H43           -1.2804     6.1741    -0.0199 H       
  44 H44            3.4422     2.1932    -5.7503 H       
  45 H45            5.8421     1.2287    -5.3204 H       
  46 H46            5.7526    -0.1317    -3.0024 H       
@<TRIPOS>BOND
   1    1    2 1
   2    1   13 am
   3    1    3 1
   4    2    5 1
   5    2    6 1
   6    2    4 1
   7    3    7 1
   8    3   28 1
   9    3   29 1
  10    4   30 1
  11    4   31 1
  12    4   32 1
  13    5   15 1
  14    5   33 1
  15    5   34 1
  16    6    8 1
  17    6   35 1
  18    6   36 1
  19    7    8 ar
  20    7    9 ar
  21    8   10 ar
  22    9   11 ar
  23    9   37 1
  24   10   12 ar
  25   10   38 1
  26   11   12 ar
  27   11   39 1
  28   12   40 1
  29   13   14 2
  30   13   19 1
  31   15   16 1
  32   16   17 1
  33   16   18 2
  34   17   24 1
  35   17   27 2
  36   19   20 2
  37   19   23 1
  38   20   21 1
  39   20   41 1
  40   21   22 2
  41   21   42 1
  42   22   23 1
  43   22   43 1
  44   24   25 1
  45   25   26 2
  46   25   44 1
  47   26   27 1
  48   26   45 1
  49   27   46 1

#	End of record

