#	Name: ASD02198735
#	Creating user name:	WinNT
#	Creation time:	15. 06. 2019 20:20

#	Modifying user name:	WinNT
#	Modification time:	15. 06. 2019 20:20

#	Program:	/corina/corina34_cracker 3.40 0067  02.08.2006

@<TRIPOS>MOLECULE
ASD02198735
  49   53    0    0    0
SMALL
NO_CHARGES


@<TRIPOS>ATOM
   1 F1             3.3676     0.3019     3.1544 F       
   2 C2             0.4153     2.7557     0.4063 C.2     
   3 C3             0.5819     1.4764     0.8265 C.2     
   4 N4             1.8183     0.9437     0.9522 N.pl3   
   5 N5             2.8935     1.5905     0.6904 N.2     
   6 C6             2.8747     2.8385     0.2739 C.2     
   7 C7             1.5754     3.5089     0.1052 C.2     
   8 C8             1.9296    -0.3802     1.3907 C.ar    
   9 C9             2.7132    -0.6825     2.5003 C.ar    
  10 C10            2.8217    -1.9908     2.9324 C.ar    
  11 C11            2.1490    -3.0019     2.2593 C.ar    
  12 C12            1.3670    -2.6993     1.1517 C.ar    
  13 C13            1.2533    -1.3930     0.7221 C.ar    
  14 C14            4.1337     3.5534    -0.0180 C.2     
  15 N15            4.4656     4.1664    -1.1935 N.pl3   
  16 N16            5.7432     4.7192    -1.0404 N.2     
  17 C17            6.1728     4.4581     0.1685 C.2     
  18 C18            5.1921     3.7331     0.8454 C.2     
  19 C19            3.6706     4.2303    -2.3449 C.ar    
  20 C20            3.5642     5.4209    -3.0517 C.ar    
  21 C21            2.7794     5.4807    -4.1867 C.ar    
  22 C22            2.1001     4.3566    -4.6193 C.ar    
  23 C23            2.2037     3.1697    -3.9174 C.ar    
  24 C24            2.9917     3.1018    -2.7852 C.ar    
  25 O25            1.5012     4.6665    -0.2791 O.2     
  26 N26            2.2595    -4.3288     2.6973 N.pl3   
  27 C27            2.3127    -4.7436     3.9911 C.2     
  28 N28            2.3286    -5.4646     1.8803 N.2     
  29 C29            2.4249    -6.5199     2.6481 C.2     
  30 C30            2.4176    -6.0990     3.9816 C.2     
  31 O31            2.2694    -3.9494     5.0912 O.3     
  32 C32            2.4253    -4.5889     6.3596 C.3     
  33 F33            1.4313    -5.5607     6.5172 F       
  34 F34            3.6845    -5.1951     6.4246 F       
  35 H35           -0.5706     3.1839     0.3006 H       
  36 H36           -0.2839     0.8761     1.0639 H       
  37 H37            3.4298    -2.2267     3.7932 H       
  38 H38            0.8443    -3.4866     0.6289 H       
  39 H39            0.6448    -1.1589    -0.1389 H       
  40 H40            7.1274     4.7575     0.5754 H       
  41 H41            5.2539     3.3723     1.8615 H       
  42 H42            4.0942     6.2992    -2.7141 H       
  43 H43            2.6960     6.4064    -4.7366 H       
  44 H44            1.4871     4.4059    -5.5071 H       
  45 H45            1.6713     2.2937    -4.2574 H       
  46 H46            3.0722     2.1745    -2.2374 H       
  47 H47            2.4955    -7.5430     2.3093 H       
  48 H48            2.4840    -6.7376     4.8501 H       
  49 H49            2.3376    -3.8474     7.1536 H       
@<TRIPOS>BOND
   1    1    9 1
   2    2    3 2
   3    2    7 1
   4    2   35 1
   5    3    4 1
   6    3   36 1
   7    4    5 1
   8    4    8 1
   9    5    6 2
  10    6    7 1
  11    6   14 1
  12    7   25 2
  13    8    9 ar
  14    8   13 ar
  15    9   10 ar
  16   10   11 ar
  17   10   37 1
  18   11   12 ar
  19   11   26 1
  20   12   13 ar
  21   12   38 1
  22   13   39 1
  23   14   15 1
  24   14   18 2
  25   15   16 1
  26   15   19 1
  27   16   17 2
  28   17   18 1
  29   17   40 1
  30   18   41 1
  31   19   20 ar
  32   19   24 ar
  33   20   21 ar
  34   20   42 1
  35   21   22 ar
  36   21   43 1
  37   22   23 ar
  38   22   44 1
  39   23   24 ar
  40   23   45 1
  41   24   46 1
  42   26   28 1
  43   26   27 1
  44   27   31 1
  45   27   30 2
  46   28   29 2
  47   29   30 1
  48   29   47 1
  49   30   48 1
  50   31   32 1
  51   32   33 1
  52   32   34 1
  53   32   49 1

#	End of record

