#	Name: ASD04590451
#	Creating user name:	WinNT
#	Creation time:	15. 06. 2019 20:50

#	Modifying user name:	WinNT
#	Modification time:	15. 06. 2019 20:50

#	Program:	/corina/corina34_cracker 3.40 0067  02.08.2006

@<TRIPOS>MOLECULE
ASD04590451
  49   53    0    0    0
SMALL
NO_CHARGES


@<TRIPOS>ATOM
   1 C1            -0.0169     1.3923     0.0097 C.ar    
   2 C2             0.0021    -0.0041     0.0020 C.ar    
   3 C3            -2.4013    -0.0379     0.0252 C.ar    
   4 C4            -2.4140     1.3672     0.0440 C.ar    
   5 C5            -1.2191     2.0735     0.0306 C.ar    
   6 N6            -3.6929    -0.4513     0.0448 N.2     
   7 C7            -4.4887     0.5899     0.0739 C.2     
   8 N8            -3.7458     1.7406     0.0747 N.pl3   
   9 C9            -5.9649     0.5311     0.1013 C.2     
  10 C10           -6.7501    -0.6449     0.1010 C.2     
  11 C11           -8.0530    -0.2718     0.1314 C.2     
  12 N12           -8.0970     1.0863     0.1504 N.pl3   
  13 N13           -6.7813     1.5660     0.1360 N.2     
  14 N14           -6.2669    -1.9630     0.0732 N.am    
  15 C15           -7.1306    -2.9976     0.0764 C.2     
  16 O16           -8.3281    -2.7897     0.1033 O.2     
  17 C17           -6.6215    -4.3864     0.0472 C.2     
  18 C18           -1.1778    -0.7174     0.0095 C.ar    
  19 N19           -5.3353    -4.7688     0.0166 N.2     
  20 O20            1.1915    -0.6643    -0.0133 O.3     
  21 C21            1.1408    -2.0924    -0.0205 C.3     
  22 O22            1.1536     2.0851     0.0022 O.3     
  23 C23            1.0634     3.5113     0.0108 C.3     
  24 N24           -5.3200    -6.0584    -0.0007 N.2     
  25 N25           -6.5318    -6.4923     0.0176 N.pl3   
  26 N26           -7.3435    -5.4919     0.0520 N.2     
  27 C27           -6.9094    -7.8423     0.0073 C.ar    
  28 C28           -5.9398    -8.8357    -0.0245 C.ar    
  29 C29           -6.3149   -10.1649    -0.0347 C.ar    
  30 C30           -7.6546   -10.5068    -0.0131 C.ar    
  31 C31           -8.6226    -9.5198     0.0186 C.ar    
  32 C32           -8.2536    -8.1889     0.0347 C.ar    
  33 H33           -1.2289     3.1534     0.0368 H       
  34 H34           -4.0892     2.6476     0.0938 H       
  35 H35           -8.9046    -0.9359     0.1392 H       
  36 H36           -8.9005     1.6293     0.1730 H       
  37 H37           -5.3114    -2.1289     0.0518 H       
  38 H38           -1.1579    -1.7972     0.0027 H       
  39 H39            0.6232    -2.4420     0.8728 H       
  40 H40            0.6056    -2.4325    -0.9070 H       
  41 H41            2.1548    -2.4919    -0.0327 H       
  42 H42            0.5362     3.8366     0.9076 H       
  43 H43            2.0660     3.9388     0.0035 H       
  44 H44            0.5192     3.8462    -0.8723 H       
  45 H45           -4.8933    -8.5692    -0.0417 H       
  46 H46           -5.5612   -10.9379    -0.0598 H       
  47 H47           -7.9456   -11.5468    -0.0215 H       
  48 H48           -9.6682    -9.7899     0.0350 H       
  49 H49           -9.0100    -7.4185     0.0598 H       
@<TRIPOS>BOND
   1    1    2 ar
   2    1   22 1
   3    1    5 ar
   4    2   18 ar
   5    2   20 1
   6    3    4 ar
   7    3    6 1
   8    3   18 ar
   9    4    5 ar
  10    4    8 1
  11    5   33 1
  12    6    7 2
  13    7    8 1
  14    7    9 1
  15    8   34 1
  16    9   10 1
  17    9   13 2
  18   10   11 2
  19   10   14 1
  20   11   12 1
  21   11   35 1
  22   12   13 1
  23   12   36 1
  24   14   15 am
  25   14   37 1
  26   15   16 2
  27   15   17 1
  28   17   19 1
  29   17   26 2
  30   18   38 1
  31   19   24 2
  32   20   21 1
  33   21   39 1
  34   21   40 1
  35   21   41 1
  36   22   23 1
  37   23   42 1
  38   23   43 1
  39   23   44 1
  40   24   25 1
  41   25   26 1
  42   25   27 1
  43   27   28 ar
  44   27   32 ar
  45   28   29 ar
  46   28   45 1
  47   29   30 ar
  48   29   46 1
  49   30   31 ar
  50   30   47 1
  51   31   32 ar
  52   31   48 1
  53   32   49 1

#	End of record

