#	Name: ASD03240020
#	Creating user name:	WinNT
#	Creation time:	15. 06. 2019 20:34

#	Modifying user name:	WinNT
#	Modification time:	15. 06. 2019 20:34

#	Program:	/corina/corina34_cracker 3.40 0067  02.08.2006

@<TRIPOS>MOLECULE
ASD03240020
  76   83    0    0    0
SMALL
NO_CHARGES


@<TRIPOS>ATOM
   1 C1             0.0561     1.4987     0.1654 C.ar    
   2 C2            -0.0620     0.1022    -0.0586 C.ar    
   3 N3             1.2670     2.0648     0.2078 N.ar    
   4 C4             2.3459     1.3224     0.0411 C.ar    
   5 C5             2.2280    -0.0718    -0.1830 C.ar    
   6 N6             1.0379    -0.6414    -0.2263 N.ar    
   7 C7             3.4461    -0.8941    -0.3696 C.ar    
   8 C8             3.6867     1.9502     0.0882 C.ar    
   9 C9             3.9254     3.1435    -0.5932 C.ar    
  10 C10            5.1763     3.7237    -0.5452 C.ar    
  11 C11            6.1929     3.1240     0.1766 C.ar    
  12 C12            5.9623     1.9403     0.8546 C.ar    
  13 C13            4.7140     1.3534     0.8188 C.ar    
  14 C14            3.5745    -2.1152     0.2917 C.ar    
  15 C15            4.7112    -2.8769     0.1136 C.ar    
  16 C16            5.7223    -2.4314    -0.7190 C.ar    
  17 C17            5.6009    -1.2208    -1.3774 C.ar    
  18 C18            4.4664    -0.4529    -1.2117 C.ar    
  19 C19            6.9611    -3.2681    -0.9092 C.3     
  20 N20            6.7651    -4.1829    -2.0418 N.3     
  21 C21            8.0240    -4.8441    -2.4082 C.3     
  22 C22            7.8154    -5.6743    -3.6767 C.3     
  23 C23            6.7237    -6.7179    -3.4241 C.3     
  24 C24            5.4370    -6.0060    -2.9972 C.3     
  25 C25            5.7147    -5.1662    -1.7484 C.3     
  26 N26            6.4786    -7.4773    -4.6526 N.am    
  27 C27            6.6305    -8.8536    -4.8042 C.ar    
  28 C28            6.2935    -9.1536    -6.1256 C.ar    
  29 N29            5.9473    -7.9504    -6.7359 N.am    
  30 C30            6.0626    -6.9647    -5.8260 C.2     
  31 C31            7.0214    -9.8683    -3.9438 C.ar    
  32 C32            7.0756   -11.1715    -4.3976 C.ar    
  33 C33            6.7415   -11.4691    -5.7078 C.ar    
  34 C34            6.3511   -10.4651    -6.5721 C.ar    
  35 O35            5.8338    -5.7880    -6.0349 O.2     
  36 C36           -1.3371    -0.4836    -0.1020 C.ar    
  37 C37           -2.4571     0.3067     0.0737 C.ar    
  38 C38           -2.3287     1.6874     0.2947 C.ar    
  39 C39           -1.1049     2.2752     0.3351 C.ar    
  40 C40           -3.8067    -0.3088     0.0280 C.2     
  41 N41           -4.0898    -1.6039    -0.1726 N.2     
  42 N42           -5.3736    -1.7246    -0.1394 N.2     
  43 N43           -5.8971    -0.5677     0.0717 N.pl3   
  44 N44           -4.9603     0.3104     0.1824 N.2     
  45 C45           -7.3324    -0.2933     0.1758 C.3     
  46 H46            3.1328     3.6122    -1.1576 H       
  47 H47            5.3624     4.6478    -1.0724 H       
  48 H48            7.1705     3.5816     0.2107 H       
  49 H49            6.7598     1.4769     1.4164 H       
  50 H50            4.5351     0.4294     1.3485 H       
  51 H51            2.7860    -2.4638     0.9422 H       
  52 H52            4.8120    -3.8225     0.6255 H       
  53 H53            6.3938    -0.8779    -2.0255 H       
  54 H54            4.3726     0.4919    -1.7265 H       
  55 H55            7.8118    -2.6172    -1.1109 H       
  56 H56            7.1520    -3.8456    -0.0046 H       
  57 H57            8.7907    -4.0907    -2.5892 H       
  58 H58            8.3414    -5.4969    -1.5950 H       
  59 H59            7.5113    -5.0202    -4.4939 H       
  60 H60            8.7459    -6.1774    -3.9396 H       
  61 H61            7.0442    -7.3962    -2.6333 H       
  62 H62            5.0955    -5.3570    -3.8037 H       
  63 H63            4.6684    -6.7461    -2.7746 H       
  64 H64            6.0429    -5.8175    -0.9383 H       
  65 H65            4.8040    -4.6467    -1.4502 H       
  66 H66            5.6673    -7.8417    -7.6582 H       
  67 H67            7.2831    -9.6400    -2.9212 H       
  68 H68            7.3804   -11.9619    -3.7277 H       
  69 H69            6.7864   -12.4906    -6.0554 H       
  70 H70            6.0908   -10.7011    -7.5934 H       
  71 H71           -1.4421    -1.5450    -0.2720 H       
  72 H72           -3.2145     2.2903     0.4300 H       
  73 H73           -1.0225     3.3384     0.5060 H       
  74 H74           -7.6465    -0.3909     1.2150 H       
  75 H75           -7.5347     0.7200    -0.1713 H       
  76 H76           -7.8838    -1.0048    -0.4388 H       
@<TRIPOS>BOND
   1    1    2 ar
   2    1    3 ar
   3    1   39 ar
   4    2   36 ar
   5    2    6 ar
   6    3    4 ar
   7    4    5 ar
   8    4    8 1
   9    5    6 ar
  10    5    7 1
  11    7   14 ar
  12    7   18 ar
  13    8    9 ar
  14    8   13 ar
  15    9   10 ar
  16    9   46 1
  17   10   11 ar
  18   10   47 1
  19   11   12 ar
  20   11   48 1
  21   12   13 ar
  22   12   49 1
  23   13   50 1
  24   14   15 ar
  25   14   51 1
  26   15   16 ar
  27   15   52 1
  28   16   17 ar
  29   16   19 1
  30   17   18 ar
  31   17   53 1
  32   18   54 1
  33   19   20 1
  34   19   55 1
  35   19   56 1
  36   20   21 1
  37   20   25 1
  38   21   22 1
  39   21   57 1
  40   21   58 1
  41   22   23 1
  42   22   59 1
  43   22   60 1
  44   23   24 1
  45   23   26 1
  46   23   61 1
  47   24   25 1
  48   24   62 1
  49   24   63 1
  50   25   64 1
  51   25   65 1
  52   26   27 1
  53   26   30 am
  54   27   28 ar
  55   27   31 ar
  56   28   29 1
  57   28   34 ar
  58   29   30 am
  59   29   66 1
  60   30   35 2
  61   31   32 ar
  62   31   67 1
  63   32   33 ar
  64   32   68 1
  65   33   34 ar
  66   33   69 1
  67   34   70 1
  68   36   37 ar
  69   36   71 1
  70   37   38 ar
  71   37   40 1
  72   38   39 ar
  73   38   72 1
  74   39   73 1
  75   40   41 1
  76   40   44 2
  77   41   42 2
  78   42   43 1
  79   43   44 1
  80   43   45 1
  81   45   74 1
  82   45   75 1
  83   45   76 1

#	End of record

