#	Name: ASD01885653
#	Creating user name:	WinNT
#	Creation time:	15. 06. 2019 19:49

#	Modifying user name:	WinNT
#	Modification time:	15. 06. 2019 19:49

#	Program:	/corina/corina34_cracker 3.40 0067  02.08.2006

@<TRIPOS>MOLECULE
ASD01885653
  39   42    0    0    0
SMALL
NO_CHARGES


@<TRIPOS>ATOM
   1 C1            -0.0170     1.4033     0.0098 C.ar    
   2 C2            -1.2660     2.0737     0.0193 C.ar    
   3 C3            -1.2872     3.4921     0.0272 C.ar    
   4 C4            -0.0717     4.1602     0.0250 C.ar    
   5 C5             1.1205     3.4239     0.0154 C.ar    
   6 N6             1.1187     2.1034     0.0027 N.ar    
   7 C7             0.0021    -0.0041     0.0020 C.ar    
   8 C8            -1.1702    -0.6954     0.0090 C.ar    
   9 C9            -2.3950    -0.0322     0.0237 C.ar    
  10 C10           -2.4525     1.3297     0.0204 C.ar    
  11 C11           -2.5673     4.2364     0.0368 C.ar    
  12 C12           -2.7783     5.2537     0.9678 C.ar    
  13 C13           -3.9721     5.9444     0.9725 C.ar    
  14 C14           -4.9612     5.6292     0.0543 C.ar    
  15 C15           -4.7564     4.6193    -0.8727 C.ar    
  16 C16           -3.5640     3.9265    -0.8888 C.ar    
  17 C17           -1.1426    -2.2021     0.0122 C.3     
  18 F18           -6.1291     6.3082     0.0631 F       
  19 N19           -1.1520    -2.6936    -1.3679 N.am    
  20 C20           -0.0441    -2.9284    -2.0991 C.2     
  21 C21           -0.5401    -3.4189    -3.4447 C.3     
  22 O22           -1.9930    -3.4029    -3.3059 O.3     
  23 C23           -2.2615    -2.9726    -2.0624 C.2     
  24 O24            1.1081    -2.7783    -1.7530 O.2     
  25 O25           -3.3854    -2.8435    -1.6203 O.2     
  26 C26            2.3715     4.1206     0.0064 C.1     
  27 N27            3.3640     4.6734    -0.0008 N.1     
  28 H28           -0.0443     5.2398     0.0305 H       
  29 H29            0.9434    -0.5333    -0.0098 H       
  30 H30           -3.3109    -0.6044     0.0376 H       
  31 H31           -3.4082     1.8325     0.0276 H       
  32 H32           -2.0082     5.4998     1.6840 H       
  33 H33           -4.1365     6.7318     1.6931 H       
  34 H34           -5.5302     4.3774    -1.5862 H       
  35 H35           -3.4052     3.1400    -1.6117 H       
  36 H36           -0.2393    -2.5479     0.5149 H       
  37 H37           -2.0188    -2.5805     0.5386 H       
  38 H38           -0.2239    -2.7428    -4.2390 H       
  39 H39           -0.1849    -4.4311    -3.6380 H       
@<TRIPOS>BOND
   1    1    7 ar
   2    1    6 ar
   3    1    2 ar
   4    2    3 ar
   5    2   10 ar
   6    3   11 1
   7    3    4 ar
   8    4    5 ar
   9    4   28 1
  10    5    6 ar
  11    5   26 1
  12    7    8 ar
  13    7   29 1
  14    8    9 ar
  15    8   17 1
  16    9   10 ar
  17    9   30 1
  18   10   31 1
  19   11   12 ar
  20   11   16 ar
  21   12   13 ar
  22   12   32 1
  23   13   14 ar
  24   13   33 1
  25   14   15 ar
  26   14   18 1
  27   15   16 ar
  28   15   34 1
  29   16   35 1
  30   17   19 1
  31   17   36 1
  32   17   37 1
  33   19   20 am
  34   19   23 am
  35   20   21 1
  36   20   24 2
  37   21   22 1
  38   21   38 1
  39   21   39 1
  40   22   23 1
  41   23   25 2
  42   26   27 3

#	End of record

