#	Name: ASD01901602
#	Creating user name:	WinNT
#	Creation time:	15. 06. 2019 19:54

#	Modifying user name:	WinNT
#	Modification time:	15. 06. 2019 19:54

#	Program:	/corina/corina34_cracker 3.40 0067  02.08.2006

@<TRIPOS>MOLECULE
ASD01901602
  42   46    0    0    0
SMALL
NO_CHARGES


@<TRIPOS>ATOM
   1 C1             0.7242     1.4530    -0.1248 C.3     
   2 C2             2.2504     1.5571    -0.2559 C.3     
   3 N3             2.8429     0.9512     0.9489 N.pl3   
   4 C4             3.9245     1.5410     1.5930 C.ar    
   5 C5             3.7027     2.4245     2.6444 C.ar    
   6 C6             4.7881     3.0041     3.2765 C.ar    
   7 C7             6.0636     2.6794     2.8341 C.ar    
   8 C8             6.2107     1.7944     1.7845 C.ar    
   9 N9             5.1573     1.2525     1.2038 N.ar    
  10 C10            2.2755    -0.2452     1.4253 C.ar    
  11 C11            2.9512    -1.0067     2.3651 C.ar    
  12 C12            2.3913    -2.1801     2.8352 C.ar    
  13 C13            1.1522    -2.5946     2.3652 C.ar    
  14 N14            0.5854    -3.7814     2.8433 N.pl3   
  15 C15            0.8631    -4.2143     4.1422 C.2     
  16 N16            1.5469    -3.5617     5.0446 N.2     
  17 N17            1.6172    -4.3078     6.2250 N.pl3   
  18 H18            2.0714    -4.0321     7.0365 H       
  19 C19            0.9446    -5.4874     6.0567 C.ar    
  20 N20            0.7135    -6.5285     6.8475 N.ar    
  21 C21            0.0196    -7.5659     6.4316 C.ar    
  22 C22           -0.5038    -7.6224     5.1481 C.ar    
  23 C23           -0.2981    -6.5767     4.2854 C.ar    
  24 C24            0.4361    -5.4785     4.7426 C.ar    
  25 C25            0.4740    -1.8336     1.4221 C.ar    
  26 C26            1.0337    -0.6579     0.9480 C.ar    
  27 O27            0.3665     0.0765     0.0189 O.3     
  28 H28            0.3942     2.0097     0.7523 H       
  29 H29            0.2522     1.8617    -1.0182 H       
  30 H30            2.5831     1.0178    -1.1429 H       
  31 H31            2.5450     2.6041    -0.3265 H       
  32 H32            2.6967     2.6551     2.9627 H       
  33 H33            4.6467     3.6939     4.0953 H       
  34 H34            6.9319     3.1150     3.3061 H       
  35 H35            7.2010     1.5395     1.4371 H       
  36 H36            3.9151    -0.6839     2.7300 H       
  37 H37            2.9177    -2.7744     3.5674 H       
  38 H38           -0.0003    -4.3033     2.2729 H       
  39 H39           -0.1463    -8.3935     7.1054 H       
  40 H40           -1.0699    -8.4854     4.8301 H       
  41 H41           -0.6961    -6.5989     3.2816 H       
  42 H42           -0.4897    -2.1581     1.0581 H       
@<TRIPOS>BOND
   1    1   27 1
   2    1    2 1
   3    1   28 1
   4    1   29 1
   5    2    3 1
   6    2   30 1
   7    2   31 1
   8    3    4 1
   9    3   10 1
  10    4    9 ar
  11    4    5 ar
  12    5    6 ar
  13    5   32 1
  14    6    7 ar
  15    6   33 1
  16    7    8 ar
  17    7   34 1
  18    8    9 ar
  19    8   35 1
  20   10   26 ar
  21   10   11 ar
  22   11   12 ar
  23   11   36 1
  24   12   13 ar
  25   12   37 1
  26   13   14 1
  27   13   25 ar
  28   14   15 1
  29   14   38 1
  30   15   24 1
  31   15   16 2
  32   16   17 1
  33   17   18 1
  34   17   19 1
  35   19   24 ar
  36   19   20 ar
  37   20   21 ar
  38   21   22 ar
  39   21   39 1
  40   22   23 ar
  41   22   40 1
  42   23   24 ar
  43   23   41 1
  44   25   26 ar
  45   25   42 1
  46   26   27 1

#	End of record

