#	Name: ASD01510096
#	Creating user name:	WinNT
#	Creation time:	15. 06. 2019 19:21

#	Modifying user name:	WinNT
#	Modification time:	15. 06. 2019 19:21

#	Program:	/corina/corina34_cracker 3.40 0067  02.08.2006

@<TRIPOS>MOLECULE
ASD01510096
  51   53    0    0    0
SMALL
NO_CHARGES


@<TRIPOS>ATOM
   1 N1             6.0083     1.9225     1.9953 N.3     
   2 C2             5.7050     0.6159     1.3963 C.3     
   3 C3             4.7284    -0.1243     2.2734 C.2     
   4 O4             4.3248     0.3863     3.2969 O.2     
   5 N5             4.3035    -1.3538     1.9207 N.am    
   6 C6             3.4719    -2.0800     2.7803 C.ar    
   7 C7             2.5127    -1.4220     3.5400 C.ar    
   8 C8             1.6907    -2.1381     4.3895 C.ar    
   9 C9             1.8193    -3.5096     4.4864 C.ar    
  10 C10            2.7773    -4.1746     3.7289 C.ar    
  11 C11            3.6006    -3.4584     2.8704 C.ar    
  12 S12            2.9415    -5.9246     3.8533 S.3     
  13 C13            4.2208    -6.1186     5.0492 C.ar    
  14 C14            4.7446    -5.0194     5.7142 C.ar    
  15 N15            5.7059    -5.2027     6.6080 N.ar    
  16 C16            6.1684    -6.4146     6.8712 C.ar    
  17 N17            5.6957    -7.4902     6.2587 N.ar    
  18 C18            4.7295    -7.3863     5.3559 C.ar    
  19 O19            4.2488    -8.4901     4.7322 O.3     
  20 C20            4.8294    -9.7446     5.0944 C.3     
  21 N21            7.1753    -6.5625     7.8132 N.3     
  22 C22            7.5636    -5.2624     8.3776 C.3     
  23 C23            8.6175    -5.4763     9.4666 C.3     
  24 N24            9.7805    -6.1656     8.8906 N.3     
  25 C25            9.3922    -7.4657     8.3262 C.3     
  26 C26            8.3383    -7.2518     7.2371 C.3     
  27 C27           10.8471    -6.3223     9.8885 C.3     
  28 H28            6.3548     1.8168     2.9370 H       
  29 H29            6.6616     2.4386     1.4254 H       
  30 H30            5.2678     0.7617     0.4085 H       
  31 H31            6.6234     0.0360     1.3051 H       
  32 H32            4.5742    -1.7352     1.0709 H       
  33 H33            2.4096    -0.3494     3.4670 H       
  34 H34            0.9462    -1.6238     4.9791 H       
  35 H35            1.1756    -4.0662     5.1514 H       
  36 H36            4.3455    -3.9721     2.2808 H       
  37 H37            4.3739    -4.0266     5.5059 H       
  38 H38            4.3554   -10.5428     4.5232 H       
  39 H39            5.8973    -9.7270     4.8769 H       
  40 H40            4.6783    -9.9209     6.1594 H       
  41 H41            7.9773    -4.6329     7.5897 H       
  42 H42            6.6881    -4.7771     8.8090 H       
  43 H43            8.9281    -4.5111     9.8666 H       
  44 H44            8.1949    -6.0831    10.2674 H       
  45 H45           10.2677    -7.9509     7.8947 H       
  46 H46            8.9784    -8.0952     9.1140 H       
  47 H47            8.0276    -8.2170     6.8372 H       
  48 H48            8.7608    -6.6450     6.4363 H       
  49 H49           10.4749    -6.9077    10.7292 H       
  50 H50           11.6956    -6.8353     9.4358 H       
  51 H51           11.1621    -5.3401    10.2408 H       
@<TRIPOS>BOND
   1    1    2 1
   2    1   28 1
   3    1   29 1
   4    2    3 1
   5    2   30 1
   6    2   31 1
   7    3    4 2
   8    3    5 am
   9    5    6 1
  10    5   32 1
  11    6    7 ar
  12    6   11 ar
  13    7    8 ar
  14    7   33 1
  15    8    9 ar
  16    8   34 1
  17    9   10 ar
  18    9   35 1
  19   10   11 ar
  20   10   12 1
  21   11   36 1
  22   12   13 1
  23   13   14 ar
  24   13   18 ar
  25   14   15 ar
  26   14   37 1
  27   15   16 ar
  28   16   17 ar
  29   16   21 1
  30   17   18 ar
  31   18   19 1
  32   19   20 1
  33   20   38 1
  34   20   39 1
  35   20   40 1
  36   21   22 1
  37   21   26 1
  38   22   23 1
  39   22   41 1
  40   22   42 1
  41   23   24 1
  42   23   43 1
  43   23   44 1
  44   24   25 1
  45   24   27 1
  46   25   26 1
  47   25   45 1
  48   25   46 1
  49   26   47 1
  50   26   48 1
  51   27   49 1
  52   27   50 1
  53   27   51 1

#	End of record

