#	Name: ASD05250087
#	Creating user name:	WinNT
#	Creation time:	15. 06. 2019 20:58

#	Modifying user name:	WinNT
#	Modification time:	15. 06. 2019 20:58

#	Program:	/corina/corina34_cracker 3.40 0067  02.08.2006

@<TRIPOS>MOLECULE
ASD05250087
  30   31    0    0    0
SMALL
NO_CHARGES


@<TRIPOS>ATOM
   1 C1            -0.0168     1.3848     0.0097 C.ar    
   2 C2             0.0021    -0.0041     0.0020 C.ar    
   3 C3             1.2118    -0.6866    -0.0127 C.ar    
   4 C4             2.3995     0.0120    -0.0203 C.ar    
   5 C5             2.3856     1.4097    -0.0131 C.ar    
   6 C6             1.1658     2.0921     0.0022 C.ar    
   7 C7             3.6528     2.1614    -0.0207 C.2     
   8 C8             3.6371     3.5041    -0.0137 C.2     
   9 C9             4.9047     4.2559    -0.0213 C.ar    
  10 C10            4.8922     5.6532    -0.0141 C.ar    
  11 C11            6.0824     6.3501    -0.0208 C.ar    
  12 C12            7.2869     5.6689    -0.0350 C.ar    
  13 C13            7.3070     4.2853    -0.0426 C.ar    
  14 C14            6.1249     3.5749    -0.0298 C.ar    
  15 O15           -1.1664    -0.6971     0.0094 O.3     
  16 C16           -1.0748    -2.1232     0.0009 C.3     
  17 H17           -0.9598     1.9112     0.0170 H       
  18 H18            1.2214    -1.7665    -0.0179 H       
  19 H19            3.3395    -0.5196    -0.0314 H       
  20 H20            1.1501     3.1720     0.0074 H       
  21 H21            4.5944     1.6324    -0.0318 H       
  22 H22            2.6956     4.0330    -0.0026 H       
  23 H23            3.9529     6.1862    -0.0038 H       
  24 H24            6.0744     7.4300    -0.0153 H       
  25 H25            8.2157     6.2199    -0.0405 H       
  26 H26            8.2508     3.7603    -0.0544 H       
  27 H27            6.1421     2.4951    -0.0358 H       
  28 H28           -0.5473    -2.4480    -0.8959 H       
  29 H29           -0.5303    -2.4576     0.8839 H       
  30 H30           -2.0771    -2.5516     0.0081 H       
@<TRIPOS>BOND
   1    1    2 ar
   2    1    6 ar
   3    1   17 1
   4    2    3 ar
   5    2   15 1
   6    3    4 ar
   7    3   18 1
   8    4    5 ar
   9    4   19 1
  10    5    6 ar
  11    5    7 1
  12    6   20 1
  13    7    8 2
  14    7   21 1
  15    8    9 1
  16    8   22 1
  17    9   10 ar
  18    9   14 ar
  19   10   11 ar
  20   10   23 1
  21   11   12 ar
  22   11   24 1
  23   12   13 ar
  24   12   25 1
  25   13   14 ar
  26   13   26 1
  27   14   27 1
  28   15   16 1
  29   16   28 1
  30   16   29 1
  31   16   30 1

#	End of record

