#	Name: ASD01814671
#	Creating user name:	WinNT
#	Creation time:	15. 06. 2019 19:32

#	Modifying user name:	WinNT
#	Modification time:	15. 06. 2019 19:32

#	Program:	/corina/corina34_cracker 3.40 0067  02.08.2006

@<TRIPOS>MOLECULE
ASD01814671
  50   53    0    0    0
SMALL
NO_CHARGES


@<TRIPOS>ATOM
   1 C1             1.1619     2.2515    -0.5168 C.ar    
   2 C2             0.7843     0.9175    -0.5012 C.ar    
   3 C3             1.7253    -0.0803    -0.3487 C.ar    
   4 C4             3.0725     0.2480    -0.2081 C.ar    
   5 C5             3.4538     1.6005    -0.2242 C.ar    
   6 C6             2.4904     2.6004    -0.3794 C.ar    
   7 N7             4.0219    -0.7403    -0.0545 N.pl3   
   8 C8             5.3273    -0.4766     0.0845 C.2     
   9 C9             5.8212     0.8122     0.0843 C.2     
  10 C10            4.8813     1.9341    -0.0746 C.2     
  11 F11            2.8568     3.9007    -0.3953 F       
  12 F12            1.3406    -1.3753    -0.3351 F       
  13 O13            5.2675     3.0899    -0.0818 O.2     
  14 C14            7.2614     1.0604     0.2395 C.2     
  15 O15            7.7316     2.3238     0.2376 O.3     
  16 O16            8.0286     0.1265     0.3696 O.2     
  17 C17            3.5836    -2.1382    -0.0425 C.3     
  18 C18            3.4393    -2.6316    -1.4591 C.ar    
  19 C19            4.5219    -2.5803    -2.3217 C.ar    
  20 C20            4.3934    -3.0320    -3.6222 C.ar    
  21 C21            3.1735    -3.5386    -4.0628 C.ar    
  22 C22            2.0885    -3.5875    -3.1900 C.ar    
  23 C23            2.2280    -3.1394    -1.8921 C.ar    
  24 F24            5.7044    -2.0879    -1.8921 F       
  25 C25            3.0293    -4.0247    -5.4583 C.2     
  26 C26            1.8983    -4.5426    -6.0187 C.2     
  27 N27            2.1855    -4.8610    -7.2970 N.pl3   
  28 N28            3.5253    -4.5343    -7.5389 N.2     
  29 C29            4.0334    -4.0295    -6.4459 C.2     
  30 C30            1.2562    -5.4481    -8.2655 C.3     
  31 C31            1.2035    -4.5711    -9.5181 C.3     
  32 C32            0.2330    -5.1844   -10.5295 C.3     
  33 H33            0.4140     3.0206    -0.6415 H       
  34 H34           -0.2581     0.6564    -0.6093 H       
  35 H35            6.0166    -1.2998     0.2011 H       
  36 H36            8.6862     2.4371     0.3428 H       
  37 H37            4.3220    -2.7460     0.4805 H       
  38 H38            2.6236    -2.2136     0.4681 H       
  39 H39            5.2373    -2.9917    -4.2950 H       
  40 H40            1.1405    -3.9796    -3.5276 H       
  41 H41            1.3870    -3.1776    -1.2155 H       
  42 H42            0.9455    -4.6738    -5.5274 H       
  43 H43            5.0483    -3.6822    -6.3200 H       
  44 H44            1.5968    -6.4477    -8.5358 H       
  45 H45            0.2619    -5.5103    -7.8233 H       
  46 H46            0.8630    -3.5716    -9.2477 H       
  47 H47            2.1978    -4.5090    -9.9602 H       
  48 H48            0.1954    -4.5596   -11.4219 H       
  49 H49            0.5736    -6.1839   -10.7999 H       
  50 H50           -0.7613    -5.2465   -10.0874 H       
@<TRIPOS>BOND
   1    1    2 ar
   2    1    6 ar
   3    1   33 1
   4    2    3 ar
   5    2   34 1
   6    3    4 ar
   7    3   12 1
   8    4    5 ar
   9    4    7 1
  10    5    6 ar
  11    5   10 1
  12    6   11 1
  13    7    8 1
  14    7   17 1
  15    8    9 2
  16    8   35 1
  17    9   10 1
  18    9   14 1
  19   10   13 2
  20   14   15 1
  21   14   16 2
  22   15   36 1
  23   17   18 1
  24   17   37 1
  25   17   38 1
  26   18   19 ar
  27   18   23 ar
  28   19   20 ar
  29   19   24 1
  30   20   21 ar
  31   20   39 1
  32   21   22 ar
  33   21   25 1
  34   22   23 ar
  35   22   40 1
  36   23   41 1
  37   25   26 2
  38   25   29 1
  39   26   27 1
  40   26   42 1
  41   27   28 1
  42   27   30 1
  43   28   29 2
  44   29   43 1
  45   30   31 1
  46   30   44 1
  47   30   45 1
  48   31   32 1
  49   31   46 1
  50   31   47 1
  51   32   48 1
  52   32   49 1
  53   32   50 1

#	End of record

