#	Name: ASD03430559
#	Creating user name:	WinNT
#	Creation time:	15. 06. 2019 20:41

#	Modifying user name:	WinNT
#	Modification time:	15. 06. 2019 20:41

#	Program:	/corina/corina34_cracker 3.40 0067  02.08.2006

@<TRIPOS>MOLECULE
ASD03430559
  47   50    0    0    0
SMALL
NO_CHARGES


@<TRIPOS>ATOM
   1 C1             0.0021    -0.0041     0.0020 C.1     
   2 C2            -0.0173     1.4278     0.0099 C.ar    
   3 C3             1.1843     2.1468     0.0023 C.ar    
   4 C4             1.1590     3.5267     0.0100 C.ar    
   5 C5            -0.0554     4.2003     0.0252 C.ar    
   6 C6            -1.2499     3.4894     0.0328 C.ar    
   7 C7            -1.2358     2.1125     0.0194 C.ar    
   8 N8             0.0175    -1.1399    -0.0042 N.1     
   9 N9            -2.7694     6.3869     0.8178 N.am    
  10 C10           -2.6519     5.1254     1.2656 C.2     
  11 C11           -2.5637     4.2275     0.0499 C.3     
  12 C12           -2.6501     5.1819    -1.1188 C.ar    
  13 C13           -2.6292     4.9962    -2.4829 C.ar    
  14 C14           -2.7301     6.0864    -3.3294 C.ar    
  15 C15           -2.8516     7.3587    -2.8010 C.ar    
  16 C16           -2.8727     7.5475    -1.4348 C.ar    
  17 C17           -2.7717     6.4546    -0.5759 C.ar    
  18 O18           -2.6218     4.7726     2.4256 O.2     
  19 C19           -2.8879     7.5562     1.6924 C.3     
  20 C20           -1.5143     8.0929     2.0023 C.ar    
  21 C21           -0.9468     9.0514     1.1831 C.ar    
  22 C22            0.3122     9.5450     1.4650 C.ar    
  23 C23            1.0073     9.0783     2.5712 C.ar    
  24 C24            0.4358     8.1166     3.3916 C.ar    
  25 C25           -0.8259     7.6302     3.1085 C.ar    
  26 O26            2.2463     9.5620     2.8504 O.3     
  27 C27            2.9031     9.0358     4.0052 C.3     
  28 O28           -3.6550     3.3052     0.0284 O.3     
  29 O29           -0.0759     5.5576     0.0332 O.3     
  30 F30            2.3655     1.4913    -0.0121 F       
  31 H31            2.0845     4.0833     0.0045 H       
  32 H32           -2.1651     1.5623     0.0204 H       
  33 H33           -2.5339     4.0012    -2.8917 H       
  34 H34           -2.7137     5.9440    -4.3999 H       
  35 H35           -2.9299     8.2093    -3.4619 H       
  36 H36           -2.9679     8.5442    -1.0299 H       
  37 H37           -3.4746     8.3264     1.1917 H       
  38 H38           -3.3830     7.2677     2.6196 H       
  39 H39           -1.4882     9.4142     0.3219 H       
  40 H40            0.7552    10.2934     0.8246 H       
  41 H41            0.9749     7.7516     4.2533 H       
  42 H42           -1.2732     6.8850     3.7495 H       
  43 H43            2.3018     9.2418     4.8907 H       
  44 H44            3.0276     7.9587     3.8932 H       
  45 H45            3.8809     9.5053     4.1127 H       
  46 H46           -3.6642     2.6894     0.7739 H       
  47 H47           -0.0901     5.9560    -0.8478 H       
@<TRIPOS>BOND
   1    1    2 1
   2    1    8 3
   3    2    3 ar
   4    2    7 ar
   5    3    4 ar
   6    3   30 1
   7    4    5 ar
   8    4   31 1
   9    5    6 ar
  10    5   29 1
  11    6    7 ar
  12    6   11 1
  13    7   32 1
  14    9   10 am
  15    9   17 1
  16    9   19 1
  17   10   11 1
  18   10   18 2
  19   11   12 1
  20   11   28 1
  21   12   13 ar
  22   12   17 ar
  23   13   14 ar
  24   13   33 1
  25   14   15 ar
  26   14   34 1
  27   15   16 ar
  28   15   35 1
  29   16   17 ar
  30   16   36 1
  31   19   20 1
  32   19   37 1
  33   19   38 1
  34   20   21 ar
  35   20   25 ar
  36   21   22 ar
  37   21   39 1
  38   22   23 ar
  39   22   40 1
  40   23   24 ar
  41   23   26 1
  42   24   25 ar
  43   24   41 1
  44   25   42 1
  45   26   27 1
  46   27   43 1
  47   27   44 1
  48   27   45 1
  49   28   46 1
  50   29   47 1

#	End of record

