#	Name: ASD02198307
#	Creating user name:	WinNT
#	Creation time:	15. 06. 2019 20:19

#	Modifying user name:	WinNT
#	Modification time:	15. 06. 2019 20:19

#	Program:	/corina/corina34_cracker 3.40 0067  02.08.2006

@<TRIPOS>MOLECULE
ASD02198307
  40   42    0    0    0
SMALL
NO_CHARGES


@<TRIPOS>ATOM
   1 C1             0.4863     1.5473     0.0820 C.2     
   2 C2             0.6469     0.1750     0.1470 C.2     
   3 S3             2.0693     2.2831     0.3196 S.3     
   4 C4             2.7819     0.7385     0.4796 C.2     
   5 N5             1.8865    -0.1993     0.3599 N.2     
   6 N6            -0.4014    -0.7192     0.0019 N.pl3   
   7 C7            -0.7228     2.2322    -0.1400 C.2     
   8 C8            -0.7655     3.7086    -0.0438 C.ar    
   9 O9            -1.7353     1.6094    -0.4117 O.2     
  10 N10            4.1221     0.5155     0.7043 N.pl3   
  11 C11            4.5851    -0.7828     0.9389 C.ar    
  12 C12            5.8915    -1.1253     0.6086 C.ar    
  13 C13           -1.6974     4.4325    -0.7884 C.ar    
  14 C14            0.1222     4.3819     0.7963 C.ar    
  15 C15            0.0773     5.7582     0.8815 C.ar    
  16 C16           -0.8456     6.4706     0.1366 C.ar    
  17 C17           -1.7320     5.8085    -0.6943 C.ar    
  18 C18            6.3543    -2.4071     0.8389 C.ar    
  19 C19            5.5228    -3.3561     1.3982 C.ar    
  20 C20            4.2090    -3.0226     1.7336 C.ar    
  21 C21            3.7434    -1.7270     1.5060 C.ar    
  22 C22            3.3165    -4.0366     2.3320 C.2     
  23 O23            2.1740    -3.7442     2.6230 O.2     
  24 O24            3.7699    -5.2853     2.5551 O.3     
  25 C25            2.8379    -6.2293     3.1457 C.3     
  26 H26           -1.3008    -0.3911    -0.1537 H       
  27 H27           -0.2358    -1.6735     0.0558 H       
  28 H28            4.7450     1.2591     0.6998 H       
  29 H29            6.5469    -0.3872     0.1703 H       
  30 H30           -2.3898     3.9169    -1.4373 H       
  31 H31            0.8426     3.8268     1.3788 H       
  32 H32            0.7638     6.2805     1.5314 H       
  33 H33           -0.8773     7.5478     0.2073 H       
  34 H34           -2.4499     6.3704    -1.2735 H       
  35 H35            7.3700    -2.6671     0.5799 H       
  36 H36            5.8882    -4.3567     1.5762 H       
  37 H37            2.7282    -1.4630     1.7633 H       
  38 H38            2.5117    -5.8582     4.1173 H       
  39 H39            1.9735    -6.3439     2.4916 H       
  40 H40            3.3289    -7.1943     3.2714 H       
@<TRIPOS>BOND
   1    1    2 2
   2    1    3 1
   3    1    7 1
   4    2    6 1
   5    2    5 1
   6    3    4 1
   7    4    5 2
   8    4   10 1
   9    6   26 1
  10    6   27 1
  11    7    8 1
  12    7    9 2
  13    8   13 ar
  14    8   14 ar
  15   10   11 1
  16   10   28 1
  17   11   12 ar
  18   11   21 ar
  19   12   18 ar
  20   12   29 1
  21   13   17 ar
  22   13   30 1
  23   14   15 ar
  24   14   31 1
  25   15   16 ar
  26   15   32 1
  27   16   17 ar
  28   16   33 1
  29   17   34 1
  30   18   19 ar
  31   18   35 1
  32   19   20 ar
  33   19   36 1
  34   20   21 ar
  35   20   22 1
  36   21   37 1
  37   22   23 2
  38   22   24 1
  39   24   25 1
  40   25   38 1
  41   25   39 1
  42   25   40 1

#	End of record

