#	Name: ASD01940481
#	Creating user name:	WinNT
#	Creation time:	15. 06. 2019 20:12

#	Modifying user name:	WinNT
#	Modification time:	15. 06. 2019 20:12

#	Program:	/corina/corina34_cracker 3.40 0067  02.08.2006

@<TRIPOS>MOLECULE
ASD01940481
  41   43    0    0    0
SMALL
NO_CHARGES


@<TRIPOS>ATOM
   1 S1             1.8835     2.5082     2.7377 S.3     
   2 N2             2.3407     0.9985     3.3599 N.2     
   3 C3             2.9196     0.3305     2.4230 C.2     
   4 C4             3.0590     0.9208     1.1554 C.ar    
   5 C5             2.5133     2.2183     1.1124 C.ar    
   6 C6             2.5453     2.9824    -0.0507 C.ar    
   7 C7             3.1112     2.4854    -1.1849 C.ar    
   8 C8             3.6671     1.1952    -1.1865 C.ar    
   9 C9             3.6465     0.4120    -0.0304 C.ar    
  10 N10            4.1971    -0.8572    -0.0424 N.pl3   
  11 C11            3.3800    -1.9721    -0.2580 C.ar    
  12 C12            3.9447    -3.2384    -0.3738 C.ar    
  13 C13            3.1336    -4.3376    -0.5863 C.ar    
  14 C14            1.7626    -4.1783    -0.6843 C.ar    
  15 C15            1.1994    -2.9204    -0.5695 C.ar    
  16 C16            2.0037    -1.8182    -0.3513 C.ar    
  17 I17            0.5371    -5.8464    -1.0078 I       
  18 F18            5.2834    -3.3936    -0.2790 F       
  19 C19            4.2754     0.6652    -2.4149 C.2     
  20 O20            4.8445    -0.4088    -2.3969 O.2     
  21 O21            4.2021     1.3702    -3.5617 O.3     
  22 C22            4.8252     0.7857    -4.7358 C.3     
  23 C23            4.1727    -0.5642    -5.0407 C.3     
  24 C24            4.6407     1.7228    -5.9310 C.3     
  25 C25            6.3186     0.5824    -4.4728 C.3     
  26 H26            3.2918    -0.6662     2.6086 H       
  27 H27            2.1187     3.9746    -0.0534 H       
  28 H28            3.1325     3.0833    -2.0840 H       
  29 H29            5.1496    -0.9740     0.0987 H       
  30 H30            3.5704    -5.3212    -0.6764 H       
  31 H31            0.1289    -2.7999    -0.6465 H       
  32 H32            1.5620    -0.8371    -0.2574 H       
  33 H33            3.1087    -0.4195    -5.2280 H       
  34 H34            4.6404    -1.0031    -5.9220 H       
  35 H35            4.3041    -1.2319    -4.1892 H       
  36 H36            5.1055     2.6845    -5.7139 H       
  37 H37            5.1084     1.2840    -6.8124 H       
  38 H38            3.5767     1.8676    -6.1184 H       
  39 H39            6.4501    -0.0852    -3.6213 H       
  40 H40            6.7863     0.1436    -5.3542 H       
  41 H41            6.7835     1.5441    -4.2556 H       
@<TRIPOS>BOND
   1    1    2 1
   2    1    5 1
   3    2    3 2
   4    3    4 1
   5    3   26 1
   6    4    5 ar
   7    4    9 ar
   8    5    6 ar
   9    6    7 ar
  10    6   27 1
  11    7    8 ar
  12    7   28 1
  13    8    9 ar
  14    8   19 1
  15    9   10 1
  16   10   11 1
  17   10   29 1
  18   11   12 ar
  19   11   16 ar
  20   12   13 ar
  21   12   18 1
  22   13   14 ar
  23   13   30 1
  24   14   15 ar
  25   14   17 1
  26   15   16 ar
  27   15   31 1
  28   16   32 1
  29   19   20 2
  30   19   21 1
  31   21   22 1
  32   22   23 1
  33   22   25 1
  34   22   24 1
  35   23   33 1
  36   23   34 1
  37   23   35 1
  38   24   36 1
  39   24   37 1
  40   24   38 1
  41   25   39 1
  42   25   40 1
  43   25   41 1

#	End of record

