#	Name: ASD02039356
#	Creating user name:	WinNT
#	Creation time:	15. 06. 2019 20:18

#	Modifying user name:	WinNT
#	Modification time:	15. 06. 2019 20:18

#	Program:	/corina/corina34_cracker 3.40 0067  02.08.2006

@<TRIPOS>MOLECULE
ASD02039356
  51   53    0    0    0
SMALL
NO_CHARGES


@<TRIPOS>ATOM
   1 C1            -0.2111     1.3543     0.3613 C.ar    
   2 C2             0.0576    -0.0024     0.3861 C.ar    
   3 C3            -0.9783    -0.9180     0.4124 C.ar    
   4 C4            -2.5657     0.8874     0.4006 C.ar    
   5 C5            -1.5163     1.8033     0.3683 C.ar    
   6 C6            -3.9701     1.3642     0.4082 C.ar    
   7 C7             0.9242     2.3449     0.3327 C.3     
   8 N8             1.3763     2.5298    -1.0485 N.am    
   9 C9             0.6838     3.4776    -1.9251 C.3     
  10 C10            2.4292     1.8281    -1.5126 C.2     
  11 C11            3.0592     0.7993    -0.6670 C.2     
  12 C12            4.0468    -0.0622    -1.0459 C.2     
  13 N13            2.7668     0.5397     0.6331 N.2     
  14 C14            3.5239    -0.4343     1.0484 C.2     
  15 N15            4.3311    -0.8321     0.0307 N.pl3   
  16 O16            2.8592     2.0442    -2.6296 O.2     
  17 C17            5.3295    -1.9026     0.0878 C.3     
  18 C18           -4.2351     2.7269     0.5029 C.ar    
  19 C19            1.6332     4.6198    -2.2924 C.3     
  20 C20            0.2337     2.7591    -3.1987 C.3     
  21 C21           -2.2900    -0.4810     0.4140 C.ar    
  22 F22           -3.3020    -1.3756     0.4392 F       
  23 N23           -4.9628     0.4874     0.3192 N.ar    
  24 C24           -6.2257     0.8665     0.3218 C.ar    
  25 C25           -6.5663     2.2005     0.4175 C.ar    
  26 C26           -5.5568     3.1575     0.5083 C.ar    
  27 O27           -5.8573     4.4779     0.6037 O.3     
  28 C28           -7.2424     4.8295     0.6062 C.3     
  29 H29            1.0808    -0.3480     0.3846 H       
  30 H30           -0.7625    -1.9761     0.4314 H       
  31 H31           -1.7235     2.8632     0.3581 H       
  32 H32            0.5839     3.2992     0.7345 H       
  33 H33            1.7493     1.9693     0.9379 H       
  34 H34           -0.1870     3.8809    -1.4084 H       
  35 H35            4.5124    -0.1192    -2.0187 H       
  36 H36            3.5141    -0.8561     2.0426 H       
  37 H37            4.8659    -2.8473    -0.1963 H       
  38 H38            6.1444    -1.6765    -0.6000 H       
  39 H39            5.7211    -1.9805     1.1020 H       
  40 H40           -3.4262     3.4392     0.5714 H       
  41 H41            2.4323     4.2380    -2.9278 H       
  42 H42            1.0816     5.3929    -2.8273 H       
  43 H43            2.0621     5.0423    -1.3837 H       
  44 H44           -0.3572     1.8828    -2.9319 H       
  45 H45           -0.3713     3.4351    -3.8028 H       
  46 H46            1.1090     2.4473    -3.7686 H       
  47 H47           -7.0049     0.1224     0.2476 H       
  48 H48           -7.6039     2.5001     0.4184 H       
  49 H49           -7.7051     4.4900    -0.3206 H       
  50 H50           -7.7363     4.3547     1.4540 H       
  51 H51           -7.3423     5.9119     0.6870 H       
@<TRIPOS>BOND
   1    1    2 ar
   2    1    7 1
   3    1    5 ar
   4    2    3 ar
   5    2   29 1
   6    3   21 ar
   7    3   30 1
   8    4    5 ar
   9    4    6 1
  10    4   21 ar
  11    5   31 1
  12    6   18 ar
  13    6   23 ar
  14    7    8 1
  15    7   32 1
  16    7   33 1
  17    8    9 1
  18    8   10 am
  19    9   20 1
  20    9   19 1
  21    9   34 1
  22   10   11 1
  23   10   16 2
  24   11   12 2
  25   11   13 1
  26   12   15 1
  27   12   35 1
  28   13   14 2
  29   14   15 1
  30   14   36 1
  31   15   17 1
  32   17   37 1
  33   17   38 1
  34   17   39 1
  35   18   26 ar
  36   18   40 1
  37   19   41 1
  38   19   42 1
  39   19   43 1
  40   20   44 1
  41   20   45 1
  42   20   46 1
  43   21   22 1
  44   23   24 ar
  45   24   25 ar
  46   24   47 1
  47   25   26 ar
  48   25   48 1
  49   26   27 1
  50   27   28 1
  51   28   49 1
  52   28   50 1
  53   28   51 1

#	End of record

