#	Name: ASD03731173
#	Creating user name:	WinNT
#	Creation time:	15. 06. 2019 20:45

#	Modifying user name:	WinNT
#	Modification time:	15. 06. 2019 20:45

#	Program:	/corina/corina34_cracker 3.40 0067  02.08.2006

@<TRIPOS>MOLECULE
ASD03731173
  57   62    0    0    0
SMALL
NO_CHARGES


@<TRIPOS>ATOM
   1 N1            -0.0162     1.3436     0.0094 N.am    
   2 C2             0.1120     0.0019     0.0204 C.2     
   3 O3             1.2138    -0.5042    -0.0703 O.2     
   4 N4            -0.9810    -0.7786     0.1318 N.am    
   5 C5            -0.8417    -2.2369     0.1437 C.3     
   6 C6            -2.2233    -2.8802     0.2787 C.3     
   7 O7             3.1371    -7.3440     2.0199 O.3     
   8 C8             3.6875    -8.6568     2.2357 C.3     
   9 O9             2.6127    -9.3794     2.8647 O.3     
  10 C10            1.4653    -8.7797     2.4304 C.ar    
  11 C11            1.7883    -7.5277     1.9119 C.ar    
  12 C12            0.1500    -9.2082     2.4345 C.ar    
  13 C13           -0.8580    -8.3953     1.9248 C.ar    
  14 C14           -0.5241    -7.1434     1.4172 C.ar    
  15 C15            0.7872    -6.7158     1.4060 C.ar    
  16 O16           -2.1975    -8.6298     1.8195 O.3     
  17 C17           -1.8122    -6.5024     0.9748 C.3     
  18 C18           -2.8860    -7.3778     1.6353 C.3     
  19 N19           -2.0839    -4.3385     0.2906 N.am    
  20 C20           -1.9126    -5.0689     1.4105 C.2     
  21 C21           -1.9531    -6.4751    -0.5183 C.ar    
  22 C22           -1.9493    -7.4486    -1.4922 C.ar    
  23 C23           -2.1073    -7.0994    -2.8215 C.ar    
  24 C24           -2.2683    -5.7706    -3.1697 C.ar    
  25 C25           -2.2718    -4.7918    -2.1979 C.ar    
  26 C26           -2.1138    -5.1341    -0.8572 C.ar    
  27 O27           -1.8518    -4.6504     2.5473 O.2     
  28 C28            1.1244     2.1558    -0.0217 C.ar    
  29 C29            1.0734     3.4459     0.4896 C.ar    
  30 C30            2.1992     4.2450     0.4583 C.ar    
  31 C31            3.3785     3.7606    -0.0825 C.ar    
  32 C32            3.4315     2.4747    -0.5928 C.ar    
  33 C33            2.3089     1.6703    -0.5586 C.ar    
  34 C34           -0.2098     3.9737     1.0777 C.3     
  35 F35           -0.0139     5.2853     1.5232 F       
  36 F36           -1.2117     3.9575     0.1013 F       
  37 F37           -0.5952     3.1681     2.1546 F       
  38 F38            4.4787     4.5441    -0.1125 F       
  39 H39           -0.8985     1.7465     0.0191 H       
  40 H40           -1.8600    -0.3748     0.2041 H       
  41 H41           -0.3774    -2.5651    -0.7863 H       
  42 H42           -0.2179    -2.5354     0.9863 H       
  43 H43           -2.6875    -2.5520     1.2087 H       
  44 H44           -2.8470    -2.5817    -0.5639 H       
  45 H45            3.9563    -9.1201     1.2863 H       
  46 H46            4.5528    -8.6055     2.8965 H       
  47 H47           -0.0963   -10.1800     2.8360 H       
  48 H48            1.0337    -5.7450     1.0019 H       
  49 H49           -3.7445    -7.5015     0.9752 H       
  50 H50           -3.1909    -6.9589     2.5943 H       
  51 H51           -1.8232    -8.4856    -1.2180 H       
  52 H52           -2.1053    -7.8627    -3.5856 H       
  53 H53           -2.3915    -5.4981    -4.2075 H       
  54 H54           -2.3975    -3.7563    -2.4777 H       
  55 H55            2.1598     5.2485     0.8556 H       
  56 H56            4.3521     2.0988    -1.0141 H       
  57 H57            2.3518     0.6657    -0.9527 H       
@<TRIPOS>BOND
   1    1    2 am
   2    1   28 1
   3    1   39 1
   4    2    3 2
   5    2    4 am
   6    4    5 1
   7    4   40 1
   8    5    6 1
   9    5   41 1
  10    5   42 1
  11    6   19 1
  12    6   43 1
  13    6   44 1
  14    7    8 1
  15    7   11 1
  16    8    9 1
  17    8   45 1
  18    8   46 1
  19    9   10 1
  20   10   11 ar
  21   10   12 ar
  22   11   15 ar
  23   12   13 ar
  24   12   47 1
  25   13   14 ar
  26   13   16 1
  27   14   15 ar
  28   14   17 1
  29   15   48 1
  30   16   18 1
  31   17   18 1
  32   17   20 1
  33   17   21 1
  34   18   49 1
  35   18   50 1
  36   19   20 am
  37   19   26 1
  38   20   27 2
  39   21   22 ar
  40   21   26 ar
  41   22   23 ar
  42   22   51 1
  43   23   24 ar
  44   23   52 1
  45   24   25 ar
  46   24   53 1
  47   25   26 ar
  48   25   54 1
  49   28   29 ar
  50   28   33 ar
  51   29   30 ar
  52   29   34 1
  53   30   31 ar
  54   30   55 1
  55   31   32 ar
  56   31   38 1
  57   32   33 ar
  58   32   56 1
  59   33   57 1
  60   34   35 1
  61   34   36 1
  62   34   37 1

#	End of record

