#	Name: ASD01911870
#	Creating user name:	WinNT
#	Creation time:	15. 06. 2019 19:58

#	Modifying user name:	WinNT
#	Modification time:	15. 06. 2019 19:58

#	Program:	/corina/corina34_cracker 3.40 0067  02.08.2006

@<TRIPOS>MOLECULE
ASD01911870
  35   37    0    0    0
SMALL
NO_CHARGES


@<TRIPOS>ATOM
   1 C1            -1.1006    -1.0211     2.6669 C.ar    
   2 C2            -1.1756    -0.2016     1.5453 C.ar    
   3 C3            -1.3338     1.1671     1.7382 C.ar    
   4 N4            -1.4068     1.6372     2.9725 N.ar    
   5 C5            -1.3316     0.8280     4.0100 C.ar    
   6 N6            -1.1818    -0.4737     3.8685 N.ar    
   7 O7            -1.0959    -0.7245     0.2934 O.3     
   8 C8            -0.9394    -2.0688     0.1723 C.ar    
   9 C9             0.3066    -2.5981    -0.1356 C.ar    
  10 C10            0.4673    -3.9648    -0.2591 C.ar    
  11 C11           -0.6110    -4.8091    -0.0766 C.ar    
  12 C12           -1.8602    -4.2853     0.2311 C.ar    
  13 C13           -2.0223    -2.9129     0.3617 C.ar    
  14 N14           -2.9518    -5.1399     0.4149 N.am    
  15 C15           -4.1900    -4.7353     0.0691 C.2     
  16 C16           -5.3565    -5.5957     0.3588 C.ar    
  17 O17           -4.3475    -3.6629    -0.4812 O.2     
  18 C18           -6.6401    -5.1796     0.0019 C.ar    
  19 C19           -7.7251    -5.9873     0.2746 C.ar    
  20 C20           -7.5435    -7.2072     0.9008 C.ar    
  21 C21           -6.2728    -7.6266     1.2578 C.ar    
  22 C22           -5.1784    -6.8304     0.9854 C.ar    
  23 Cl23          -6.0552    -9.1591     2.0438 Cl      
  24 H24           -0.9823    -2.0890     2.5583 H       
  25 H25           -1.3958     1.8360     0.8926 H       
  26 H26           -1.3942     1.2436     5.0049 H       
  27 H27            1.1513    -1.9406    -0.2792 H       
  28 H28            1.4376    -4.3739    -0.4990 H       
  29 H29           -0.4826    -5.8771    -0.1737 H       
  30 H30           -2.9924    -2.5030     0.6013 H       
  31 H31           -2.8178    -6.0238     0.7913 H       
  32 H32           -6.7838    -4.2271    -0.4864 H       
  33 H33           -8.7186    -5.6660    -0.0013 H       
  34 H34           -8.3963    -7.8351     1.1125 H       
  35 H35           -4.1878    -7.1581     1.2640 H       
@<TRIPOS>BOND
   1    1    2 ar
   2    1    6 ar
   3    1   24 1
   4    2    3 ar
   5    2    7 1
   6    3    4 ar
   7    3   25 1
   8    4    5 ar
   9    5    6 ar
  10    5   26 1
  11    7    8 1
  12    8    9 ar
  13    8   13 ar
  14    9   10 ar
  15    9   27 1
  16   10   11 ar
  17   10   28 1
  18   11   12 ar
  19   11   29 1
  20   12   13 ar
  21   12   14 1
  22   13   30 1
  23   14   15 am
  24   14   31 1
  25   15   16 1
  26   15   17 2
  27   16   18 ar
  28   16   22 ar
  29   18   19 ar
  30   18   32 1
  31   19   20 ar
  32   19   33 1
  33   20   21 ar
  34   20   34 1
  35   21   22 ar
  36   21   23 1
  37   22   35 1

#	End of record

