#	Name: ASD09116388
#	Creating user name:	WinNT
#	Creation time:	15. 06. 2019 21:21

#	Modifying user name:	WinNT
#	Modification time:	15. 06. 2019 21:21

#	Program:	/corina/corina34_cracker 3.40 0067  02.08.2006

@<TRIPOS>MOLECULE
ASD09116388
  82   88    0    0    0
SMALL
NO_CHARGES


@<TRIPOS>ATOM
   1 N1            -0.0589     1.5273    -0.5284 N.2     
   2 N2            -0.0821     0.2484    -1.1078 N.pl3   
   3 C3             1.1949     1.9110    -0.4978 C.2     
   4 N4             1.9590     0.9469    -1.0244 N.2     
   5 C5             1.2030    -0.0635    -1.3974 C.2     
   6 N6             1.6432    -1.2362    -1.9809 N.pl3   
   7 C7            -1.2076    -0.5446    -1.3390 C.ar    
   8 N8             1.6572     3.1282     0.0023 N.pl3   
   9 C9             3.0333     3.3746     0.0833 C.ar    
  10 C10            3.5139     4.6733    -0.0243 C.ar    
  11 C11            3.9170     2.3211     0.2769 C.ar    
  12 C12            5.2741     2.5641     0.3573 C.ar    
  13 C13            5.7548     3.8619     0.2449 C.ar    
  14 C14            4.8706     4.9162     0.0561 C.ar    
  15 N15           -1.1864    -1.4621    -2.2942 N.ar    
  16 N16           -2.1982    -2.2113    -2.5539 N.ar    
  17 C17           -3.3304    -2.1075    -1.8766 C.ar    
  18 C18           -3.4380    -1.1808    -0.8357 C.ar    
  19 C19           -2.3543    -0.3744    -0.5591 C.ar    
  20 C20           -4.5154    -2.9317    -2.2093 C.ar    
  21 C21           -5.7516    -2.3030    -2.3672 C.ar    
  22 C22           -5.8380    -0.8058    -2.2514 C.3     
  23 C23           -5.7904    -0.3564    -0.7936 C.3     
  24 C24           -4.7030    -1.1085    -0.0309 C.3     
  25 C25           -4.4116    -4.3101    -2.3602 C.ar    
  26 C26           -5.5400    -5.0533    -2.6479 C.ar    
  27 C27           -6.7669    -4.4290    -2.7825 C.ar    
  28 C28           -6.8729    -3.0561    -2.6419 C.ar    
  29 N29            7.1303     4.1082     0.3268 N.3     
  30 C30            5.3924     6.3247    -0.0659 C.3     
  31 C31            7.6677     3.6675     1.6204 C.3     
  32 C32            9.1365     4.0825     1.7321 C.3     
  33 C33            9.9296     3.4484     0.5860 C.3     
  34 C34            9.3196     3.8848    -0.7489 C.3     
  35 C35            7.8456     3.4755    -0.7887 C.3     
  36 N36           11.3290     3.8901     0.6541 N.3     
  37 C37           12.1462     3.2087    -0.3595 C.3     
  38 C38           13.5757     3.7531    -0.3086 C.3     
  39 N39           14.1289     3.5447     1.0368 N.3     
  40 C40           13.3116     4.2261     2.0505 C.3     
  41 C41           11.8821     3.6817     1.9996 C.3     
  42 C42           15.5282     3.9864     1.1049 C.3     
  43 H43            2.5892    -1.3686    -2.1497 H       
  44 H44            1.0062    -1.9270    -2.2218 H       
  45 H45            1.0255     3.8041     0.2940 H       
  46 H46            2.8263     5.4931    -0.1711 H       
  47 H47            3.5430     1.3118     0.3650 H       
  48 H48            5.9614     1.7448     0.5079 H       
  49 H49           -2.3930     0.3663     0.2259 H       
  50 H50           -5.0030    -0.3578    -2.7901 H       
  51 H51           -6.7724    -0.4670    -2.6988 H       
  52 H52           -5.5822     0.7128    -0.7543 H       
  53 H53           -6.7560    -0.5507    -0.3266 H       
  54 H54           -5.0495    -2.1194     0.1837 H       
  55 H55           -4.5015    -0.5926     0.9079 H       
  56 H56           -3.4536    -4.7971    -2.2534 H       
  57 H57           -5.4640    -6.1239    -2.7682 H       
  58 H58           -7.6471    -5.0161    -2.9990 H       
  59 H59           -7.8341    -2.5750    -2.7471 H       
  60 H60            5.5961     6.5473    -1.1133 H       
  61 H61            4.6471     7.0226     0.3156 H       
  62 H62            6.3114     6.4230     0.5118 H       
  63 H63            7.0976     4.1289     2.4267 H       
  64 H64            7.5901     2.5829     1.6954 H       
  65 H65            9.2136     5.1681     1.6710 H       
  66 H66            9.5395     3.7416     2.6858 H       
  67 H67            9.8849     2.3625     0.6693 H       
  68 H68            9.3996     4.9672    -0.8490 H       
  69 H69            9.8534     3.4026    -1.5678 H       
  70 H70            7.7671     2.3918    -0.7025 H       
  71 H71            7.4046     3.7975    -1.7321 H       
  72 H72           12.1575     2.1377    -0.1576 H       
  73 H73           11.7237     3.3883    -1.3481 H       
  74 H74           14.1908     3.2287    -1.0399 H       
  75 H75           13.5674     4.8188    -0.5373 H       
  76 H76           13.7342     4.0465     3.0391 H       
  77 H77           13.3003     5.2972     1.8485 H       
  78 H78           11.2670     4.2061     2.7309 H       
  79 H79           11.8904     2.6160     2.2283 H       
  80 H80           15.5864     5.0478     0.8637 H       
  81 H81           15.9129     3.8210     2.1113 H       
  82 H82           16.1238     3.4183     0.3903 H       
@<TRIPOS>BOND
   1    1    2 1
   2    1    3 2
   3    2    7 1
   4    2    5 1
   5    3    4 1
   6    3    8 1
   7    4    5 2
   8    5    6 1
   9    6   43 1
  10    6   44 1
  11    7   15 ar
  12    7   19 ar
  13    8    9 1
  14    8   45 1
  15    9   10 ar
  16    9   11 ar
  17   10   14 ar
  18   10   46 1
  19   11   12 ar
  20   11   47 1
  21   12   13 ar
  22   12   48 1
  23   13   14 ar
  24   13   29 1
  25   14   30 1
  26   15   16 ar
  27   16   17 ar
  28   17   18 ar
  29   17   20 1
  30   18   19 ar
  31   18   24 1
  32   19   49 1
  33   20   21 ar
  34   20   25 ar
  35   21   22 1
  36   21   28 ar
  37   22   23 1
  38   22   50 1
  39   22   51 1
  40   23   24 1
  41   23   52 1
  42   23   53 1
  43   24   54 1
  44   24   55 1
  45   25   26 ar
  46   25   56 1
  47   26   27 ar
  48   26   57 1
  49   27   28 ar
  50   27   58 1
  51   28   59 1
  52   29   31 1
  53   29   35 1
  54   30   60 1
  55   30   61 1
  56   30   62 1
  57   31   32 1
  58   31   63 1
  59   31   64 1
  60   32   33 1
  61   32   65 1
  62   32   66 1
  63   33   34 1
  64   33   36 1
  65   33   67 1
  66   34   35 1
  67   34   68 1
  68   34   69 1
  69   35   70 1
  70   35   71 1
  71   36   37 1
  72   36   41 1
  73   37   38 1
  74   37   72 1
  75   37   73 1
  76   38   39 1
  77   38   74 1
  78   38   75 1
  79   39   40 1
  80   39   42 1
  81   40   41 1
  82   40   76 1
  83   40   77 1
  84   41   78 1
  85   41   79 1
  86   42   80 1
  87   42   81 1
  88   42   82 1

#	End of record

