#	Name: ASD08178055
#	Creating user name:	WinNT
#	Creation time:	15. 06. 2019 21:18

#	Modifying user name:	WinNT
#	Modification time:	15. 06. 2019 21:18

#	Program:	/corina/corina34_cracker 3.40 0067  02.08.2006

@<TRIPOS>MOLECULE
ASD08178055
  62   67    0    0    0
SMALL
NO_CHARGES


@<TRIPOS>ATOM
   1 N1            -0.0150     1.2583     0.0090 N.2     
   2 N2             0.0021    -0.0041     0.0020 N.2     
   3 C3             1.1271     1.8769     0.0014 C.2     
   4 S4             2.3826     0.7116    -0.0169 S.3     
   5 C5             1.1681    -0.5677    -0.0121 C.2     
   6 N6             1.3017     3.2566     0.0067 N.am    
   7 C7             0.2284     4.0717     0.0214 C.2     
   8 O8            -0.8897     3.6019     0.0299 O.2     
   9 C9             1.4387    -2.0502    -0.0227 C.3     
  10 C10            1.5165    -2.5442    -1.4687 C.3     
  11 C11            1.7912    -4.0493    -1.4794 C.3     
  12 C12            1.8690    -4.5432    -2.9254 C.3     
  13 C13            2.1395    -6.0257    -2.9359 C.2     
  14 N14            1.2478    -6.9651    -2.9329 N.2     
  15 S15            3.7275    -6.7933    -2.9623 S.3     
  16 C16            2.9647    -8.3272    -2.9581 C.2     
  17 N17            1.6777    -8.1521    -2.9433 N.2     
  18 N18            3.6154    -9.5562    -2.9730 N.am    
  19 C19            2.8993   -10.6980    -2.9678 C.2     
  20 O20            1.6874   -10.6536    -2.9501 O.2     
  21 C21            3.6044   -12.0297    -2.9839 C.3     
  22 O22            2.6582   -13.1082    -2.8919 O.3     
  23 C23            3.1102   -14.1661    -3.6196 C.ar    
  24 C24            4.0775   -13.7712    -4.5345 C.ar    
  25 C25            4.2749   -12.2783    -4.3558 C.3     
  26 C26            2.7453   -15.5092    -3.5643 C.ar    
  27 C27            3.3343   -16.4246    -4.4114 C.ar    
  28 C28            4.2919   -16.0182    -5.3225 C.ar    
  29 C29            4.6624   -14.6865    -5.3816 C.ar    
  30 C30            0.4176     5.5667     0.0272 C.3     
  31 C31            1.0801     6.0404    -1.2882 C.3     
  32 C32            0.3871     7.3679    -1.5273 C.ar    
  33 C33           -0.7369     7.3925    -0.7119 C.ar    
  34 O34           -0.8520     6.2409     0.0048 O.3     
  35 C35            0.6858     8.4326    -2.3485 C.ar    
  36 C36           -0.1349     9.5462    -2.3627 C.ar    
  37 C37           -1.2537     9.5850    -1.5509 C.ar    
  38 C38           -1.5567     8.5185    -0.7303 C.ar    
  39 H39            2.1959     3.6323    -0.0001 H       
  40 H40            2.3843    -2.2506     0.4811 H       
  41 H41            0.6334    -2.5702     0.4961 H       
  42 H42            0.5709    -2.3438    -1.9724 H       
  43 H43            2.3218    -2.0242    -1.9874 H       
  44 H44            2.7368    -4.2496    -0.9756 H       
  45 H45            0.9858    -4.5693    -0.9606 H       
  46 H46            0.9234    -4.3429    -3.4291 H       
  47 H47            2.6743    -4.0232    -3.4441 H       
  48 H48            4.5846    -9.5917    -2.9871 H       
  49 H49            4.3356   -12.0877    -2.1775 H       
  50 H50            3.7680   -11.7213    -5.1438 H       
  51 H51            5.3349   -12.0266    -4.3228 H       
  52 H52            1.9987   -15.8352    -2.8552 H       
  53 H53            3.0464   -17.4644    -4.3626 H       
  54 H54            4.7492   -16.7378    -5.9854 H       
  55 H55            5.4101   -14.3648    -6.0913 H       
  56 H56            1.0073     5.8765     0.8899 H       
  57 H57            2.1531     6.1794    -1.1560 H       
  58 H58            0.8763     5.3427    -2.1004 H       
  59 H59            1.5607     8.3982    -2.9807 H       
  60 H60            0.0975    10.3825    -3.0054 H       
  61 H61           -1.8938    10.4548    -1.5596 H       
  62 H62           -2.4326     8.5567    -0.0997 H       
@<TRIPOS>BOND
   1    1    2 1
   2    1    3 2
   3    2    5 2
   4    3    4 1
   5    3    6 1
   6    4    5 1
   7    5    9 1
   8    6    7 am
   9    6   39 1
  10    7    8 2
  11    7   30 1
  12    9   10 1
  13    9   40 1
  14    9   41 1
  15   10   11 1
  16   10   42 1
  17   10   43 1
  18   11   12 1
  19   11   44 1
  20   11   45 1
  21   12   13 1
  22   12   46 1
  23   12   47 1
  24   13   14 2
  25   13   15 1
  26   14   17 1
  27   15   16 1
  28   16   17 2
  29   16   18 1
  30   18   19 am
  31   18   48 1
  32   19   20 2
  33   19   21 1
  34   21   22 1
  35   21   25 1
  36   21   49 1
  37   22   23 1
  38   23   24 ar
  39   23   26 ar
  40   24   25 1
  41   24   29 ar
  42   25   50 1
  43   25   51 1
  44   26   27 ar
  45   26   52 1
  46   27   28 ar
  47   27   53 1
  48   28   29 ar
  49   28   54 1
  50   29   55 1
  51   30   31 1
  52   30   34 1
  53   30   56 1
  54   31   32 1
  55   31   57 1
  56   31   58 1
  57   32   33 ar
  58   32   35 ar
  59   33   34 1
  60   33   38 ar
  61   35   36 ar
  62   35   59 1
  63   36   37 ar
  64   36   60 1
  65   37   38 ar
  66   37   61 1
  67   38   62 1

#	End of record

