#	Name: ASD03091130
#	Creating user name:	WinNT
#	Creation time:	15. 06. 2019 20:30

#	Modifying user name:	WinNT
#	Modification time:	15. 06. 2019 20:30

#	Program:	/corina/corina34_cracker 3.40 0067  02.08.2006

@<TRIPOS>MOLECULE
ASD03091130
  42   44    0    0    0
SMALL
NO_CHARGES


@<TRIPOS>ATOM
   1 C1             0.4191     1.4334    -0.2446 C.2     
   2 C2             0.2148    -0.0224    -0.1217 C.ar    
   3 C3             0.8280    -0.7307     0.9162 C.ar    
   4 C4             0.6351    -2.0884     1.0284 C.ar    
   5 C5            -0.1694    -2.7571     0.1094 C.ar    
   6 C6            -0.7808    -2.0548    -0.9252 C.ar    
   7 C7            -0.5968    -0.6956    -1.0392 C.ar    
   8 O8             1.5423     1.8810    -0.3735 O.2     
   9 N9            -0.6397     2.2669    -0.2195 N.am    
  10 N10            1.6841    -0.0208     1.8929 N.pl3   
  11 O11            2.3133    -0.6520     2.7231 O.2     
  12 O12            1.7593     1.1946     1.8665 O.2     
  13 C13           -0.4368     3.7127    -0.3415 C.3     
  14 N14           -0.9818    -6.6859     1.5852 N.3     
  15 C15            0.3898    -6.1979     1.3757 C.3     
  16 C16            0.4197    -4.6779     1.3400 C.3     
  17 N17           -0.3619    -4.1293     0.2253 N.3     
  18 C18           -1.7873    -4.4494     0.3851 C.3     
  19 C19           -2.1341    -5.7214    -0.3741 C.3     
  20 C20           -1.6138    -6.9797     0.2910 C.3     
  21 C21           -1.8202    -5.8871     2.4532 C.3     
  22 C22           -2.1192    -4.5182     1.8646 C.3     
  23 H23            1.1084    -2.6361     1.8299 H       
  24 H24           -1.4039    -2.5764    -1.6367 H       
  25 H25           -1.0751    -0.1506    -1.8395 H       
  26 H26           -1.5360     1.9096    -0.1206 H       
  27 H27           -1.4009     4.2196    -0.3003 H       
  28 H28            0.1925     4.0617     0.4772 H       
  29 H29            0.0489     3.9324    -1.2923 H       
  30 H30            1.0245    -6.5505     2.1887 H       
  31 H31            0.7689    -6.5868     0.4306 H       
  32 H32            0.0153    -4.2947     2.2769 H       
  33 H33            1.4537    -4.3473     1.2425 H       
  34 H34           -2.3666    -3.6312    -0.0427 H       
  35 H35           -3.2184    -5.7935    -0.4584 H       
  36 H36           -1.7118    -5.6560    -1.3768 H       
  37 H37           -0.8812    -7.4515    -0.3638 H       
  38 H38           -2.4440    -7.6683     0.4485 H       
  39 H39           -2.7601    -6.4135     2.6192 H       
  40 H40           -1.3157    -5.7577     3.4107 H       
  41 H41           -1.5317    -3.7686     2.3947 H       
  42 H42           -3.1779    -4.2975     2.0008 H       
@<TRIPOS>BOND
   1    1    2 1
   2    1    8 2
   3    1    9 am
   4    2    3 ar
   5    2    7 ar
   6    3    4 ar
   7    3   10 1
   8    4    5 ar
   9    4   23 1
  10    5    6 ar
  11    5   17 1
  12    6    7 ar
  13    6   24 1
  14    7   25 1
  15    9   13 1
  16    9   26 1
  17   10   11 2
  18   10   12 2
  19   13   27 1
  20   13   28 1
  21   13   29 1
  22   14   15 1
  23   14   20 1
  24   14   21 1
  25   15   16 1
  26   15   30 1
  27   15   31 1
  28   16   17 1
  29   16   32 1
  30   16   33 1
  31   17   18 1
  32   18   19 1
  33   18   22 1
  34   18   34 1
  35   19   20 1
  36   19   35 1
  37   19   36 1
  38   20   37 1
  39   20   38 1
  40   21   22 1
  41   21   39 1
  42   21   40 1
  43   22   41 1
  44   22   42 1

#	End of record

