#	Name: ASD01948137
#	Creating user name:	WinNT
#	Creation time:	15. 06. 2019 20:13

#	Modifying user name:	WinNT
#	Modification time:	15. 06. 2019 20:13

#	Program:	/corina/corina34_cracker 3.40 0067  02.08.2006

@<TRIPOS>MOLECULE
ASD01948137
  51   53    0    0    0
SMALL
NO_CHARGES


@<TRIPOS>ATOM
   1 C1             1.9128     1.8167    -0.9638 C.ar    
   2 C2             1.7181     0.4395    -0.9357 C.ar    
   3 C3             1.8626    -0.3052    -2.0978 C.ar    
   4 C4             2.2002     0.3206    -3.2822 C.ar    
   5 C5             2.3947     1.6950    -3.3113 C.ar    
   6 C6             2.2449     2.4427    -2.1503 C.ar    
   7 N7             1.3765    -0.1957     0.2659 N.pl3   
   8 C8             3.7800    -1.8189    -0.0820 C.2     
   9 C9             2.5066    -2.3955     0.1508 C.2     
  10 C10            1.3094    -1.5749     0.3237 C.2     
  11 N11            4.8341    -2.6524    -0.2358 N.am    
  12 F12            1.7718     2.5424     0.1670 F       
  13 C13            2.3965    -3.7914     0.2167 C.2     
  14 N14            1.1762    -4.3647     0.4410 N.am    
  15 C15            0.0694    -3.6203     0.6013 C.2     
  16 C16            0.1045    -2.2229     0.5478 C.2     
  17 C17            4.6608    -3.9933    -0.1667 C.2     
  18 N18            3.4971    -4.5397     0.0580 N.2     
  19 O19            3.9200    -0.6103    -0.1466 O.2     
  20 C20            1.0728    -5.8245     0.5080 C.3     
  21 O21           -0.9975    -4.1793     0.7989 O.2     
  22 N22            2.7366     2.3278    -4.5116 N.am    
  23 C23            6.1697    -2.1015    -0.4788 C.3     
  24 C24            6.8757    -1.8671     0.8581 C.3     
  25 C25            8.2189    -1.1772     0.6115 C.3     
  26 O26            7.0963    -3.1212     1.5066 O.3     
  27 O27            8.8253    -0.8535     1.8644 O.3     
  28 S28            1.5881     2.5594    -5.6819 S.o2    
  29 C29            0.3860     3.6841    -4.9200 C.3     
  30 O30            2.2859     3.2131    -6.7331 O.2     
  31 O31            1.0163     1.2724    -5.8714 O.2     
  32 F32           -1.0300    -1.5084     0.7138 F       
  33 H33            1.7114    -1.3743    -2.0761 H       
  34 H34            2.3131    -0.2598    -4.1861 H       
  35 H35            2.3959     3.5119    -2.1731 H       
  36 H36            1.1872     0.3327     1.0570 H       
  37 H37            5.5201    -4.6352    -0.2931 H       
  38 H38            1.2171    -6.1520     1.5376 H       
  39 H39            0.0867    -6.1351     0.1627 H       
  40 H40            1.8377    -6.2724    -0.1264 H       
  41 H41            3.6464     2.6307    -4.6581 H       
  42 H42            6.7492    -2.8043    -1.0774 H       
  43 H43            6.0809    -1.1558    -1.0135 H       
  44 H44            6.2535    -1.2350     1.4917 H       
  45 H45            8.8737    -1.8460     0.0530 H       
  46 H46            8.0585    -0.2638     0.0387 H       
  47 H47            7.6437    -3.7357     0.9988 H       
  48 H48            9.6822    -0.4127     1.7843 H       
  49 H49            0.8604     4.6462    -4.7265 H       
  50 H50           -0.4585     3.8246    -5.5947 H       
  51 H51            0.0336     3.2574    -3.9809 H       
@<TRIPOS>BOND
   1    1    2 ar
   2    1   12 1
   3    1    6 ar
   4    2    3 ar
   5    2    7 1
   6    3    4 ar
   7    3   33 1
   8    4    5 ar
   9    4   34 1
  10    5    6 ar
  11    5   22 1
  12    6   35 1
  13    7   10 1
  14    7   36 1
  15    8    9 1
  16    8   19 2
  17    8   11 am
  18    9   10 1
  19    9   13 2
  20   10   16 2
  21   11   17 1
  22   11   23 1
  23   13   14 1
  24   13   18 1
  25   14   15 am
  26   14   20 1
  27   15   16 1
  28   15   21 2
  29   16   32 1
  30   17   18 2
  31   17   37 1
  32   20   38 1
  33   20   39 1
  34   20   40 1
  35   22   28 am
  36   22   41 1
  37   23   24 1
  38   23   42 1
  39   23   43 1
  40   24   25 1
  41   24   26 1
  42   24   44 1
  43   25   27 1
  44   25   45 1
  45   25   46 1
  46   26   47 1
  47   27   48 1
  48   28   29 1
  49   28   30 2
  50   28   31 2
  51   29   49 1
  52   29   50 1
  53   29   51 1

#	End of record

