#	Name: ASD01180231
#	Creating user name:	WinNT
#	Creation time:	15. 06. 2019 19:07

#	Modifying user name:	WinNT
#	Modification time:	15. 06. 2019 19:07

#	Program:	/corina/corina34_cracker 3.40 0067  02.08.2006

@<TRIPOS>MOLECULE
ASD01180231
  63   65    0    0    0
SMALL
NO_CHARGES


@<TRIPOS>ATOM
   1 C1             1.0962     2.0417     0.0116 C.2     
   2 N2             2.2335    -1.5515    -0.0030 N.am    
   3 C3             2.3582    -0.0923    -0.0389 C.3     
   4 C4             0.9680     0.5407     0.0485 C.3     
   5 O5             2.1876     2.5529    -0.0756 O.2     
   6 O6            -0.0023     2.8108     0.0701 O.3     
   7 C7             3.3362    -2.3238    -0.0673 C.2     
   8 O8             4.4344    -1.8095    -0.1551 O.2     
   9 C9             1.9547    -4.3945     0.0694 C.ar    
  10 C10            3.2106    -3.7935    -0.0312 C.ar    
  11 C11            4.3518    -4.6070    -0.0980 C.ar    
  12 C12            4.1883    -5.9657    -0.0617 C.ar    
  13 C13            2.9041    -6.4973     0.0397 C.ar    
  14 N14            1.8417    -5.7058     0.1013 N.ar    
  15 N15            2.7349    -7.8710     0.0763 N.pl3   
  16 C16            3.8875    -8.7562    -0.1086 C.3     
  17 C17            4.5749    -8.9867     1.2388 C.3     
  18 C18            5.8421    -9.8180     1.0292 C.3     
  19 C19            6.8528    -9.0102     0.2126 C.3     
  20 C20            3.4226   -10.0762    -0.6676 C.ar    
  21 C21            4.1699   -10.7135    -1.6417 C.ar    
  22 C22            3.7490   -11.9226    -2.1572 C.ar    
  23 C23            2.5686   -12.5012    -1.6946 C.ar    
  24 C24            1.8197   -11.8546    -0.7132 C.ar    
  25 C25            2.2532   -10.6487    -0.2008 C.ar    
  26 C26            2.1107   -13.8003    -2.2453 C.ar    
  27 C27            0.9292   -14.3714    -1.7768 C.ar    
  28 C28            0.5148   -15.5838    -2.3001 C.ar    
  29 C29            1.2966   -16.1861    -3.2759 C.ar    
  30 C30            2.4577   -15.5632    -3.6944 C.ar    
  31 N31            2.8266   -14.4061    -3.1835 N.ar    
  32 C32            0.8840   -17.5067    -3.8733 C.3     
  33 F33            0.0777   -17.2801    -4.9939 F       
  34 F34            2.0238   -18.2219    -4.2559 F       
  35 F35            0.1674   -18.2441    -2.9246 F       
  36 C36            6.4505   -10.1716     2.3878 C.3     
  37 H37            1.3574    -1.9619     0.0670 H       
  38 H38            2.9630     0.2415     0.8042 H       
  39 H39            2.8365     0.2087    -0.9709 H       
  40 H40            0.4897     0.2397     0.9806 H       
  41 H41            0.3631     0.2068    -0.7946 H       
  42 H42            0.1302     3.7683     0.0432 H       
  43 H43            1.0691    -3.7789     0.1260 H       
  44 H44            5.3369    -4.1713    -0.1766 H       
  45 H45            5.0465    -6.6195    -0.1115 H       
  46 H46            1.8532    -8.2474     0.2243 H       
  47 H47            4.5917    -8.2959    -0.8017 H       
  48 H48            4.8395    -8.0260     1.6807 H       
  49 H49            3.8972    -9.5192     1.9060 H       
  50 H50            5.5915   -10.7338     0.4939 H       
  51 H51            7.1223    -8.1065     0.7593 H       
  52 H52            7.7457    -9.6116     0.0421 H       
  53 H53            6.4103    -8.7369    -0.7454 H       
  54 H54            5.0844   -10.2640    -1.9996 H       
  55 H55            4.3330   -12.4191    -2.9179 H       
  56 H56            0.9042   -12.2986    -0.3511 H       
  57 H57            1.6761   -10.1490     0.5633 H       
  58 H58            0.3453   -13.8752    -1.0159 H       
  59 H59           -0.3963   -16.0510    -1.9565 H       
  60 H60            3.0683   -16.0292    -4.4537 H       
  61 H61            5.7305   -10.7471     2.9696 H       
  62 H62            7.3533   -10.7639     2.2385 H       
  63 H63            6.7011    -9.2558     2.9231 H       
@<TRIPOS>BOND
   1    1    4 1
   2    1    5 2
   3    1    6 1
   4    2    3 1
   5    2    7 am
   6    2   37 1
   7    3    4 1
   8    3   38 1
   9    3   39 1
  10    4   40 1
  11    4   41 1
  12    6   42 1
  13    7    8 2
  14    7   10 1
  15    9   10 ar
  16    9   14 ar
  17    9   43 1
  18   10   11 ar
  19   11   12 ar
  20   11   44 1
  21   12   13 ar
  22   12   45 1
  23   13   14 ar
  24   13   15 1
  25   15   16 1
  26   15   46 1
  27   16   17 1
  28   16   20 1
  29   16   47 1
  30   17   18 1
  31   17   48 1
  32   17   49 1
  33   18   19 1
  34   18   36 1
  35   18   50 1
  36   19   51 1
  37   19   52 1
  38   19   53 1
  39   20   21 ar
  40   20   25 ar
  41   21   22 ar
  42   21   54 1
  43   22   23 ar
  44   22   55 1
  45   23   24 ar
  46   23   26 1
  47   24   25 ar
  48   24   56 1
  49   25   57 1
  50   26   27 ar
  51   26   31 ar
  52   27   28 ar
  53   27   58 1
  54   28   29 ar
  55   28   59 1
  56   29   30 ar
  57   29   32 1
  58   30   31 ar
  59   30   60 1
  60   32   33 1
  61   32   34 1
  62   32   35 1
  63   36   61 1
  64   36   62 1
  65   36   63 1

#	End of record

