#	Name: ASD00310310
#	Creating user name:	WinNT
#	Creation time:	15. 06. 2019 18:34

#	Modifying user name:	WinNT
#	Modification time:	15. 06. 2019 18:34

#	Program:	/corina/corina34_cracker 3.40 0067  02.08.2006

@<TRIPOS>MOLECULE
ASD00310310
  26   26    0    0    0
SMALL
NO_CHARGES


@<TRIPOS>ATOM
   1 C1            -0.0184     1.5028     0.0103 C.2     
   2 C2             0.0021    -0.0041     0.0020 C.3     
   3 O3             1.0236     2.1234     0.0037 O.2     
   4 N4            -1.1946     2.1607     0.0195 N.am    
   5 Cl5            1.7099    -0.5819    -0.0174 Cl      
   6 C6            -1.2145     3.6256     0.0275 C.3     
   7 C7            -2.6637     4.1159     0.0371 C.3     
   8 O8            -3.2916     3.7226     1.2590 O.3     
   9 C9            -2.6865     5.6183    -0.0785 C.ar    
  10 C10           -2.9432     6.2136    -1.2995 C.ar    
  11 C11           -2.9646     7.5915    -1.4058 C.ar    
  12 C12           -2.7291     8.3748    -0.2903 C.ar    
  13 C13           -2.4723     7.7787     0.9312 C.ar    
  14 C14           -2.4563     6.4007     1.0377 C.ar    
  15 Br15          -2.7577    10.2601    -0.4354 Br      
  16 H16           -0.4983    -0.3791     0.8948 H       
  17 H17           -0.5153    -0.3696    -0.8850 H       
  18 H18           -2.0280     1.6644     0.0207 H       
  19 H19           -0.7014     3.9910     0.9171 H       
  20 H20           -0.7098     4.0007    -0.8628 H       
  21 H21           -3.2008     3.6786    -0.8046 H       
  22 H22           -2.8655     4.0762     2.0517 H       
  23 H23           -3.1267     5.6019    -2.1704 H       
  24 H24           -3.1649     8.0565    -2.3598 H       
  25 H25           -2.2880     8.3899     1.8023 H       
  26 H26           -2.2598     5.9352     1.9922 H       
@<TRIPOS>BOND
   1    1    2 1
   2    1    3 2
   3    1    4 am
   4    2    5 1
   5    2   16 1
   6    2   17 1
   7    4    6 1
   8    4   18 1
   9    6    7 1
  10    6   19 1
  11    6   20 1
  12    7    8 1
  13    7    9 1
  14    7   21 1
  15    8   22 1
  16    9   10 ar
  17    9   14 ar
  18   10   11 ar
  19   10   23 1
  20   11   12 ar
  21   11   24 1
  22   12   13 ar
  23   12   15 1
  24   13   14 ar
  25   13   25 1
  26   14   26 1

#	End of record

