#	Name: ASD08151034
#	Creating user name:	WinNT
#	Creation time:	15. 06. 2019 21:17

#	Modifying user name:	WinNT
#	Modification time:	15. 06. 2019 21:17

#	Program:	/corina/corina34_cracker 3.40 0067  02.08.2006

@<TRIPOS>MOLECULE
ASD08151034
  35   37    0    0    0
SMALL
NO_CHARGES


@<TRIPOS>ATOM
   1 N1            -0.0157     1.3074     0.0092 N.ar    
   2 C2             0.0021    -0.0041     0.0020 C.ar    
   3 C3             1.1968    -0.7197    -0.0128 C.ar    
   4 C4             2.3897    -0.0541    -0.0205 C.ar    
   5 C5             2.3652     1.3534    -0.0132 C.ar    
   6 C6             3.5533     2.1040    -0.0209 C.ar    
   7 C7             3.4989     3.4669    -0.0141 C.ar    
   8 C8             2.2803     4.1347     0.0006 C.ar    
   9 C9             1.0880     3.4325     0.0091 C.ar    
  10 C10            1.1145     2.0170     0.0022 C.ar    
  11 C11           -0.2047     4.1554     0.0257 C.ar    
  12 C12           -0.8048     4.4918     1.2415 C.ar    
  13 C13           -2.0108     5.1668     1.2490 C.ar    
  14 C14           -2.6221     5.5085     0.0562 C.ar    
  15 C15           -2.0318     5.1776    -1.1503 C.ar    
  16 C16           -0.8250     4.5083    -1.1719 C.ar    
  17 F17           -0.2082     4.1578     2.4067 F       
  18 Cl18           5.0900     1.2966    -0.0387 Cl      
  19 C19            2.2571     5.6415     0.0079 C.3     
  20 C20            2.1371     6.1428     1.4484 C.3     
  21 N21            3.4956     6.1518    -0.5853 N.2     
  22 N22            3.6284     7.2564    -0.7456 N.1     
  23 N23            3.7613     8.3609    -0.9059 N.pl3   
  24 H24           -0.9339    -0.5429     0.0080 H       
  25 H25            1.1801    -1.7996    -0.0177 H       
  26 H26            3.3257    -0.5927    -0.0317 H       
  27 H27            4.4169     4.0357    -0.0197 H       
  28 H28           -2.4768     5.4276     2.1877 H       
  29 H29           -3.5646     6.0356     0.0669 H       
  30 H30           -2.5146     5.4474    -2.0779 H       
  31 H31           -0.3638     4.2549    -2.1151 H       
  32 H32            1.4042     5.9945    -0.5719 H       
  33 H33            1.2156     5.7630     1.8897 H       
  34 H34            2.9900     5.7897     2.0282 H       
  35 H35            2.1203     7.2326     1.4537 H       
@<TRIPOS>BOND
   1    1    2 ar
   2    1   10 ar
   3    2    3 ar
   4    2   24 1
   5    3    4 ar
   6    3   25 1
   7    4    5 ar
   8    4   26 1
   9    5    6 ar
  10    5   10 ar
  11    6    7 ar
  12    6   18 1
  13    7    8 ar
  14    7   27 1
  15    8    9 ar
  16    8   19 1
  17    9   10 ar
  18    9   11 1
  19   11   12 ar
  20   11   16 ar
  21   12   13 ar
  22   12   17 1
  23   13   14 ar
  24   13   28 1
  25   14   15 ar
  26   14   29 1
  27   15   16 ar
  28   15   30 1
  29   16   31 1
  30   19   20 1
  31   19   21 1
  32   19   32 1
  33   20   33 1
  34   20   34 1
  35   20   35 1
  36   21   22 2
  37   22   23 2

#	End of record

