#	Name: ASD04882592
#	Creating user name:	WinNT
#	Creation time:	15. 06. 2019 20:55

#	Modifying user name:	WinNT
#	Modification time:	15. 06. 2019 20:55

#	Program:	/corina/corina34_cracker 3.40 0067  02.08.2006

@<TRIPOS>MOLECULE
ASD04882592
  69   74    0    0    0
SMALL
NO_CHARGES


@<TRIPOS>ATOM
   1 C1            -0.3038     1.2860    -0.0591 C.ar    
   2 C2            -0.3908    -0.1090    -0.0597 C.ar    
   3 C3            -1.6348    -0.7297    -0.0610 C.ar    
   4 C4            -2.7854     0.0271    -0.0621 C.ar    
   5 C5            -2.7055     1.4225    -0.0615 C.ar    
   6 C6            -1.4562     2.0491    -0.0540 C.ar    
   7 N7             0.7700    -0.8781    -0.0595 N.3     
   8 C8             0.8296    -1.7413     1.1283 C.3     
   9 C9             0.8750    -1.6734    -1.2908 C.3     
  10 C10            2.1989    -2.4414    -1.2875 C.3     
  11 N11            2.2585    -3.3046    -0.0996 N.3     
  12 C12            2.1535    -2.5093     1.1316 C.3     
  13 C13           -3.9383     2.2329    -0.0627 C.2     
  14 O14           -3.9277     3.3552    -0.5307 O.2     
  15 N15           -5.0763     1.7294     0.4549 N.am    
  16 N16            0.9504     1.9101    -0.0579 N.am    
  17 C17            3.4229    -4.0761    -0.0994 C.ar    
  18 C18            3.3393    -5.4625    -0.1000 C.ar    
  19 C19            4.4927    -6.2223    -0.1003 C.ar    
  20 C20            5.7296    -5.6044    -0.0995 C.ar    
  21 C21            5.8164    -4.2240    -0.0989 C.ar    
  22 C22            4.6673    -3.4583    -0.1044 C.ar    
  23 C23            1.0811     3.1591     0.4313 C.2     
  24 C24            2.3668     3.8564     0.3276 C.2     
  25 C25            2.6347     5.1170     0.7791 C.2     
  26 C26            3.9793     5.3783     0.4721 C.2     
  27 C27            4.4669     4.2798    -0.1455 C.2     
  28 O28            3.4940     3.3628    -0.2255 O.3     
  29 O29            0.1318     3.7083     0.9593 O.2     
  30 C30           -6.3557     2.4501     0.5803 C.3     
  31 C31            1.9916    -6.1369    -0.0999 C.3     
  32 C32           -5.2497     0.3631     0.9842 C.3     
  33 C33           -6.4400     0.4636     1.9745 C.3     
  34 C34           -7.3354     1.4974     1.2677 C.3     
  35 C35           -8.4226     2.1385     2.1253 C.3     
  36 O36           -9.2861     1.1242     1.5662 O.3     
  37 C37           -8.4554     0.9304     0.4002 C.3     
  38 H38           -1.6989    -1.8078    -0.0614 H       
  39 H39           -3.7503    -0.4581    -0.0638 H       
  40 H40           -1.3913     3.1271    -0.0535 H       
  41 H41            0.7626    -1.1282     2.0271 H       
  42 H42           -0.0004    -2.4475     1.1067 H       
  43 H43            0.0455    -2.3789    -1.3399 H       
  44 H44            0.8411    -1.0109    -2.1557 H       
  45 H45            2.2659    -3.0545    -2.1862 H       
  46 H46            3.0289    -1.7352    -1.2658 H       
  47 H47            2.9830    -1.8039     1.1807 H       
  48 H48            2.1874    -3.1718     1.9965 H       
  49 H49            1.7248     1.4434    -0.4092 H       
  50 H50            4.4284    -7.3004    -0.1007 H       
  51 H51            6.6299    -6.2009    -0.0990 H       
  52 H52            6.7841    -3.7445    -0.0979 H       
  53 H53            4.7358    -2.3805    -0.1043 H       
  54 H54            1.9456     5.7839     1.2758 H       
  55 H55            4.5219     6.2867     0.6884 H       
  56 H56            5.4763     4.1593    -0.5102 H       
  57 H57           -6.2207     3.3464     1.1857 H       
  58 H58           -6.7296     2.7201    -0.4074 H       
  59 H59            1.6663    -6.2990    -1.1275 H       
  60 H60            2.0652    -7.0956     0.4135 H       
  61 H61            1.2686    -5.5038     0.4145 H       
  62 H62           -5.4868    -0.3289     0.1760 H       
  63 H63           -4.3485     0.0421     1.5065 H       
  64 H64           -6.9510    -0.4944     2.0706 H       
  65 H65           -6.1100     0.8285     2.9471 H       
  66 H66           -8.2574     2.0367     3.1979 H       
  67 H67           -8.6812     3.1540     1.8253 H       
  68 H68           -8.7245     1.5641    -0.4448 H       
  69 H69           -8.3159    -0.1151     0.1253 H       
@<TRIPOS>BOND
   1    1    2 ar
   2    1   16 1
   3    1    6 ar
   4    2    3 ar
   5    2    7 1
   6    3    4 ar
   7    3   38 1
   8    4    5 ar
   9    4   39 1
  10    5    6 ar
  11    5   13 1
  12    6   40 1
  13    7    8 1
  14    7    9 1
  15    8   12 1
  16    8   41 1
  17    8   42 1
  18    9   10 1
  19    9   43 1
  20    9   44 1
  21   10   11 1
  22   10   45 1
  23   10   46 1
  24   11   12 1
  25   11   17 1
  26   12   47 1
  27   12   48 1
  28   13   14 2
  29   13   15 am
  30   15   30 1
  31   15   32 1
  32   16   23 am
  33   16   49 1
  34   17   18 ar
  35   17   22 ar
  36   18   19 ar
  37   18   31 1
  38   19   20 ar
  39   19   50 1
  40   20   21 ar
  41   20   51 1
  42   21   22 ar
  43   21   52 1
  44   22   53 1
  45   23   24 1
  46   23   29 2
  47   24   25 2
  48   24   28 1
  49   25   26 1
  50   25   54 1
  51   26   27 2
  52   26   55 1
  53   27   28 1
  54   27   56 1
  55   30   34 1
  56   30   57 1
  57   30   58 1
  58   31   59 1
  59   31   60 1
  60   31   61 1
  61   32   33 1
  62   32   62 1
  63   32   63 1
  64   33   34 1
  65   33   64 1
  66   33   65 1
  67   34   35 1
  68   34   37 1
  69   35   36 1
  70   35   66 1
  71   35   67 1
  72   36   37 1
  73   37   68 1
  74   37   69 1

#	End of record

