#	Name: ASD08170232
#	Creating user name:	WinNT
#	Creation time:	15. 06. 2019 21:17

#	Modifying user name:	WinNT
#	Modification time:	15. 06. 2019 21:17

#	Program:	/corina/corina34_cracker 3.40 0067  02.08.2006

@<TRIPOS>MOLECULE
ASD08170232
  73   77    0    0    0
SMALL
NO_CHARGES


@<TRIPOS>ATOM
   1 N1            -0.9891     0.9953    -0.0008 N.2     
   2 N2            -0.6008    -0.2059     0.0168 N.2     
   3 C3            -0.0954     1.9149    -0.2075 C.2     
   4 S4             1.4311     1.1627    -0.4046 S.3     
   5 C5             0.6639    -0.4090    -0.1747 C.2     
   6 C6             1.3560    -1.7476    -0.1962 C.3     
   7 C7             1.3608    -2.2964    -1.6243 C.3     
   8 C8             2.7708    -5.7493    -3.5885 C.3     
   9 C9             2.6929    -6.1480    -5.0397 C.2     
  10 N10            3.5677    -5.8750    -5.9550 N.2     
  11 S11            1.3976    -7.0768    -5.7954 S.3     
  12 C12            2.2208    -6.9690    -7.2938 C.2     
  13 N13            3.3199    -6.2996    -7.1178 N.2     
  14 N14            1.7870    -7.5129    -8.4981 N.am    
  15 C15            2.5282    -7.3586    -9.6131 C.2     
  16 O16            3.5736    -6.7455    -9.5662 O.2     
  17 C17            2.0581    -7.9480   -10.9179 C.3     
  18 N18           -0.3375     3.2834    -0.2601 N.am    
  19 C19            1.1716    -6.9565   -11.6265 C.ar    
  20 C20           -1.5889     3.7534    -0.0881 C.2     
  21 C21           -1.8513     5.2362    -0.1451 C.3     
  22 O22           -2.5039     2.9829     0.1125 O.2     
  23 C23           -3.3193     5.4955     0.0763 C.ar    
  24 C24            2.1000    -4.3875    -3.3970 C.3     
  25 C25           -3.8008     5.6936     1.3568 C.ar    
  26 C26           -0.1949    -7.1601   -11.6718 C.ar    
  27 C27           -4.1834     5.5408    -1.0017 C.ar    
  28 C28           -5.5299     5.7786    -0.7987 C.ar    
  29 C29           -6.0124     5.9706     0.4824 C.ar    
  30 C30           -5.1473     5.9314     1.5599 C.ar    
  31 C31           -1.0080    -6.2507   -12.3218 C.ar    
  32 C32           -0.4547    -5.1373   -12.9261 C.ar    
  33 C33            0.9117    -4.9332   -12.8801 C.ar    
  34 C34            1.7244    -5.8404   -12.2263 C.ar    
  35 N35            3.2198    -8.2571   -11.7623 N.3     
  36 C36            2.7999    -8.8554   -13.0372 C.3     
  37 C37            4.1644    -9.1350   -11.0577 C.3     
  38 C38            4.0297    -9.0885   -13.9179 C.3     
  39 N39            4.9743    -9.9664   -13.2132 N.3     
  40 C40            5.3942    -9.3681   -11.9384 C.3     
  41 S41            2.1938    -3.9076    -1.6501 S.3     
  42 H42            2.3824    -1.6315     0.1519 H       
  43 H43            0.8268    -2.4407     0.4577 H       
  44 H44            0.3344    -2.4125    -1.9724 H       
  45 H45            1.8900    -1.6032    -2.2782 H       
  46 H46            2.2600    -6.4948    -2.9789 H       
  47 H47            3.8156    -5.6856    -3.2848 H       
  48 H48            0.9509    -8.0033    -8.5355 H       
  49 H49            1.4974    -8.8621   -10.7227 H       
  50 H50            0.3942     3.8996    -0.4205 H       
  51 H51           -1.2728     5.7377     0.6308 H       
  52 H52           -1.5579     5.6199    -1.1222 H       
  53 H53            2.6108    -3.6420    -4.0065 H       
  54 H54            1.0551    -4.4512    -3.7007 H       
  55 H55           -3.1250     5.6623     2.1987 H       
  56 H56           -0.6272    -8.0300   -11.1997 H       
  57 H57           -3.8064     5.3907    -2.0026 H       
  58 H58           -6.2049     5.8146    -1.6410 H       
  59 H59           -7.0643     6.1568     0.6410 H       
  60 H60           -5.5242     6.0814     2.5608 H       
  61 H61           -2.0756    -6.4102   -12.3579 H       
  62 H62           -1.0900    -4.4271   -13.4346 H       
  63 H63            1.3440    -4.0635   -13.3525 H       
  64 H64            2.7919    -5.6809   -12.1903 H       
  65 H65            2.3036    -9.8069   -12.8464 H       
  66 H66            2.1108    -8.1811   -13.5459 H       
  67 H67            4.4702    -8.6647   -10.1232 H       
  68 H68            3.6836   -10.0898   -10.8444 H       
  69 H69            3.7239    -9.5589   -14.8524 H       
  70 H70            4.5104    -8.1338   -14.1312 H       
  71 H71            4.5776   -10.8829   -13.0693 H       
  72 H72            5.8905    -8.4166   -12.1292 H       
  73 H73            6.0832   -10.0424   -11.4297 H       
@<TRIPOS>BOND
   1    1    2 1
   2    1    3 2
   3    2    5 2
   4    3    4 1
   5    3   18 1
   6    4    5 1
   7    5    6 1
   8    6    7 1
   9    6   42 1
  10    6   43 1
  11    7   41 1
  12    7   44 1
  13    7   45 1
  14    8    9 1
  15    8   24 1
  16    8   46 1
  17    8   47 1
  18    9   10 2
  19    9   11 1
  20   10   13 1
  21   11   12 1
  22   12   13 2
  23   12   14 1
  24   14   15 am
  25   14   48 1
  26   15   16 2
  27   15   17 1
  28   17   19 1
  29   17   35 1
  30   17   49 1
  31   18   20 am
  32   18   50 1
  33   19   26 ar
  34   19   34 ar
  35   20   21 1
  36   20   22 2
  37   21   23 1
  38   21   51 1
  39   21   52 1
  40   23   25 ar
  41   23   27 ar
  42   24   41 1
  43   24   53 1
  44   24   54 1
  45   25   30 ar
  46   25   55 1
  47   26   31 ar
  48   26   56 1
  49   27   28 ar
  50   27   57 1
  51   28   29 ar
  52   28   58 1
  53   29   30 ar
  54   29   59 1
  55   30   60 1
  56   31   32 ar
  57   31   61 1
  58   32   33 ar
  59   32   62 1
  60   33   34 ar
  61   33   63 1
  62   34   64 1
  63   35   36 1
  64   35   37 1
  65   36   38 1
  66   36   65 1
  67   36   66 1
  68   37   40 1
  69   37   67 1
  70   37   68 1
  71   38   39 1
  72   38   69 1
  73   38   70 1
  74   39   40 1
  75   39   71 1
  76   40   72 1
  77   40   73 1

#	End of record

