#	Name: ASD06590009
#	Creating user name:	WinNT
#	Creation time:	15. 06. 2019 21:06

#	Modifying user name:	WinNT
#	Modification time:	15. 06. 2019 21:06

#	Program:	/corina/corina34_cracker 3.40 0067  02.08.2006

@<TRIPOS>MOLECULE
ASD06590009
 417  425    0    0    0
SMALL
NO_CHARGES


@<TRIPOS>ATOM
   1 C1             0.7401     0.4446   -11.6654 C.2     
   2 O2             0.8801    -0.7585   -11.7274 O.2     
   3 N3             2.9935     0.5527   -12.5596 N.am    
   4 C4             1.8568     1.3567   -12.1039 C.3     
   5 C5             1.3690     2.2457   -13.2497 C.3     
   6 C6             2.4435     3.2404   -13.6061 C.ar    
   7 C7             3.3891     2.9217   -14.5631 C.ar    
   8 C8             4.3754     3.8316   -14.8913 C.ar    
   9 C9             4.4162     5.0663   -14.2600 C.ar    
  10 O10            5.3852     5.9633   -14.5814 O.3     
  11 C11            3.4660     5.3839   -13.3004 C.ar    
  12 C12            2.4787     4.4724   -12.9795 C.ar    
  13 C13           -2.8194     0.8038   -10.9144 C.2     
  14 O14           -2.8457     1.9480   -11.3157 O.2     
  15 N15           -0.4161     0.9660   -11.2096 N.am    
  16 C16           -1.5039     0.0794   -10.7890 C.3     
  17 C17           -1.2880    -0.3373    -9.3327 C.3     
  18 C18           -0.0152    -1.1797    -9.2266 C.3     
  19 C19            0.2688    -1.4916    -7.7559 C.3     
  20 C20           -0.2034    -2.4875    -9.9982 C.3     
  21 C21           -6.2448     0.2794    -9.7507 C.2     
  22 O22           -5.9208    -0.6486    -9.0403 O.2     
  23 N23           -3.9666     0.1802   -10.5807 N.am    
  24 C24           -5.2455     0.8844   -10.7027 C.3     
  25 C25           -5.7640     0.7554   -12.1363 C.3     
  26 C26           -4.8255     1.4676   -13.0760 C.2     
  27 C27           -4.2259     0.9287   -14.1547 C.2     
  28 N28           -3.4654     1.9166   -14.7199 N.pl3   
  29 C29           -3.6268     3.0255   -13.9663 C.2     
  30 N30           -4.4455     2.7509   -12.9878 N.2     
  31 C31           -9.8659     0.4329    -9.2735 C.2     
  32 O32          -10.0325     1.0431   -10.3082 O.2     
  33 N33           -7.4988     0.7697    -9.6887 N.am    
  34 C34           -8.4703     0.1816    -8.7633 C.3     
  35 C35           -8.3097     0.8196    -7.3819 C.3     
  36 O36           -8.6486     2.2059    -7.4552 O.3     
  37 C37          -13.2050     0.3436    -7.8215 C.2     
  38 O38          -12.8715    -0.1955    -6.7876 O.2     
  39 N39          -10.9288    -0.0205    -8.5798 N.am    
  40 C40          -12.2861     0.3173    -9.0156 C.3     
  41 C41          -12.7773    -0.7326   -10.0142 C.3     
  42 C42          -14.1264    -0.2972   -10.5897 C.3     
  43 C43          -13.9469     0.9952   -11.3886 C.3     
  44 C44          -14.6666    -1.3943   -11.5091 C.3     
  45 C45          -16.7435     0.9218    -7.2829 C.2     
  46 O46          -16.9577     0.8418    -8.4740 O.2     
  47 N47          -14.3976     0.9663    -7.9025 N.am    
  48 C48          -15.3263     0.9205    -6.7704 C.3     
  49 C49          -15.1050     2.1444    -5.8794 C.3     
  50 C50          -15.1813     3.4144    -6.7292 C.3     
  51 C51          -16.6123     3.6035    -7.2364 C.3     
  52 C52          -13.7270     2.0533    -5.2209 C.3     
  53 C53          -20.0114     1.7879    -5.8923 C.2     
  54 O54          -19.5288     2.1599    -4.8437 O.2     
  55 N55          -17.7729     1.0119    -6.4176 N.am    
  56 C56          -19.1459     1.1051    -6.9199 C.3     
  57 C57          -19.6869    -0.3004    -7.1896 C.3     
  58 C58          -18.8972    -0.9373    -8.3039 C.ar    
  59 C59          -17.7671    -1.6787    -8.0140 C.ar    
  60 C60          -17.0427    -2.2630    -9.0361 C.ar    
  61 C61          -17.4486    -2.1062   -10.3482 C.ar    
  62 C62          -18.5793    -1.3655   -10.6381 C.ar    
  63 C63          -19.3061    -0.7849    -9.6156 C.ar    
  64 C64          -23.5967     2.2247    -5.3287 C.2     
  65 O65          -23.8871     1.4448    -6.2110 O.2     
  66 N66          -21.3217     1.9851    -6.1387 N.am    
  67 C67          -22.1630     2.6488    -5.1397 C.3     
  68 C68          -22.0536     4.1656    -5.3074 C.3     
  69 C69          -20.6241     4.6116    -4.9934 C.3     
  70 S70          -20.4943     6.4100    -5.1922 S.3     
  71 C71          -18.7583     6.7415    -4.7837 C.3     
  72 C72          -26.8651     3.3643    -4.1532 C.2     
  73 O73          -26.3990     4.3685    -3.6579 O.2     
  74 N74          -24.5562     2.7121    -4.5174 N.am    
  75 C75          -25.9499     2.2998    -4.7011 C.3     
  76 C76          -26.1950     0.9848    -3.9583 C.3     
  77 C77          -30.4104     3.6154    -3.2981 C.2     
  78 O78          -30.5898     2.4262    -3.4549 O.2     
  79 N79          -28.2015     3.2004    -4.2135 N.am    
  80 C80          -29.0912     4.2353    -3.6808 C.3     
  81 C81          -29.3220     5.3078    -4.7473 C.3     
  82 C82          -28.0224     6.0119    -5.0411 C.ar    
  83 C83          -27.1863     5.5342    -6.0329 C.ar    
  84 C84          -25.9942     6.1801    -6.3024 C.ar    
  85 C85          -25.6383     7.3038    -5.5803 C.ar    
  86 C86          -26.4748     7.7821    -4.5891 C.ar    
  87 C87          -27.6690     7.1388    -4.3226 C.ar    
  88 C88          -33.7534     4.8297    -2.4540 C.2     
  89 O89          -33.4790     5.9692    -2.7657 O.2     
  90 N90          -31.3909     4.3824    -2.7817 N.am    
  91 C91          -32.6733     3.7798    -2.4096 C.3     
  92 C92          -32.5763     3.2074    -0.9941 C.3     
  93 C93          -31.5834     2.0739    -0.9775 C.ar    
  94 C94          -30.2495     2.3272    -0.7175 C.ar    
  95 C95          -29.3387     1.2874    -0.7023 C.ar    
  96 C96          -29.7618    -0.0057    -0.9467 C.ar    
  97 C97          -31.0958    -0.2591    -1.2058 C.ar    
  98 C98          -32.0073     0.7801    -1.2167 C.ar    
  99 C99          -37.1988     5.1264    -1.2689 C.2     
 100 O100         -37.1298     4.0928    -0.6381 O.2     
 101 N101         -35.0244     4.5024    -2.1474 N.am    
 102 C102         -36.0744     5.5231    -2.1905 C.3     
 103 C103         -36.6063     5.6476    -3.6197 C.3     
 104 O104         -37.2487     4.4281    -3.9967 O.3     
 105 C105         -40.6545     6.1805    -0.7123 C.2     
 106 O106         -40.6541     6.8929    -1.6938 O.2     
 107 N107         -38.2810     5.9202    -1.1456 N.am    
 108 C108         -39.3740     5.5345    -0.2496 C.3     
 109 C109         -39.0545     5.9972     1.1733 C.3     
 110 C110         -37.8246     5.2476     1.6893 C.3     
 111 C111         -37.5098     5.7034     3.0908 C.2     
 112 O112         -38.1986     6.5418     3.6224 O.2     
 113 O113         -36.4643     5.1780     3.7485 O.3     
 114 C114         -43.9885     6.7320     0.6819 C.2     
 115 O115         -43.6540     6.3437     1.7811 O.2     
 116 N116         -41.8001     5.9666    -0.0353 N.am    
 117 C117         -43.0449     6.5946    -0.4851 C.3     
 118 C118         -43.6930     5.7262    -1.5653 C.3     
 119 C119         -42.7895     5.6887    -2.7996 C.3     
 120 C120         -43.4375     4.8203    -3.8798 C.3     
 121 C121         -42.5341     4.7828    -5.1140 C.3     
 122 N122         -43.1563     3.9491    -6.1511 N.3     
 123 C123         -47.5404     7.4685     1.1341 C.2     
 124 O124         -47.7637     7.3982    -0.0559 O.2     
 125 N125         -45.2039     7.2866     0.5041 N.am    
 126 C126         -46.1211     7.4202     1.6386 C.3     
 127 C127         -45.8063     8.7095     2.3998 C.3     
 128 C128         -44.4102     8.6090     3.0177 C.3     
 129 C129         -44.0954     9.8983     3.7789 C.3     
 130 C130         -42.6993     9.7978     4.3968 C.3     
 131 N131         -42.3971    11.0357     5.1277 N.3     
 132 C132         -50.8054     8.3608     2.5149 C.2     
 133 O133         -50.3169     8.7949     3.5366 O.2     
 134 N134         -48.5615     7.5898     2.0054 N.am    
 135 C135         -49.9412     7.6367     1.5150 C.3     
 136 C136         -50.4642     6.2113     1.3265 C.3     
 137 C137         -49.6774     5.5273     0.2383 C.ar    
 138 C138         -48.5332     4.8186     0.5553 C.ar    
 139 C139         -47.8100     4.1911    -0.4404 C.ar    
 140 C140         -48.2327     4.2721    -1.7593 C.ar    
 141 O141         -47.5232     3.6552    -2.7406 O.3     
 142 C142         -49.3813     4.9833    -2.0747 C.ar    
 143 C143         -50.1039     5.6048    -1.0746 C.ar    
 144 C144         -54.3911     8.9540     3.0174 C.2     
 145 O145         -54.7413     8.3090     2.0519 O.2     
 146 N146         -52.1211     8.5260     2.2739 N.am    
 147 C147         -52.9400     9.3208     3.1925 C.3     
 148 C148         -52.7496    10.8082     2.8885 C.3     
 149 C149         -53.5488    11.6405     3.8932 C.3     
 150 C150         -52.9431    11.4753     5.2884 C.3     
 151 C151         -53.5001    13.1148     3.4873 C.3     
 152 C152         -57.5590    10.0348     4.4868 C.2     
 153 O153         -57.0258    10.9170     5.1258 O.2     
 154 N154         -55.2998     9.3428     3.9337 N.am    
 155 C155         -56.7183     9.0354     3.7349 C.3     
 156 C156         -57.0128     7.6271     4.2553 C.3     
 157 C157         -56.2655     6.6175     3.4227 C.2     
 158 C158         -56.7448     5.9422     2.3661 C.2     
 159 N159         -55.7780     5.1146     1.8636 N.pl3   
 160 C160         -54.6235     5.2402     2.6034 C.ar    
 161 C161         -53.3683     4.6459     2.5277 C.ar    
 162 C162         -52.3924     4.9897     3.4377 C.ar    
 163 C163         -52.6486     5.9244     4.4312 C.ar    
 164 C164         -53.8750     6.5202     4.5242 C.ar    
 165 C165         -54.8764     6.1914     3.6089 C.ar    
 166 C166         -61.1800    10.6037     4.9755 C.2     
 167 O167         -61.5052     9.6597     4.2869 O.2     
 168 N168         -58.9035     9.9483     4.4491 N.am    
 169 C169         -59.7208    10.9199     5.1800 C.3     
 170 C170         -64.3590    12.3143     5.5505 C.2     
 171 O171         -63.8104    13.3602     5.8259 O.2     
 172 N172         -62.1236    11.3699     5.5577 N.am    
 173 C173         -63.5421    11.0625     5.3589 C.3     
 174 C174         -63.9822    10.0060     6.3743 C.3     
 175 C175         -63.2529     8.7151     6.1041 C.ar    
 176 C176         -62.0395     8.4655     6.7175 C.ar    
 177 C177         -61.3705     7.2814     6.4697 C.ar    
 178 C178         -61.9151     6.3469     5.6089 C.ar    
 179 C179         -63.1290     6.5962     4.9963 C.ar    
 180 C180         -63.8001     7.7783     5.2475 C.ar    
 181 C181         -67.8963    13.1157     6.0071 C.2     
 182 O182         -68.2014    11.9529     6.1280 O.2     
 183 N183         -65.6994    12.2715     5.4156 N.am    
 184 C184         -66.4935    13.4884     5.6018 C.3     
 185 C185         -66.5337    14.2767     4.2912 C.3     
 186 C186         -67.3631    15.5476     4.4856 C.3     
 187 O187         -65.2035    14.6301     3.9068 O.3     
 188 O188         -68.8068    14.0756     6.2338 O.3     
 189 C189           4.2397     1.0647   -12.5209 C.2     
 190 O190           4.4199     2.1911   -12.1088 O.2     
 191 C191          22.7461     0.0299   -15.2829 C.3     
 192 C192          21.5589     0.8695   -14.8070 C.3     
 193 C193          20.2694     0.0596   -14.9553 C.3     
 194 C194          19.0822     0.8992   -14.4794 C.3     
 195 C195          17.7927     0.0893   -14.6276 C.3     
 196 C196          16.6055     0.9289   -14.1518 C.3     
 197 C197          15.3159     0.1189   -14.3000 C.3     
 198 C198          14.1287     0.9586   -13.8242 C.3     
 199 C199          12.8392     0.1486   -13.9724 C.3     
 200 C200          11.6520     0.9883   -13.4966 C.3     
 201 C201          10.3625     0.1783   -13.6448 C.3     
 202 C202           9.1753     1.0180   -13.1689 C.3     
 203 C203           7.8857     0.2080   -13.3172 C.3     
 204 C204           6.6985     1.0477   -12.8413 C.3     
 205 C205           5.4090     0.2377   -12.9896 C.3     
 206 H206           2.8494    -0.3482   -12.8891 H       
 207 H207           2.1662     1.9812   -11.2659 H       
 208 H208           1.1436     1.6274   -14.1186 H       
 209 H209           0.4698     2.7778   -12.9392 H       
 210 H210           3.3569     1.9604   -15.0543 H       
 211 H211           5.1142     3.5819   -15.6384 H       
 212 H212           5.1442     6.5612   -15.3022 H       
 213 H213           3.4959     6.3443   -12.8072 H       
 214 H214           1.7361     4.7209   -12.2357 H       
 215 H215          -0.5280     1.9282   -11.1600 H       
 216 H216          -1.5155    -0.8074   -11.4227 H       
 217 H217          -1.1876     0.5525    -8.7112 H       
 218 H218          -2.1414    -0.9238    -8.9923 H       
 219 H219           0.8232    -0.6260    -9.6491 H       
 220 H220          -0.5696    -2.0453    -7.3334 H       
 221 H221           1.1756    -2.0918    -7.6803 H       
 222 H222           0.4029    -0.5600    -7.2062 H       
 223 H223          -0.4058    -2.2653   -11.0459 H       
 224 H224           0.7033    -3.0876    -9.9226 H       
 225 H225          -1.0419    -3.0412    -9.5757 H       
 226 H226          -3.9456    -0.7350   -10.2598 H       
 227 H227          -5.1047     1.9378   -10.4607 H       
 228 H228          -5.8205    -0.2985   -12.4088 H       
 229 H229          -6.7558     1.2022   -12.2056 H       
 230 H230          -4.3256    -0.0876   -14.5062 H       
 231 H231          -2.9135     1.8353   -15.5135 H       
 232 H232          -3.1591     3.9823   -14.1460 H       
 233 H233          -7.7579     1.5119   -10.2569 H       
 234 H234          -8.2982    -0.8922    -8.6898 H       
 235 H235          -8.9702     0.3211    -6.6725 H       
 236 H236          -7.2763     0.7152    -7.0514 H       
 237 H237          -8.5694     2.6752    -6.6134 H       
 238 H238         -10.7951    -0.5705    -7.7921 H       
 239 H239         -12.2812     1.2977    -9.4920 H       
 240 H240         -12.0527    -0.8324   -10.8223 H       
 241 H241         -12.8907    -1.6910    -9.5074 H       
 242 H242         -14.8306    -0.1262    -9.7754 H       
 243 H243         -14.9179     1.3413   -11.7427 H       
 244 H244         -13.5000     1.7576   -10.7506 H       
 245 H245         -13.2949     0.8074   -12.2416 H       
 246 H246         -14.7945    -2.3151   -10.9400 H       
 247 H247         -15.6278    -1.0842   -11.9191 H       
 248 H248         -13.9624    -1.5654   -12.3234 H       
 249 H249         -14.6410     1.4448    -8.7104 H       
 250 H250         -15.1499     0.0134    -6.1923 H       
 251 H251         -15.8748     2.1764    -5.1083 H       
 252 H252         -14.8936     4.2742    -6.1242 H       
 253 H253         -14.5037     3.3246    -7.5783 H       
 254 H254         -16.8418     2.8328    -7.9723 H       
 255 H255         -17.3073     3.5260    -6.4003 H       
 256 H256         -16.7073     4.5864    -7.6979 H       
 257 H257         -12.9535     2.1233    -5.9856 H       
 258 H258         -13.6096     2.8708    -4.5095 H       
 259 H259         -13.6362     1.1011    -4.6983 H       
 260 H260         -17.6046     1.0149    -5.4624 H       
 261 H261         -19.1561     1.6820    -7.8447 H       
 262 H262         -19.5943    -0.9047    -6.2872 H       
 263 H263         -20.7361    -0.2367    -7.4782 H       
 264 H264         -17.4500    -1.8012    -6.9889 H       
 265 H265         -16.1594    -2.8416    -8.8096 H       
 266 H266         -16.8823    -2.5620   -11.1468 H       
 267 H267         -18.8962    -1.2427   -11.6632 H       
 268 H268         -20.1915    -0.2093    -9.8418 H       
 269 H269         -21.7077     1.6875    -6.9773 H       
 270 H270         -21.8300     2.3688    -4.1403 H       
 271 H271         -22.3015     4.4366    -6.3337 H       
 272 H272         -22.7460     4.6576    -4.6244 H       
 273 H273         -20.3761     4.3407    -3.9671 H       
 274 H274         -19.9317     4.1196    -5.6765 H       
 275 H275         -18.5570     6.4173    -3.7627 H       
 276 H276         -18.1125     6.1962    -5.4720 H       
 277 H277         -18.5621     7.8101    -4.8709 H       
 278 H278         -24.3240     3.3358    -3.8118 H       
 279 H279         -26.1504     2.1598    -5.7633 H       
 280 H280         -27.2319     0.6781    -4.0950 H       
 281 H281         -25.5330     0.2148    -4.3546 H       
 282 H282         -25.9945     1.1248    -2.8961 H       
 283 H283         -28.5743     2.3973    -4.6095 H       
 284 H284         -28.6346     4.6896    -2.8015 H       
 285 H285         -29.6957     4.8400    -5.6581 H       
 286 H286         -30.0526     6.0304    -4.3837 H       
 287 H287         -27.4643     4.6562    -6.5970 H       
 288 H288         -25.3407     5.8064    -7.0768 H       
 289 H289         -24.7066     7.8080    -5.7904 H       
 290 H290         -26.1966     8.6599    -4.0248 H       
 291 H291         -28.3242     7.5145    -3.5507 H       
 292 H292         -31.2474     5.3336    -2.6563 H       
 293 H293         -32.9153     2.9797    -3.1092 H       
 294 H294         -32.2478     3.9883    -0.3082 H       
 295 H295         -33.5539     2.8387    -0.6835 H       
 296 H296         -29.9189     3.3375    -0.5265 H       
 297 H297         -28.2965     1.4854    -0.4999 H       
 298 H298         -29.0501    -0.8179    -0.9356 H       
 299 H299         -31.4263    -1.2693    -1.3971 H       
 300 H300         -33.0502     0.5816    -1.4155 H       
 301 H301         -35.2438     3.5911    -1.8981 H       
 302 H302         -35.6635     6.4808    -1.8711 H       
 303 H303         -37.3234     6.4668    -3.6704 H       
 304 H304         -35.7779     5.8471    -4.2995 H       
 305 H305         -37.6108     4.4352    -4.8933 H       
 306 H306         -38.3362     6.7468    -1.6501 H       
 307 H307         -39.4888     4.4506    -0.2620 H       
 308 H308         -38.8524     7.0683     1.1703 H       
 309 H309         -39.9052     5.7899     1.8225 H       
 310 H310         -38.0267     4.1765     1.6923 H       
 311 H311         -36.9739     5.4550     1.0401 H       
 312 H312         -36.3021     5.5018     4.6452 H       
 313 H313         -41.8005     5.3968     0.7497 H       
 314 H314         -42.8270     7.5811    -0.8943 H       
 315 H315         -43.8297     4.7141    -1.1843 H       
 316 H316         -44.6615     6.1462    -1.8366 H       
 317 H317         -42.6528     6.7008    -3.1806 H       
 318 H318         -41.8210     5.2687    -2.5283 H       
 319 H319         -43.5743     3.8083    -3.4987 H       
 320 H320         -44.4061     5.2404    -4.1511 H       
 321 H321         -42.3974     5.7949    -5.4950 H       
 322 H322         -41.5656     4.3628    -4.8427 H       
 323 H323         -44.0829     4.2806    -6.3739 H       
 324 H324         -42.5784     3.9084    -6.9773 H       
 325 H325         -45.4714     7.5972    -0.3751 H       
 326 H326         -46.0014     6.5662     2.3052 H       
 327 H327         -45.8394     9.5547     1.7123 H       
 328 H328         -46.5436     8.8545     3.1894 H       
 329 H329         -44.3772     7.7638     3.7052 H       
 330 H330         -43.6730     8.4641     2.2280 H       
 331 H331         -44.1285    10.7435     3.0914 H       
 332 H332         -44.8327    10.0433     4.5686 H       
 333 H333         -42.6663     8.9527     5.0843 H       
 334 H334         -41.9621     9.6529     3.6071 H       
 335 H335         -43.1027    11.2265     5.8232 H       
 336 H336         -41.4795    10.9942     5.5454 H       
 337 H337         -48.3829     7.6460     2.9571 H       
 338 H338         -49.9700     8.1634     0.5611 H       
 339 H339         -50.3528     5.6572     2.2585 H       
 340 H340         -51.5173     6.2447     1.0472 H       
 341 H341         -48.2045     4.7559     1.5821 H       
 342 H342         -46.9159     3.6383    -0.1924 H       
 343 H343         -47.8012     2.7455    -2.9145 H       
 344 H344         -49.7123     5.0481    -3.1007 H       
 345 H345         -51.0006     6.1549    -1.3190 H       
 346 H346         -52.5258     8.1185     1.4921 H       
 347 H347         -52.6352     9.1179     4.2191 H       
 348 H348         -51.6925    11.0624     2.9655 H       
 349 H349         -53.1017    11.0207     1.8790 H       
 350 H350         -54.5845    11.3006     3.9042 H       
 351 H351         -51.8810    11.7182     5.2545 H       
 352 H352         -53.4470    12.1455     5.9849 H       
 353 H353         -53.0698    10.4447     5.6199 H       
 354 H354         -53.9317    13.2325     2.4933 H       
 355 H355         -54.0695    13.7077     4.2031 H       
 356 H356         -52.4645    13.4546     3.4763 H       
 357 H357         -55.0145     9.8262     4.7248 H       
 358 H358         -56.9558     9.0872     2.6723 H       
 359 H359         -56.6927     7.5494     5.2943 H       
 360 H360         -58.0831     7.4318     4.1892 H       
 361 H361         -57.7455     6.0378     1.9713 H       
 362 H362         -55.8893     4.5269     1.1000 H       
 363 H363         -53.1593     3.9172     1.7585 H       
 364 H364         -51.4184     4.5270     3.3775 H       
 365 H365         -51.8727     6.1827     5.1366 H       
 366 H366         -54.0673     7.2463     5.3002 H       
 367 H367         -59.3299     9.2428     3.9380 H       
 368 H368         -59.5110    11.9232     4.8093 H       
 369 H369         -59.4833    10.8681     6.2426 H       
 370 H370         -61.8635    12.1248     6.1084 H       
 371 H371         -63.6932    10.6811     4.3490 H       
 372 H372         -63.7493    10.3509     7.3817 H       
 373 H373         -65.0562     9.8419     6.2856 H       
 374 H374         -61.6140     9.1956     7.3899 H       
 375 H375         -60.4221     7.0867     6.9483 H       
 376 H376         -61.3921     5.4222     5.4148 H       
 377 H377         -63.5543     5.8662     4.3236 H       
 378 H378         -64.7502     7.9715     4.7717 H       
 379 H379         -66.1382    11.4350     5.1953 H       
 380 H380         -66.0410    14.1019     6.3810 H       
 381 H381         -66.9862    13.6633     3.5120 H       
 382 H382         -66.9107    16.1611     5.2648 H       
 383 H383         -67.3918    16.1092     3.5519 H       
 384 H384         -68.3777    15.2780     4.7788 H       
 385 H385         -64.6202    13.8719     3.7660 H       
 386 H386         -69.6933    13.7877     6.4915 H       
 387 H387          23.6648     0.6069   -15.1773 H       
 388 H388          22.8149    -0.8761   -14.6808 H       
 389 H389          22.6044    -0.2393   -16.3296 H       
 390 H390          21.7006     1.1387   -13.7604 H       
 391 H391          21.4901     1.7755   -15.4091 H       
 392 H392          20.1277    -0.2096   -16.0019 H       
 393 H393          20.3382    -0.8464   -14.3532 H       
 394 H394          19.2239     1.1684   -13.4327 H       
 395 H395          19.0134     1.8052   -15.0815 H       
 396 H396          17.6510    -0.1800   -15.6743 H       
 397 H397          17.8614    -0.8168   -14.0256 H       
 398 H398          16.7471     1.1981   -13.1051 H       
 399 H399          16.5367     1.8349   -14.7539 H       
 400 H400          15.1742    -0.1503   -15.3467 H       
 401 H401          15.3847    -0.7871   -13.6979 H       
 402 H402          14.2704     1.2278   -12.7775 H       
 403 H403          14.0599     1.8646   -14.4263 H       
 404 H404          12.6975    -0.1206   -15.0191 H       
 405 H405          12.9080    -0.7574   -13.3703 H       
 406 H406          11.7937     1.2575   -12.4499 H       
 407 H407          11.5832     1.8943   -14.0987 H       
 408 H408          10.2208    -0.0909   -14.6915 H       
 409 H409          10.4313    -0.7277   -13.0427 H       
 410 H410           9.3170     1.2872   -12.1223 H       
 411 H411           9.1065     1.9240   -13.7710 H       
 412 H412           7.7441    -0.0612   -14.3639 H       
 413 H413           7.9545    -0.6980   -12.7151 H       
 414 H414           6.8402     1.3169   -11.7946 H       
 415 H415           6.6298     1.9537   -13.4434 H       
 416 H416           5.4778    -0.6683   -12.3875 H       
 417 H417           5.2673    -0.0315   -14.0362 H       
@<TRIPOS>BOND
   1    1    2 2
   2    1    4 1
   3    1   15 am
   4    3  189 am
   5    3    4 1
   6    3  206 1
   7    4    5 1
   8    4  207 1
   9    5    6 1
  10    5  208 1
  11    5  209 1
  12    6    7 ar
  13    6   12 ar
  14    7    8 ar
  15    7  210 1
  16    8    9 ar
  17    8  211 1
  18    9   10 1
  19    9   11 ar
  20   10  212 1
  21   11   12 ar
  22   11  213 1
  23   12  214 1
  24   13   14 2
  25   13   16 1
  26   13   23 am
  27   15   16 1
  28   15  215 1
  29   16   17 1
  30   16  216 1
  31   17   18 1
  32   17  217 1
  33   17  218 1
  34   18   19 1
  35   18   20 1
  36   18  219 1
  37   19  220 1
  38   19  221 1
  39   19  222 1
  40   20  223 1
  41   20  224 1
  42   20  225 1
  43   21   22 2
  44   21   24 1
  45   21   33 am
  46   23   24 1
  47   23  226 1
  48   24   25 1
  49   24  227 1
  50   25   26 1
  51   25  228 1
  52   25  229 1
  53   26   27 2
  54   26   30 1
  55   27   28 1
  56   27  230 1
  57   28   29 1
  58   28  231 1
  59   29   30 2
  60   29  232 1
  61   31   32 2
  62   31   34 1
  63   31   39 am
  64   33   34 1
  65   33  233 1
  66   34   35 1
  67   34  234 1
  68   35   36 1
  69   35  235 1
  70   35  236 1
  71   36  237 1
  72   37   38 2
  73   37   40 1
  74   37   47 am
  75   39   40 1
  76   39  238 1
  77   40   41 1
  78   40  239 1
  79   41   42 1
  80   41  240 1
  81   41  241 1
  82   42   43 1
  83   42   44 1
  84   42  242 1
  85   43  243 1
  86   43  244 1
  87   43  245 1
  88   44  246 1
  89   44  247 1
  90   44  248 1
  91   45   46 2
  92   45   48 1
  93   45   55 am
  94   47   48 1
  95   47  249 1
  96   48   49 1
  97   48  250 1
  98   49   50 1
  99   49   52 1
 100   49  251 1
 101   50   51 1
 102   50  252 1
 103   50  253 1
 104   51  254 1
 105   51  255 1
 106   51  256 1
 107   52  257 1
 108   52  258 1
 109   52  259 1
 110   53   54 2
 111   53   56 1
 112   53   66 am
 113   55   56 1
 114   55  260 1
 115   56   57 1
 116   56  261 1
 117   57   58 1
 118   57  262 1
 119   57  263 1
 120   58   59 ar
 121   58   63 ar
 122   59   60 ar
 123   59  264 1
 124   60   61 ar
 125   60  265 1
 126   61   62 ar
 127   61  266 1
 128   62   63 ar
 129   62  267 1
 130   63  268 1
 131   64   65 2
 132   64   67 1
 133   64   74 am
 134   66   67 1
 135   66  269 1
 136   67   68 1
 137   67  270 1
 138   68   69 1
 139   68  271 1
 140   68  272 1
 141   69   70 1
 142   69  273 1
 143   69  274 1
 144   70   71 1
 145   71  275 1
 146   71  276 1
 147   71  277 1
 148   72   73 2
 149   72   75 1
 150   72   79 am
 151   74   75 1
 152   74  278 1
 153   75   76 1
 154   75  279 1
 155   76  280 1
 156   76  281 1
 157   76  282 1
 158   77   78 2
 159   77   80 1
 160   77   90 am
 161   79   80 1
 162   79  283 1
 163   80   81 1
 164   80  284 1
 165   81   82 1
 166   81  285 1
 167   81  286 1
 168   82   83 ar
 169   82   87 ar
 170   83   84 ar
 171   83  287 1
 172   84   85 ar
 173   84  288 1
 174   85   86 ar
 175   85  289 1
 176   86   87 ar
 177   86  290 1
 178   87  291 1
 179   88   89 2
 180   88   91 1
 181   88  101 am
 182   90   91 1
 183   90  292 1
 184   91   92 1
 185   91  293 1
 186   92   93 1
 187   92  294 1
 188   92  295 1
 189   93   94 ar
 190   93   98 ar
 191   94   95 ar
 192   94  296 1
 193   95   96 ar
 194   95  297 1
 195   96   97 ar
 196   96  298 1
 197   97   98 ar
 198   97  299 1
 199   98  300 1
 200   99  100 2
 201   99  102 1
 202   99  107 am
 203  101  102 1
 204  101  301 1
 205  102  103 1
 206  102  302 1
 207  103  104 1
 208  103  303 1
 209  103  304 1
 210  104  305 1
 211  105  106 2
 212  105  108 1
 213  105  116 am
 214  107  108 1
 215  107  306 1
 216  108  109 1
 217  108  307 1
 218  109  110 1
 219  109  308 1
 220  109  309 1
 221  110  111 1
 222  110  310 1
 223  110  311 1
 224  111  112 2
 225  111  113 1
 226  113  312 1
 227  114  115 2
 228  114  117 1
 229  114  125 am
 230  116  117 1
 231  116  313 1
 232  117  118 1
 233  117  314 1
 234  118  119 1
 235  118  315 1
 236  118  316 1
 237  119  120 1
 238  119  317 1
 239  119  318 1
 240  120  121 1
 241  120  319 1
 242  120  320 1
 243  121  122 1
 244  121  321 1
 245  121  322 1
 246  122  323 1
 247  122  324 1
 248  123  124 2
 249  123  126 1
 250  123  134 am
 251  125  126 1
 252  125  325 1
 253  126  127 1
 254  126  326 1
 255  127  128 1
 256  127  327 1
 257  127  328 1
 258  128  129 1
 259  128  329 1
 260  128  330 1
 261  129  130 1
 262  129  331 1
 263  129  332 1
 264  130  131 1
 265  130  333 1
 266  130  334 1
 267  131  335 1
 268  131  336 1
 269  132  133 2
 270  132  135 1
 271  132  146 am
 272  134  135 1
 273  134  337 1
 274  135  136 1
 275  135  338 1
 276  136  137 1
 277  136  339 1
 278  136  340 1
 279  137  138 ar
 280  137  143 ar
 281  138  139 ar
 282  138  341 1
 283  139  140 ar
 284  139  342 1
 285  140  141 1
 286  140  142 ar
 287  141  343 1
 288  142  143 ar
 289  142  344 1
 290  143  345 1
 291  144  145 2
 292  144  147 1
 293  144  154 am
 294  146  147 1
 295  146  346 1
 296  147  148 1
 297  147  347 1
 298  148  149 1
 299  148  348 1
 300  148  349 1
 301  149  150 1
 302  149  151 1
 303  149  350 1
 304  150  351 1
 305  150  352 1
 306  150  353 1
 307  151  354 1
 308  151  355 1
 309  151  356 1
 310  152  153 2
 311  152  155 1
 312  152  168 am
 313  154  155 1
 314  154  357 1
 315  155  156 1
 316  155  358 1
 317  156  157 1
 318  156  359 1
 319  156  360 1
 320  157  158 2
 321  157  165 1
 322  158  159 1
 323  158  361 1
 324  159  160 1
 325  159  362 1
 326  160  161 ar
 327  160  165 ar
 328  161  162 ar
 329  161  363 1
 330  162  163 ar
 331  162  364 1
 332  163  164 ar
 333  163  365 1
 334  164  165 ar
 335  164  366 1
 336  166  167 2
 337  166  169 1
 338  166  172 am
 339  168  169 1
 340  168  367 1
 341  169  368 1
 342  169  369 1
 343  170  171 2
 344  170  173 1
 345  170  183 am
 346  172  173 1
 347  172  370 1
 348  173  174 1
 349  173  371 1
 350  174  175 1
 351  174  372 1
 352  174  373 1
 353  175  176 ar
 354  175  180 ar
 355  176  177 ar
 356  176  374 1
 357  177  178 ar
 358  177  375 1
 359  178  179 ar
 360  178  376 1
 361  179  180 ar
 362  179  377 1
 363  180  378 1
 364  181  182 2
 365  181  184 1
 366  181  188 1
 367  183  184 1
 368  183  379 1
 369  184  185 1
 370  184  380 1
 371  185  186 1
 372  185  187 1
 373  185  381 1
 374  186  382 1
 375  186  383 1
 376  186  384 1
 377  187  385 1
 378  188  386 1
 379  189  190 2
 380  189  205 1
 381  191  192 1
 382  191  387 1
 383  191  388 1
 384  191  389 1
 385  192  193 1
 386  192  390 1
 387  192  391 1
 388  193  194 1
 389  193  392 1
 390  193  393 1
 391  194  195 1
 392  194  394 1
 393  194  395 1
 394  195  196 1
 395  195  396 1
 396  195  397 1
 397  196  197 1
 398  196  398 1
 399  196  399 1
 400  197  198 1
 401  197  400 1
 402  197  401 1
 403  198  199 1
 404  198  402 1
 405  198  403 1
 406  199  200 1
 407  199  404 1
 408  199  405 1
 409  200  201 1
 410  200  406 1
 411  200  407 1
 412  201  202 1
 413  201  408 1
 414  201  409 1
 415  202  203 1
 416  202  410 1
 417  202  411 1
 418  203  204 1
 419  203  412 1
 420  203  413 1
 421  204  205 1
 422  204  414 1
 423  204  415 1
 424  205  416 1
 425  205  417 1

#	End of record

