#	Name: ASD03091632
#	Creating user name:	WinNT
#	Creation time:	15. 06. 2019 20:31

#	Modifying user name:	WinNT
#	Modification time:	15. 06. 2019 20:31

#	Program:	/corina/corina34_cracker 3.40 0067  02.08.2006

@<TRIPOS>MOLECULE
ASD03091632
  48   50    0    0    0
SMALL
NO_CHARGES


@<TRIPOS>ATOM
   1 C1             1.2576     1.5955     1.5297 C.ar    
   2 C2             1.2397     0.2234     1.7288 C.ar    
   3 C3             1.1278    -0.6322     0.6512 C.ar    
   4 C4             1.0323    -0.1265    -0.6398 C.ar    
   5 C5             1.0483     1.2388    -0.8545 C.ar    
   6 C6             1.1612     2.1122     0.2305 C.ar    
   7 O7             1.3625     2.4359     2.5904 O.3     
   8 C8             1.4507     1.8382     3.8854 C.3     
   9 O9             0.9233    -0.9775    -1.6949 O.3     
  10 C10            0.9135    -2.3761    -1.4020 C.3     
  11 C11            1.1790     3.5711     0.0095 C.2     
  12 O12            0.1474     4.1585    -0.2580 O.2     
  13 C13            2.4432     4.3150     0.1124 C.2     
  14 C14            2.6206     5.7764     0.0375 C.2     
  15 C15            3.6929     3.7916     0.3030 C.2     
  16 N16            4.5820     4.8019     0.3410 N.pl3   
  17 C17            3.9512     6.0008     0.1826 C.2     
  18 C18            1.5605     6.7946    -0.1575 C.ar    
  19 C19           -0.4222     8.6997    -0.5232 C.ar    
  20 C20            0.5520     8.5147    -1.4954 C.ar    
  21 C21            1.5393     7.5681    -1.3164 C.ar    
  22 C22            0.5756     6.9776     0.8185 C.ar    
  23 C23           -0.4114     7.9299     0.6305 C.ar    
  24 O24           -1.3920     9.6342    -0.7051 O.3     
  25 C25           -1.3471    10.3881    -1.9182 C.3     
  26 O26            0.5873     6.2223     1.9480 O.3     
  27 C27           -0.4497     6.4643     2.9009 C.3     
  28 H28            1.3139    -0.1769     2.7291 H       
  29 H29            1.1148    -1.7000     0.8123 H       
  30 H30            0.9743     1.6298    -1.8585 H       
  31 H31            1.5300     2.6194     4.6414 H       
  32 H32            0.5578     1.2415     4.0717 H       
  33 H33            2.3317     1.1979     3.9308 H       
  34 H34            0.0689    -2.6054    -0.7524 H       
  35 H35            0.8222    -2.9410    -2.3297 H       
  36 H36            1.8421    -2.6488    -0.9005 H       
  37 H37            3.9272     2.7423     0.4059 H       
  38 H38            5.5377     4.6926     0.4662 H       
  39 H39            4.4307     6.9685     0.1766 H       
  40 H40            0.5391     9.1164    -2.3921 H       
  41 H41            2.2959     7.4267    -2.0740 H       
  42 H42           -1.1707     8.0765     1.3845 H       
  43 H43           -2.1752    11.0967    -1.9365 H       
  44 H44           -0.4034    10.9307    -1.9741 H       
  45 H45           -1.4284     9.7121    -2.7694 H       
  46 H46           -1.4191     6.2824     2.4370 H       
  47 H47           -0.3235     5.7961     3.7528 H       
  48 H48           -0.3975     7.4989     3.2399 H       
@<TRIPOS>BOND
   1    1    2 ar
   2    1    6 ar
   3    1    7 1
   4    2    3 ar
   5    2   28 1
   6    3    4 ar
   7    3   29 1
   8    4    5 ar
   9    4    9 1
  10    5    6 ar
  11    5   30 1
  12    6   11 1
  13    7    8 1
  14    8   31 1
  15    8   32 1
  16    8   33 1
  17    9   10 1
  18   10   34 1
  19   10   35 1
  20   10   36 1
  21   11   12 2
  22   11   13 1
  23   13   15 2
  24   13   14 1
  25   14   17 2
  26   14   18 1
  27   15   16 1
  28   15   37 1
  29   16   17 1
  30   16   38 1
  31   17   39 1
  32   18   22 ar
  33   18   21 ar
  34   19   20 ar
  35   19   23 ar
  36   19   24 1
  37   20   21 ar
  38   20   40 1
  39   21   41 1
  40   22   23 ar
  41   22   26 1
  42   23   42 1
  43   24   25 1
  44   25   43 1
  45   25   44 1
  46   25   45 1
  47   26   27 1
  48   27   46 1
  49   27   47 1
  50   27   48 1

#	End of record

