#	Name: ASD01150685
#	Creating user name:	WinNT
#	Creation time:	15. 06. 2019 19:04

#	Modifying user name:	WinNT
#	Modification time:	15. 06. 2019 19:04

#	Program:	/corina/corina34_cracker 3.40 0067  02.08.2006

@<TRIPOS>MOLECULE
ASD01150685
  38   40    0    0    0
SMALL
NO_CHARGES


@<TRIPOS>ATOM
   1 C1            -0.0193     1.5035     0.0055 C.2     
   2 C2            -0.7581     1.3213     1.3062 C.3     
   3 C3             3.6968     3.5034    -0.0559 C.ar    
   4 C4             2.5383     4.2852    -0.1318 C.ar    
   5 C5             1.2785     3.6323    -0.1129 C.ar    
   6 C6             1.2552     2.2277    -0.0185 C.ar    
   7 C7             2.4708     1.5331     0.0527 C.ar    
   8 N8             3.6133     2.1715     0.0324 N.ar    
   9 C9             2.8421     5.7017    -0.2214 C.2     
  10 C10            4.1278     5.9940    -0.2154 C.2     
  11 S11            5.1127     4.5497    -0.0904 S.3     
  12 C12            0.0216     4.4078    -0.1898 C.ar    
  13 C13           -0.8212     4.2691    -1.2939 C.ar    
  14 C14           -1.9924     4.9951    -1.3592 C.ar    
  15 C15           -2.3322     5.8596    -0.3338 C.ar    
  16 C16           -1.5010     6.0022     0.7632 C.ar    
  17 C17           -0.3299     5.2774     0.8439 C.ar    
  18 C18            2.4621     0.0296     0.1540 C.3     
  19 C19            1.7705     6.7572    -0.3145 C.3     
  20 C20            4.6804     7.3935    -0.2997 C.3     
  21 O21           -0.4767     1.0466    -1.0211 O.2     
  22 H22           -1.3917     2.1892     1.4889 H       
  23 H23           -1.3764     0.4254     1.2505 H       
  24 H24           -0.0405     1.2175     2.1202 H       
  25 H25           -0.5568     3.5951    -2.0953 H       
  26 H26           -2.6453     4.8886    -2.2129 H       
  27 H27           -3.2500     6.4259    -0.3900 H       
  28 H28           -1.7718     6.6789     1.5601 H       
  29 H29            0.3158     5.3862     1.7028 H       
  30 H30            2.3888    -0.4015    -0.8444 H       
  31 H31            3.3834    -0.3079     0.6288 H       
  32 H32            1.6077    -0.2894     0.7511 H       
  33 H33            1.4913     7.0809     0.6882 H       
  34 H34            2.1480     7.6094    -0.8795 H       
  35 H35            0.8971     6.3446    -0.8194 H       
  36 H36            4.7930     7.8008     0.7050 H       
  37 H37            5.6517     7.3715    -0.7938 H       
  38 H38            3.9961     8.0206    -0.8713 H       
@<TRIPOS>BOND
   1    1    2 1
   2    1    6 1
   3    1   21 2
   4    2   22 1
   5    2   23 1
   6    2   24 1
   7    3    4 ar
   8    3    8 ar
   9    3   11 1
  10    4    5 ar
  11    4    9 1
  12    5    6 ar
  13    5   12 1
  14    6    7 ar
  15    7    8 ar
  16    7   18 1
  17    9   10 2
  18    9   19 1
  19   10   11 1
  20   10   20 1
  21   12   13 ar
  22   12   17 ar
  23   13   14 ar
  24   13   25 1
  25   14   15 ar
  26   14   26 1
  27   15   16 ar
  28   15   27 1
  29   16   17 ar
  30   16   28 1
  31   17   29 1
  32   18   30 1
  33   18   31 1
  34   18   32 1
  35   19   33 1
  36   19   34 1
  37   19   35 1
  38   20   36 1
  39   20   37 1
  40   20   38 1

#	End of record

