#	Name: ASD01810188
#	Creating user name:	WinNT
#	Creation time:	15. 06. 2019 19:24

#	Modifying user name:	WinNT
#	Modification time:	15. 06. 2019 19:24

#	Program:	/corina/corina34_cracker 3.40 0067  02.08.2006

@<TRIPOS>MOLECULE
ASD01810188
  38   40    0    0    0
SMALL
NO_CHARGES


@<TRIPOS>ATOM
   1 C1             0.1036     1.4766     0.3843 C.ar    
   2 C2             0.0846     0.0903     0.3760 C.ar    
   3 C3             1.2532    -0.6304     0.2365 C.ar    
   4 C4             2.4703     0.0349     0.1015 C.ar    
   5 C5             2.4880     1.4401     0.1095 C.ar    
   6 C6             1.2974     2.1572     0.2520 C.ar    
   7 N7             3.6447    -0.6745    -0.0381 N.pl3   
   8 C8             4.8383    -0.0823    -0.1701 C.2     
   9 C9             4.9814     1.2905    -0.1766 C.2     
  10 C10            3.7815     2.1314    -0.0341 C.2     
  11 O11            3.8549     3.3478    -0.0338 O.2     
  12 C12            6.3094     1.9025    -0.3234 C.2     
  13 O13            6.4363     3.2446    -0.3283 O.3     
  14 O14            7.2935     1.1985    -0.4404 O.2     
  15 C15            3.5837    -2.1382    -0.0416 C.3     
  16 C16            3.4399    -2.6316    -1.4583 C.ar    
  17 C17            4.5594    -2.7758    -2.2563 C.ar    
  18 C18            4.4308    -3.2279    -3.5569 C.ar    
  19 C19            3.1827    -3.5365    -4.0617 C.ar    
  20 C20            2.0575    -3.3930    -3.2626 C.ar    
  21 C21            2.1898    -2.9448    -1.9566 C.ar    
  22 F22            1.3142     3.5080     0.2594 F       
  23 F23            1.2173    -1.9810     0.2314 F       
  24 O24            0.8284    -3.6956    -3.7571 O.3     
  25 C25            0.7682    -4.1562    -5.1085 C.3     
  26 F26            1.5234    -5.3269    -5.2363 F       
  27 F27           -0.5620    -4.4195    -5.4527 F       
  28 F28            1.2843    -3.1732    -5.9597 F       
  29 H29           -0.8199     2.0264     0.4902 H       
  30 H30           -0.8553    -0.4314     0.4803 H       
  31 H31            5.7184    -0.6994    -0.2746 H       
  32 H32            7.3299     3.6007    -0.4275 H       
  33 H33            4.4988    -2.5410     0.3923 H       
  34 H34            2.7271    -2.4676     0.5465 H       
  35 H35            5.5362    -2.5347    -1.8636 H       
  36 H36            5.3069    -3.3394    -4.1785 H       
  37 H37            3.0827    -3.8889    -5.0777 H       
  38 H38            1.3156    -2.8323    -1.3326 H       
@<TRIPOS>BOND
   1    1    2 ar
   2    1    6 ar
   3    1   29 1
   4    2    3 ar
   5    2   30 1
   6    3    4 ar
   7    3   23 1
   8    4    5 ar
   9    4    7 1
  10    5    6 ar
  11    5   10 1
  12    6   22 1
  13    7    8 1
  14    7   15 1
  15    8    9 2
  16    8   31 1
  17    9   10 1
  18    9   12 1
  19   10   11 2
  20   12   13 1
  21   12   14 2
  22   13   32 1
  23   15   16 1
  24   15   33 1
  25   15   34 1
  26   16   17 ar
  27   16   21 ar
  28   17   18 ar
  29   17   35 1
  30   18   19 ar
  31   18   36 1
  32   19   20 ar
  33   19   37 1
  34   20   21 ar
  35   20   24 1
  36   21   38 1
  37   24   25 1
  38   25   26 1
  39   25   27 1
  40   25   28 1

#	End of record

