#	Name: ASD01940281
#	Creating user name:	WinNT
#	Creation time:	15. 06. 2019 20:12

#	Modifying user name:	WinNT
#	Modification time:	15. 06. 2019 20:12

#	Program:	/corina/corina34_cracker 3.40 0067  02.08.2006

@<TRIPOS>MOLECULE
ASD01940281
  42   43    0    0    0
SMALL
NO_CHARGES


@<TRIPOS>ATOM
   1 C1             0.6509     1.9447     3.3464 C.2     
   2 C2             0.2121     0.7119     3.2847 C.2     
   3 C3             0.4342    -0.1055     2.0382 C.3     
   4 C4             1.1569    -1.3789     2.3947 C.ar    
   5 C5             2.4920    -1.3386     2.7522 C.ar    
   6 C6             3.1601    -2.5058     3.0809 C.ar    
   7 F7             4.4645    -2.4606     3.4299 F       
   8 C8             2.4934    -3.7203     3.0530 C.ar    
   9 C9             1.1527    -3.7668     2.6948 C.ar    
  10 C10            0.4809    -2.5896     2.3694 C.ar    
  11 N11           -0.8735    -2.6300     2.0123 N.am    
  12 S12           -2.0272    -2.8991     3.1694 S.o2    
  13 O13           -3.2591    -2.7615     2.4747 O.2     
  14 O14           -1.6519    -4.1373     3.7571 O.2     
  15 C15           -1.8080    -1.5409     4.3517 C.3     
  16 N16            0.4753    -4.9936     2.6656 N.pl3   
  17 C17            0.2488    -5.6955     3.8534 C.ar    
  18 C18            0.5268    -5.1012     5.0768 C.ar    
  19 C19            0.3015    -5.7973     6.2489 C.ar    
  20 C20           -0.2003    -7.0847     6.2055 C.ar    
  21 C21           -0.4786    -7.6817     4.9890 C.ar    
  22 C22           -0.2612    -6.9896     3.8124 C.ar    
  23 F23           -0.5383    -7.5704     2.6245 F       
  24 C24           -0.4444    -7.8398     7.4867 C.3     
  25 F25            3.1474    -4.8581     3.3738 F       
  26 H26            1.1717     2.3753     2.5040 H       
  27 H27            0.4878     2.5319     4.2380 H       
  28 H28           -0.3087     0.2812     4.1271 H       
  29 H29           -0.5278    -0.3479     1.5865 H       
  30 H30            1.0340     0.4668     1.3305 H       
  31 H31            3.0152    -0.3941     2.7747 H       
  32 H32           -1.1353    -2.5003     1.0873 H       
  33 H33           -2.0219    -0.5924     3.8592 H       
  34 H34           -2.4900    -1.6763     5.1912 H       
  35 H35           -0.7804    -1.5380     4.7152 H       
  36 H36            0.1636    -5.3555     1.8214 H       
  37 H37            0.9193    -4.0956     5.1123 H       
  38 H38            0.5181    -5.3350     7.2006 H       
  39 H39           -0.8703    -8.6878     4.9588 H       
  40 H40           -1.4605    -7.6500     7.8324 H       
  41 H41           -0.3144    -8.9075     7.3095 H       
  42 H42            0.2652    -7.5082     8.2447 H       
@<TRIPOS>BOND
   1    1    2 2
   2    1   26 1
   3    1   27 1
   4    2    3 1
   5    2   28 1
   6    3    4 1
   7    3   29 1
   8    3   30 1
   9    4    5 ar
  10    4   10 ar
  11    5    6 ar
  12    5   31 1
  13    6    7 1
  14    6    8 ar
  15    8    9 ar
  16    8   25 1
  17    9   10 ar
  18    9   16 1
  19   10   11 1
  20   11   12 am
  21   11   32 1
  22   12   13 2
  23   12   14 2
  24   12   15 1
  25   15   33 1
  26   15   34 1
  27   15   35 1
  28   16   17 1
  29   16   36 1
  30   17   18 ar
  31   17   22 ar
  32   18   19 ar
  33   18   37 1
  34   19   20 ar
  35   19   38 1
  36   20   21 ar
  37   20   24 1
  38   21   22 ar
  39   21   39 1
  40   22   23 1
  41   24   40 1
  42   24   41 1
  43   24   42 1

#	End of record

