#	Name: ASD01918171
#	Creating user name:	WinNT
#	Creation time:	15. 06. 2019 20:10

#	Modifying user name:	WinNT
#	Modification time:	15. 06. 2019 20:10

#	Program:	/corina/corina34_cracker 3.40 0067  02.08.2006

@<TRIPOS>MOLECULE
ASD01918171
  45   48    0    0    0
SMALL
NO_CHARGES


@<TRIPOS>ATOM
   1 C1             0.1038     1.6121    -0.1480 C.ar    
   2 C2             0.1514     0.2817    -0.5868 C.ar    
   3 C3             1.3579    -0.3204    -0.7823 C.ar    
   4 C4             2.5454     0.3697    -0.5513 C.ar    
   5 C5             2.5342     1.6623    -0.1244 C.ar    
   6 C6             1.3083     2.3164     0.0876 C.ar    
   7 N7             1.2685     3.5869     0.5056 N.ar    
   8 C8             0.1315     4.2108     0.7074 C.ar    
   9 C9            -1.0924     3.5894     0.4995 C.ar    
  10 C10           -1.1293     2.2751     0.0613 C.ar    
  11 S11           -2.5919     4.4694     0.7857 S.o2    
  12 O12           -2.2180     5.7563     1.2582 O.2     
  13 O13           -3.4008     4.2687    -0.3652 O.2     
  14 C14           -3.4190     3.6703     2.1207 C.ar    
  15 C15           -4.3962     2.7271     1.8629 C.ar    
  16 C16           -3.0867     3.9824     3.4257 C.ar    
  17 C17           -3.7356     3.3555     4.4730 C.ar    
  18 C18           -4.7171     2.4168     4.2153 C.ar    
  19 C19           -5.0450     2.1002     2.9102 C.ar    
  20 N20           -2.3357     1.6290    -0.1613 N.3     
  21 C21           -2.6713     1.6186    -1.5914 C.3     
  22 C22           -4.0235     0.9823    -1.7854 C.ar    
  23 C23           -6.4049     1.1785    -1.9379 C.ar    
  24 C24           -6.5042    -0.1851    -2.1419 C.ar    
  25 C25           -5.3636    -0.9660    -2.1612 C.ar    
  26 C26           -4.1233    -0.3822    -1.9833 C.ar    
  27 C27           -5.1646     1.7622    -1.7599 C.ar    
  28 H28           -0.7632    -0.2631    -0.7687 H       
  29 H29            1.3939    -1.3456    -1.1201 H       
  30 H30            3.4898    -0.1285    -0.7131 H       
  31 H31            3.4639     2.1832     0.0508 H       
  32 H32            0.1485     5.2366     1.0450 H       
  33 H33           -4.6529     2.4803     0.8434 H       
  34 H34           -2.3198     4.7157     3.6270 H       
  35 H35           -3.4755     3.5988     5.4926 H       
  36 H36           -5.2238     1.9268     5.0335 H       
  37 H37           -5.8088     1.3636     2.7089 H       
  38 H38           -2.3184     0.6921     0.2129 H       
  39 H39           -2.6941     2.6418    -1.9666 H       
  40 H40           -1.9196     1.0482    -2.1369 H       
  41 H41           -7.2960     1.7885    -1.9228 H       
  42 H42           -7.4732    -0.6412    -2.2810 H       
  43 H43           -5.4412    -2.0313    -2.3206 H       
  44 H44           -3.2321    -0.9921    -1.9992 H       
  45 H45           -5.0870     2.8276    -1.6005 H       
@<TRIPOS>BOND
   1    1    2 ar
   2    1    6 ar
   3    1   10 ar
   4    2    3 ar
   5    2   28 1
   6    3    4 ar
   7    3   29 1
   8    4    5 ar
   9    4   30 1
  10    5    6 ar
  11    5   31 1
  12    6    7 ar
  13    7    8 ar
  14    8    9 ar
  15    8   32 1
  16    9   10 ar
  17    9   11 1
  18   10   20 1
  19   11   12 2
  20   11   13 2
  21   11   14 1
  22   14   16 ar
  23   14   15 ar
  24   15   19 ar
  25   15   33 1
  26   16   17 ar
  27   16   34 1
  28   17   18 ar
  29   17   35 1
  30   18   19 ar
  31   18   36 1
  32   19   37 1
  33   20   21 1
  34   20   38 1
  35   21   22 1
  36   21   39 1
  37   21   40 1
  38   22   27 ar
  39   22   26 ar
  40   23   24 ar
  41   23   27 ar
  42   23   41 1
  43   24   25 ar
  44   24   42 1
  45   25   26 ar
  46   25   43 1
  47   26   44 1
  48   27   45 1

#	End of record

