#	Name: ASD04590821
#	Creating user name:	WinNT
#	Creation time:	15. 06. 2019 20:51

#	Modifying user name:	WinNT
#	Modification time:	15. 06. 2019 20:51

#	Program:	/corina/corina34_cracker 3.40 0067  02.08.2006

@<TRIPOS>MOLECULE
ASD04590821
  51   56    0    0    0
SMALL
NO_CHARGES


@<TRIPOS>ATOM
   1 N1            -0.0170     1.3231    -0.0113 N.ar    
   2 C2             0.0017    -0.0035    -0.0049 C.ar    
   3 N3             1.1297    -0.6949    -0.0118 N.ar    
   4 C4             2.3049    -0.0730    -0.0260 C.ar    
   5 C5             2.3189     1.3364    -0.0335 C.ar    
   6 C6             1.1072     2.0201    -0.0254 C.ar    
   7 N7             3.6030    -0.5197    -0.0361 N.pl3   
   8 C8             4.4823     0.5493    -0.0502 C.ar    
   9 C9             3.7312     1.7383    -0.0492 C.ar    
  10 C10            5.8680     0.6415    -0.0644 C.ar    
  11 N11            6.4613     1.8177    -0.0763 N.ar    
  12 C12            5.7851     2.9529    -0.0757 C.ar    
  13 C13            4.4065     2.9582    -0.0626 C.ar    
  14 N14           -1.2023    -0.6889     0.0098 N.pl3   
  15 C15           -2.3990     0.0100     0.1300 C.ar    
  16 N16           -2.3853     1.3202     0.3311 N.ar    
  17 N17           -3.4643     2.0053     0.4479 N.ar    
  18 C18           -4.6653     1.4476     0.3752 C.ar    
  19 C19           -4.7802     0.0693     0.1648 C.ar    
  20 C20           -3.6160    -0.6663     0.0334 C.ar    
  21 C21           -5.8829     2.2824     0.5171 C.ar    
  22 C22           -5.7878     3.6610     0.7282 C.ar    
  23 C23           -6.9460     4.4003     0.8542 C.ar    
  24 N24           -8.1296     3.8228     0.7783 N.ar    
  25 C25           -8.2633     2.5255     0.5800 C.ar    
  26 C26           -7.1571     1.7131     0.4374 C.ar    
  27 C27            4.0016    -1.9294    -0.0317 C.3     
  28 C28            3.4612    -2.6261     1.2294 C.3     
  29 C29            2.5279    -3.7544     0.7439 C.3     
  30 C30            3.0197    -4.0627    -0.6921 C.3     
  31 C31            3.3778    -2.6587    -1.2395 C.3     
  32 H32            1.0849     3.0999    -0.0309 H       
  33 H33            6.4644    -0.2589    -0.0654 H       
  34 H34            6.3205     3.8908    -0.0858 H       
  35 H35            3.8598     3.8896    -0.0620 H       
  36 H36           -1.2107    -1.6561    -0.0636 H       
  37 H37           -5.7483    -0.4054     0.1028 H       
  38 H38           -3.6478    -1.7333    -0.1307 H       
  39 H39           -4.8220     4.1402     0.7921 H       
  40 H40           -6.8826     5.4660     1.0175 H       
  41 H41           -9.2519     2.0941     0.5245 H       
  42 H42           -7.2739     0.6517     0.2754 H       
  43 H43            5.0880    -2.0101    -0.0664 H       
  44 H44            4.2854    -3.0456     1.8064 H       
  45 H45            2.9025    -1.9153     1.8382 H       
  46 H46            2.6303    -4.6340     1.3794 H       
  47 H47            1.4929    -3.4128     0.7276 H       
  48 H48            3.9004    -4.7045    -0.6693 H       
  49 H49            2.2247    -4.5167    -1.2835 H       
  50 H50            2.4800    -2.1402    -1.5762 H       
  51 H51            4.1004    -2.7388    -2.0517 H       
@<TRIPOS>BOND
   1    1    2 ar
   2    1    6 ar
   3    2    3 ar
   4    2   14 1
   5    3    4 ar
   6    4    5 ar
   7    4    7 1
   8    5    6 ar
   9    5    9 1
  10    6   32 1
  11    7    8 1
  12    7   27 1
  13    8    9 ar
  14    8   10 ar
  15    9   13 ar
  16   10   11 ar
  17   10   33 1
  18   11   12 ar
  19   12   13 ar
  20   12   34 1
  21   13   35 1
  22   14   15 1
  23   14   36 1
  24   15   16 ar
  25   15   20 ar
  26   16   17 ar
  27   17   18 ar
  28   18   19 ar
  29   18   21 1
  30   19   20 ar
  31   19   37 1
  32   20   38 1
  33   21   22 ar
  34   21   26 ar
  35   22   23 ar
  36   22   39 1
  37   23   24 ar
  38   23   40 1
  39   24   25 ar
  40   25   26 ar
  41   25   41 1
  42   26   42 1
  43   27   28 1
  44   27   31 1
  45   27   43 1
  46   28   29 1
  47   28   44 1
  48   28   45 1
  49   29   30 1
  50   29   46 1
  51   29   47 1
  52   30   31 1
  53   30   48 1
  54   30   49 1
  55   31   50 1
  56   31   51 1

#	End of record

