#	Name: ASD04880530
#	Creating user name:	WinNT
#	Creation time:	15. 06. 2019 20:53

#	Modifying user name:	WinNT
#	Modification time:	15. 06. 2019 20:53

#	Program:	/corina/corina34_cracker 3.40 0067  02.08.2006

@<TRIPOS>MOLECULE
ASD04880530
  67   71    0    0    0
SMALL
NO_CHARGES


@<TRIPOS>ATOM
   1 C1            -0.0046     1.3724    -0.1998 C.ar    
   2 C2             0.0172    -0.0049    -0.2633 C.ar    
   3 C3             1.2275    -0.6815    -0.3077 C.ar    
   4 C4             2.4269     0.0271    -0.2884 C.ar    
   5 C5             2.4131     1.4078    -0.2250 C.ar    
   6 C6             1.1943     2.0897    -0.1807 C.ar    
   7 C7             1.1734     3.5622    -0.1134 C.2     
   8 O8             3.6113    -0.6398    -0.3317 O.3     
   9 N9             2.2151     4.3204    -0.0910 N.2     
  10 N10            1.9267     5.6820    -0.0257 N.am    
  11 C11            0.4660     5.8583    -0.0006 C.3     
  12 C12           -0.0736     4.4158    -0.0665 C.3     
  13 C13            2.8370     6.6753     0.0096 C.2     
  14 C14            4.2768     6.3552     0.1057 C.ar    
  15 O15            2.4738     7.8348    -0.0377 O.2     
  16 O16            1.2432    -2.0394    -0.3697 O.3     
  17 C17           -0.0224    -2.7028    -0.3856 C.3     
  18 C18            4.8019     0.1502    -0.3086 C.3     
  19 C19           -0.8996     4.2137    -1.3107 C.ar    
  20 C20           -2.2052     3.7674    -1.2053 C.ar    
  21 C21           -2.9671     3.5797    -2.3396 C.ar    
  22 C22           -2.4176     3.8419    -3.5974 C.ar    
  23 C23           -1.0987     4.2928    -3.6959 C.ar    
  24 C24           -0.3506     4.4809    -2.5525 C.ar    
  25 C25           -3.2022     3.6489    -4.7797 C.1     
  26 C26           -3.8454     3.4908    -5.7489 C.1     
  27 C27           -4.6300     3.2978    -6.9312 C.ar    
  28 C28           -4.0805     3.5600    -8.1890 C.ar    
  29 C29           -4.8422     3.3720    -9.3233 C.ar    
  30 C30           -6.1475     2.9248    -9.2180 C.ar    
  31 C31           -6.6985     2.6635    -7.9758 C.ar    
  32 C32           -5.9469     2.8410    -6.8331 C.ar    
  33 C33            5.2264     7.3695    -0.0021 C.ar    
  34 C34            6.5812     7.0592     0.0902 C.ar    
  35 C35            6.9794     5.7351     0.2899 C.ar    
  36 C36            6.0335     4.7349     0.3954 C.ar    
  37 C37            4.6885     5.0362     0.3107 C.ar    
  38 C38            7.5957     8.1289    -0.0236 C.2     
  39 N39            8.9062     7.8270     0.0659 N.am    
  40 O40            7.2478     9.2804    -0.1978 O.2     
  41 H41           -0.9483     1.8968    -0.1695 H       
  42 H42           -0.9102    -0.5582    -0.2780 H       
  43 H43            3.3422     1.9582    -0.2096 H       
  44 H44            0.1544     6.3467     0.9227 H       
  45 H45            0.1335     6.4282    -0.8682 H       
  46 H46           -0.6597     4.1880     0.8238 H       
  47 H47           -0.5727    -2.4574     0.5227 H       
  48 H48           -0.5927    -2.3765    -1.2553 H       
  49 H49            0.1329    -3.7805    -0.4365 H       
  50 H50            4.8108     0.8191    -1.1692 H       
  51 H51            4.8301     0.7381     0.6088 H       
  52 H52            5.6728    -0.5040    -0.3479 H       
  53 H53           -2.6285     3.5651    -0.2326 H       
  54 H54           -3.9856     3.2306    -2.2559 H       
  55 H55           -0.6673     4.4971    -4.6647 H       
  56 H56            0.6676     4.8332    -2.6268 H       
  57 H57           -3.0620     3.9095    -8.2727 H       
  58 H58           -4.4190     3.5745   -10.2960 H       
  59 H59           -6.7393     2.7793   -10.1097 H       
  60 H60           -7.7181     2.3150    -7.9012 H       
  61 H61           -6.3767     2.6321    -5.8646 H       
  62 H62            4.9134     8.3915    -0.1568 H       
  63 H63            8.0295     5.4932     0.3616 H       
  64 H64            6.3468     3.7129     0.5495 H       
  65 H65            3.9535     4.2498     0.3989 H       
  66 H66            9.1838     6.9080     0.2049 H       
  67 H67            9.5717     8.5287    -0.0088 H       
@<TRIPOS>BOND
   1    1    2 ar
   2    1    6 ar
   3    1   41 1
   4    2    3 ar
   5    2   42 1
   6    3    4 ar
   7    3   16 1
   8    4    5 ar
   9    4    8 1
  10    5    6 ar
  11    5   43 1
  12    6    7 1
  13    7    9 2
  14    7   12 1
  15    8   18 1
  16    9   10 1
  17   10   11 1
  18   10   13 am
  19   11   12 1
  20   11   44 1
  21   11   45 1
  22   12   19 1
  23   12   46 1
  24   13   14 1
  25   13   15 2
  26   14   33 ar
  27   14   37 ar
  28   16   17 1
  29   17   47 1
  30   17   48 1
  31   17   49 1
  32   18   50 1
  33   18   51 1
  34   18   52 1
  35   19   20 ar
  36   19   24 ar
  37   20   21 ar
  38   20   53 1
  39   21   22 ar
  40   21   54 1
  41   22   23 ar
  42   22   25 1
  43   23   24 ar
  44   23   55 1
  45   24   56 1
  46   25   26 3
  47   26   27 1
  48   27   28 ar
  49   27   32 ar
  50   28   29 ar
  51   28   57 1
  52   29   30 ar
  53   29   58 1
  54   30   31 ar
  55   30   59 1
  56   31   32 ar
  57   31   60 1
  58   32   61 1
  59   33   34 ar
  60   33   62 1
  61   34   35 ar
  62   34   38 1
  63   35   36 ar
  64   35   63 1
  65   36   37 ar
  66   36   64 1
  67   37   65 1
  68   38   39 am
  69   38   40 2
  70   39   66 1
  71   39   67 1

#	End of record

