#	Name: ASD01870159
#	Creating user name:	WinNT
#	Creation time:	15. 06. 2019 19:38

#	Modifying user name:	WinNT
#	Modification time:	15. 06. 2019 19:38

#	Program:	/corina/corina34_cracker 3.40 0067  02.08.2006

@<TRIPOS>MOLECULE
ASD01870159
  25   26    0    0    0
SMALL
NO_CHARGES


@<TRIPOS>ATOM
   1 C1            -0.0166     1.3764     0.0096 C.ar    
   2 C2             0.0021    -0.0041     0.0020 C.ar    
   3 C3             1.2075    -0.6889    -0.0132 C.ar    
   4 C4             2.4001     0.0030    -0.0209 C.ar    
   5 C5             2.3946     1.4003    -0.0134 C.ar    
   6 C6             1.1736     2.0882     0.0021 C.ar    
   7 O7             1.1561     3.4448     0.0091 O.3     
   8 C8             3.6664     2.1471    -0.0216 C.2     
   9 O9             3.6576     3.3630    -0.0149 O.2     
  10 N10            4.8384     1.4817    -0.0364 N.am    
  11 C11            6.0362     2.1850    -0.0441 C.2     
  12 S12            6.1713     3.8893    -0.0356 S.3     
  13 Cl13           1.2153    -2.4249    -0.0220 Cl      
  14 N14            7.2146     1.6445    -0.0531 N.2     
  15 C15            8.2483     2.4653    -0.0587 C.2     
  16 C16            7.9282     3.7607    -0.0525 C.2     
  17 N17            9.6494     1.9874    -0.0687 N.pl3   
  18 O18            9.8852     0.7925    -0.0725 O.2     
  19 O19           10.5663     2.7892    -0.0732 O.2     
  20 H20           -0.9596     1.9028     0.0169 H       
  21 H21           -0.9276    -0.5536     0.0083 H       
  22 H22            3.3370    -0.5341    -0.0324 H       
  23 H23            1.1423     3.8425    -0.8722 H       
  24 H24            4.8455     0.5118    -0.0416 H       
  25 H25            8.6246     4.5862    -0.0558 H       
@<TRIPOS>BOND
   1    1    2 ar
   2    1    6 ar
   3    1   20 1
   4    2    3 ar
   5    2   21 1
   6    3    4 ar
   7    3   13 1
   8    4    5 ar
   9    4   22 1
  10    5    6 ar
  11    5    8 1
  12    6    7 1
  13    7   23 1
  14    8    9 2
  15    8   10 am
  16   10   11 1
  17   10   24 1
  18   11   12 1
  19   11   14 2
  20   12   16 1
  21   14   15 1
  22   15   16 2
  23   15   17 1
  24   16   25 1
  25   17   18 2
  26   17   19 2

#	End of record

