#	Name: ASD08070087
#	Creating user name:	WinNT
#	Creation time:	15. 06. 2019 21:14

#	Modifying user name:	WinNT
#	Modification time:	15. 06. 2019 21:14

#	Program:	/corina/corina34_cracker 3.40 0067  02.08.2006

@<TRIPOS>MOLECULE
ASD08070087
  42   42    0    0    0
SMALL
NO_CHARGES


@<TRIPOS>ATOM
   1 C1            -0.0166     1.3737     0.0096 C.ar    
   2 C2             0.0021    -0.0041     0.0020 C.ar    
   3 C3             1.1690     2.0896     0.0021 C.ar    
   4 C4             2.3853     1.4280    -0.0136 C.ar    
   5 C5             2.4205     0.0371    -0.0214 C.ar    
   6 C6             1.2217    -0.6864    -0.0129 C.ar    
   7 C7             1.2460    -2.1616    -0.0206 C.2     
   8 O8             2.3088    -2.7521    -0.0344 O.2     
   9 C9            -1.1908    -4.8478    -0.6191 C.3     
  10 C10            0.1141    -4.3194    -0.0200 C.3     
  11 N11            0.0901    -2.8546    -0.0123 N.am    
  12 C12            0.2628    -4.8345     1.4130 C.3     
  13 C13           -1.2798    -4.4368    -2.0901 C.3     
  14 C14           -2.5848    -4.9652    -2.6892 C.3     
  15 O15            3.5455     2.1377    -0.0217 O.3     
  16 C16            1.6237    -4.4102     1.9688 C.3     
  17 C17            1.7724    -4.9254     3.4018 C.3     
  18 C18            3.4345     3.5623    -0.0134 C.3     
  19 O19            3.6108    -0.6152    -0.0368 O.3     
  20 H20           -0.9607     1.8981     0.0169 H       
  21 H21           -0.9258    -0.5567     0.0079 H       
  22 H22            1.1447     3.1693     0.0082 H       
  23 H23           -1.2111    -5.9350    -0.5437 H       
  24 H24           -2.0366    -4.4299    -0.0732 H       
  25 H25            0.9558    -4.6658    -0.6198 H       
  26 H26           -0.7578    -2.3835    -0.0013 H       
  27 H27           -0.5296    -4.4161     2.0336 H       
  28 H28            0.1917    -5.9222     1.4173 H       
  29 H29           -1.2595    -3.3496    -2.1654 H       
  30 H30           -0.4340    -4.8547    -2.6360 H       
  31 H31           -2.6051    -6.0524    -2.6138 H       
  32 H32           -3.4306    -4.5472    -2.1433 H       
  33 H33           -2.6482    -4.6723    -3.7372 H       
  34 H34            2.4161    -4.8287     1.3483 H       
  35 H35            1.6948    -3.3226     1.9645 H       
  36 H36            2.7419    -4.6231     3.7978 H       
  37 H37            0.9800    -4.5069     4.0224 H       
  38 H38            1.7012    -6.0130     3.4062 H       
  39 H39            4.4309     4.0044    -0.0212 H       
  40 H40            2.8851     3.8892    -0.8962 H       
  41 H41            2.9031     3.8802     0.8836 H       
  42 H42            3.9645    -0.8089     0.8421 H       
@<TRIPOS>BOND
   1    1    2 ar
   2    1    3 ar
   3    1   20 1
   4    2    6 ar
   5    2   21 1
   6    3    4 ar
   7    3   22 1
   8    4    5 ar
   9    4   15 1
  10    5    6 ar
  11    5   19 1
  12    6    7 1
  13    7    8 2
  14    7   11 am
  15    9   10 1
  16    9   13 1
  17    9   23 1
  18    9   24 1
  19   10   12 1
  20   10   11 1
  21   10   25 1
  22   11   26 1
  23   12   16 1
  24   12   27 1
  25   12   28 1
  26   13   14 1
  27   13   29 1
  28   13   30 1
  29   14   31 1
  30   14   32 1
  31   14   33 1
  32   15   18 1
  33   16   17 1
  34   16   34 1
  35   16   35 1
  36   17   36 1
  37   17   37 1
  38   17   38 1
  39   18   39 1
  40   18   40 1
  41   18   41 1
  42   19   42 1

#	End of record

