#	Name: ASD03092064
#	Creating user name:	WinNT
#	Creation time:	15. 06. 2019 20:31

#	Modifying user name:	WinNT
#	Modification time:	15. 06. 2019 20:31

#	Program:	/corina/corina34_cracker 3.40 0067  02.08.2006

@<TRIPOS>MOLECULE
ASD03092064
  46   48    0    0    0
SMALL
NO_CHARGES


@<TRIPOS>ATOM
   1 N1             0.2787     0.9001    -0.3971 N.pl3   
   2 C2             0.0769    -0.3560     0.0931 C.2     
   3 C3            -1.2642    -0.5009     0.3078 C.2     
   4 C4            -1.8887     0.6970    -0.0615 C.2     
   5 N5            -0.9671     1.5353    -0.4765 N.2     
   6 N6            -3.2625     0.9588     0.0064 N.pl3   
   7 C7            -3.7454     2.2390    -0.2818 C.ar    
   8 C8            -5.0261     2.3999    -0.7940 C.ar    
   9 C9            -5.5015     3.6674    -1.0779 C.ar    
  10 C10           -4.6996     4.7758    -0.8510 C.ar    
  11 C11           -2.9467     3.3519    -0.0508 C.ar    
  12 C12            1.1190    -1.3750     0.3459 C.ar    
  13 C13            1.5699     1.4840    -0.7687 C.3     
  14 C14            2.3544    -1.3179    -0.3089 C.ar    
  15 C15            3.2975    -2.2888    -0.0433 C.ar    
  16 N16            3.0468    -3.2605     0.8132 N.ar    
  17 C17            1.8955    -3.3514     1.4518 C.ar    
  18 C18            0.8989    -2.4198     1.2509 C.ar    
  19 C19            1.6691    -4.4855     2.4181 C.3     
  20 C20            1.8072     1.2813    -2.2430 C.2     
  21 N21            2.9395     1.7395    -2.8126 N.am    
  22 C22           -3.4228     4.6157    -0.3408 C.ar    
  23 F23           -6.7470     3.8256    -1.5767 F       
  24 O24            0.9793     0.7058    -2.9170 O.2     
  25 C25            3.1701     1.5425    -4.2458 C.3     
  26 C26            3.9396     2.4347    -1.9985 C.3     
  27 F27           -5.1649     6.0134    -1.1286 F       
  28 H28           -1.7553    -1.3820     0.6936 H       
  29 H29           -3.8793     0.2520     0.2534 H       
  30 H30           -5.6500     1.5363    -0.9709 H       
  31 H31           -1.9521     3.2287     0.3517 H       
  32 H32            1.5642     2.5507    -0.5449 H       
  33 H33            2.3647     0.9982    -0.2026 H       
  34 H34            2.5661    -0.5257    -1.0118 H       
  35 H35            4.2540    -2.2533    -0.5436 H       
  36 H36           -0.0408    -2.5002     1.7772 H       
  37 H37            1.9925    -4.1840     3.4144 H       
  38 H38            0.6088    -4.7371     2.4409 H       
  39 H39            2.2422    -5.3556     2.0978 H       
  40 H40           -2.7996     5.4802    -0.1655 H       
  41 H41            2.3239     1.0103    -4.6803 H       
  42 H42            3.2788     2.5115    -4.7329 H       
  43 H43            4.0793     0.9590    -4.3907 H       
  44 H44            4.6498     1.7107    -1.5990 H       
  45 H45            4.4691     3.1608    -2.6152 H       
  46 H46            3.4439     2.9496    -1.1755 H       
@<TRIPOS>BOND
   1    1    2 1
   2    1   13 1
   3    1    5 1
   4    2    3 2
   5    2   12 1
   6    3    4 1
   7    3   28 1
   8    4    5 2
   9    4    6 1
  10    6    7 1
  11    6   29 1
  12    7    8 ar
  13    7   11 ar
  14    8    9 ar
  15    8   30 1
  16    9   10 ar
  17    9   23 1
  18   10   22 ar
  19   10   27 1
  20   11   22 ar
  21   11   31 1
  22   12   14 ar
  23   12   18 ar
  24   13   20 1
  25   13   32 1
  26   13   33 1
  27   14   15 ar
  28   14   34 1
  29   15   16 ar
  30   15   35 1
  31   16   17 ar
  32   17   18 ar
  33   17   19 1
  34   18   36 1
  35   19   37 1
  36   19   38 1
  37   19   39 1
  38   20   21 am
  39   20   24 2
  40   21   25 1
  41   21   26 1
  42   22   40 1
  43   25   41 1
  44   25   42 1
  45   25   43 1
  46   26   44 1
  47   26   45 1
  48   26   46 1

#	End of record

