#	Name: ASD05513046
#	Creating user name:	WinNT
#	Creation time:	15. 06. 2019 21:01

#	Modifying user name:	WinNT
#	Modification time:	15. 06. 2019 21:01

#	Program:	/corina/corina34_cracker 3.40 0067  02.08.2006

@<TRIPOS>MOLECULE
ASD05513046
  29   31    0    0    0
SMALL
NO_CHARGES


@<TRIPOS>ATOM
   1 C1            -0.0108     1.4053     0.4153 C.2     
   2 C2             0.0021    -0.0041     0.0020 C.2     
   3 C3             1.1835    -0.6675    -0.1155 C.2     
   4 C4             2.5226    -0.0876    -0.3457 C.ar    
   5 C5             3.4205    -1.1646    -0.3924 C.ar    
   6 N6             2.7252    -2.3556    -0.2075 N.am    
   7 C7             1.4108    -2.1349    -0.0339 C.2     
   8 C8             2.9802     1.2187    -0.5053 C.ar    
   9 C9             4.3243     1.4525    -0.7103 C.ar    
  10 C10            5.2147     0.3908    -0.7576 C.ar    
  11 C11            4.7702    -0.9090    -0.5998 C.ar    
  12 O12            0.5600    -2.9826     0.1496 O.2     
  13 O13            1.0190     1.9427     0.7760 O.2     
  14 C14           -1.2739     2.1721     0.3870 C.ar    
  15 C15           -2.4621     1.5684    -0.0305 C.ar    
  16 N16           -3.5871     2.2521    -0.0560 N.ar    
  17 C17           -3.6409     3.5195     0.3071 C.ar    
  18 C18           -2.5075     4.1899     0.7332 C.ar    
  19 C19           -1.3010     3.5157     0.7842 C.ar    
  20 Cl20           6.9039     0.6962    -1.0167 Cl      
  21 H21           -0.9266    -0.5136    -0.2085 H       
  22 H22            3.1374    -3.2337    -0.2011 H       
  23 H23            2.2855     2.0448    -0.4690 H       
  24 H24            4.6832     2.4635    -0.8345 H       
  25 H25            5.4738    -1.7274    -0.6387 H       
  26 H26           -2.4581     0.5324    -0.3354 H       
  27 H27           -4.5850     4.0427     0.2708 H       
  28 H28           -2.5655     5.2276     1.0270 H       
  29 H29           -0.4011     4.0145     1.1128 H       
@<TRIPOS>BOND
   1    1    2 1
   2    1   13 2
   3    1   14 1
   4    2    3 2
   5    2   21 1
   6    3    4 1
   7    3    7 1
   8    4    5 ar
   9    4    8 ar
  10    5    6 1
  11    5   11 ar
  12    6    7 am
  13    6   22 1
  14    7   12 2
  15    8    9 ar
  16    8   23 1
  17    9   10 ar
  18    9   24 1
  19   10   11 ar
  20   10   20 1
  21   11   25 1
  22   14   15 ar
  23   14   19 ar
  24   15   16 ar
  25   15   26 1
  26   16   17 ar
  27   17   18 ar
  28   17   27 1
  29   18   19 ar
  30   18   28 1
  31   19   29 1

#	End of record

