#	Name: ASD01510136
#	Creating user name:	WinNT
#	Creation time:	15. 06. 2019 19:21

#	Modifying user name:	WinNT
#	Modification time:	15. 06. 2019 19:21

#	Program:	/corina/corina34_cracker 3.40 0067  02.08.2006

@<TRIPOS>MOLECULE
ASD01510136
  61   65    0    0    0
SMALL
NO_CHARGES


@<TRIPOS>ATOM
   1 Cl1           -1.8498    -3.5850     6.7929 Cl      
   2 Cl2            0.1422    -5.9597     6.4236 Cl      
   3 O3            -0.0175     1.4396     0.0100 O.3     
   4 O4             1.6946    -1.6365    -0.7020 O.3     
   5 O5             3.1861     0.2837     0.2238 O.3     
   6 O6             0.7841     4.2241    -0.1188 O.3     
   7 N7            -1.2718    -0.5346    -0.4899 N.pl3   
   8 N8            -3.0690    -1.7769    -0.6464 N.2     
   9 N9            -1.5856    -2.3171     1.1447 N.pl3   
  10 N10           -1.8092     0.9029    -2.4587 N.ar    
  11 N11           -3.7895     0.3819    -3.5306 N.ar    
  12 N12           -5.1992    -1.3744    -2.8238 N.pl3   
  13 N13           -2.6027    10.1450     2.8614 N.1     
  14 C14            1.1511    -0.3447    -0.9809 C.3     
  15 C15            0.0021    -0.0041     0.0020 C.3     
  16 C16            2.1828     0.7673    -0.6715 C.3     
  17 C17            1.3514     1.8779    -0.0008 C.3     
  18 C18            1.4758     3.1761    -0.8009 C.3     
  19 C19           -1.9736    -1.5801     0.0441 C.2     
  20 C20           -1.9852    -0.0688    -1.5703 C.ar    
  21 C21           -3.1326    -0.8741    -1.6574 C.ar    
  22 C22            0.8387     5.4867    -0.7858 C.3     
  23 C23           -4.0496    -0.6127    -2.6879 C.ar    
  24 C24           -2.4263    -3.4174     1.6229 C.3     
  25 C25           -2.6960     1.1117    -3.4097 C.ar    
  26 C26            0.0809     6.5123     0.0173 C.ar    
  27 C27           -1.7826    -4.0547     2.8273 C.ar    
  28 C28            0.7384     7.2538     0.9829 C.ar    
  29 C29           -1.2678     6.7121    -0.2183 C.ar    
  30 C30           -2.0746    -3.5873     4.0947 C.ar    
  31 C31           -0.9046    -5.1102     2.6641 C.ar    
  32 C32            0.0509     8.1942     1.7217 C.ar    
  33 C33           -1.9674     7.6496     0.5129 C.ar    
  34 C34           -1.4838    -4.1720     5.2007 C.ar    
  35 C35           -0.3139    -5.6958     3.7679 C.ar    
  36 C36           -1.3115     8.3973     1.4929 C.ar    
  37 C37           -0.6004    -5.2252     5.0369 C.ar    
  38 C38           -2.0315     9.3719     2.2560 C.1     
  39 H39            0.8101    -0.2831    -2.0143 H       
  40 H40            0.2212    -0.3904     0.9974 H       
  41 H41            2.6382     1.1321    -1.5922 H       
  42 H42            1.6983     2.0350     1.0206 H       
  43 H43            1.0395     3.0364    -1.7900 H       
  44 H44            2.5282     3.4411    -0.9021 H       
  45 H45            2.4169    -1.8948    -1.2907 H       
  46 H46            3.7015    -0.4562    -0.1256 H       
  47 H47           -0.7562    -2.1065     1.6016 H       
  48 H48            1.8779     5.7997    -0.8868 H       
  49 H49            0.3892     5.3950    -1.7746 H       
  50 H50           -3.4082    -3.0318     1.8971 H       
  51 H51           -2.5355    -4.1609     0.8333 H       
  52 H52           -2.5230     1.9103    -4.1159 H       
  53 H53           -5.8250    -1.1844    -3.5401 H       
  54 H54           -5.3780    -2.0976    -2.2026 H       
  55 H55            1.7922     7.0956     1.1588 H       
  56 H56           -1.7738     6.1331    -0.9766 H       
  57 H57           -2.7636    -2.7654     4.2218 H       
  58 H58           -0.6805    -5.4776     1.6735 H       
  59 H59            0.5651     8.7718     2.4756 H       
  60 H60           -3.0201     7.8046     0.3280 H       
  61 H61            0.3712    -6.5207     3.6397 H       
@<TRIPOS>BOND
   1    1   34 1
   2    2   37 1
   3    3   15 1
   4    3   17 1
   5    4   45 1
   6    4   14 1
   7    5   46 1
   8    5   16 1
   9    6   18 1
  10    6   22 1
  11    7   19 1
  12    7   20 1
  13    7   15 1
  14    8   19 2
  15    8   21 1
  16    9   19 1
  17    9   24 1
  18    9   47 1
  19   10   20 ar
  20   10   25 ar
  21   11   23 ar
  22   11   25 ar
  23   12   23 1
  24   12   53 1
  25   12   54 1
  26   13   38 3
  27   14   15 1
  28   14   39 1
  29   14   16 1
  30   15   40 1
  31   16   41 1
  32   16   17 1
  33   17   18 1
  34   17   42 1
  35   18   43 1
  36   18   44 1
  37   20   21 ar
  38   21   23 ar
  39   22   26 1
  40   22   48 1
  41   22   49 1
  42   24   27 1
  43   24   50 1
  44   24   51 1
  45   25   52 1
  46   26   28 ar
  47   26   29 ar
  48   27   30 ar
  49   27   31 ar
  50   28   32 ar
  51   28   55 1
  52   29   33 ar
  53   29   56 1
  54   30   34 ar
  55   30   57 1
  56   31   35 ar
  57   31   58 1
  58   32   36 ar
  59   32   59 1
  60   33   36 ar
  61   33   60 1
  62   34   37 ar
  63   35   37 ar
  64   35   61 1
  65   36   38 1

#	End of record

