#	Name: ASD01811844
#	Creating user name:	WinNT
#	Creation time:	15. 06. 2019 19:27

#	Modifying user name:	WinNT
#	Modification time:	15. 06. 2019 19:27

#	Program:	/corina/corina34_cracker 3.40 0067  02.08.2006

@<TRIPOS>MOLECULE
ASD01811844
  66   71    0    0    0
SMALL
NO_CHARGES


@<TRIPOS>ATOM
   1 C1             0.3720     2.1431     0.1783 C.3     
   2 C2             0.2384     0.6643    -0.0716 C.2     
   3 C3             0.8869    -0.1980     0.7069 C.2     
   4 C4             1.7495     0.3458     1.7775 C.ar    
   5 C5             2.1238     1.6906     1.7174 C.ar    
   6 N6             1.7188     2.4768     0.6444 N.3     
   7 C7             1.8245     3.9056     0.9691 C.3     
   8 C8             2.1820    -0.4683     2.8292 C.ar    
   9 C9             2.9659     0.0432     3.8230 C.ar    
  10 C10            3.3381     1.3886     3.7965 C.ar    
  11 C11            2.9142     2.2269     2.7414 C.ar    
  12 C12            4.1745     1.9798     4.8510 C.2     
  13 N13            4.4791     3.2937     4.7428 N.am    
  14 C14            4.0214     4.0267     3.6930 C.2     
  15 N15            3.2840     3.5317     2.7462 N.2     
  16 O16            4.5774     1.3127     5.7863 O.2     
  17 C17            5.3096     3.9327     5.7667 C.3     
  18 C18            4.5264     5.0734     6.4197 C.3     
  19 C19            5.3937     5.7407     7.4890 C.3     
  20 C20            6.6627     6.2986     6.8414 C.3     
  21 C21            7.4458     5.1579     6.1884 C.3     
  22 C22            6.5785     4.4906     5.1191 C.3     
  23 O23            3.3412     4.5524     7.0246 O.3     
  24 C24            1.7796    -1.9201     2.8660 C.3     
  25 C25            0.4402    -2.0531     3.5438 C.ar    
  26 C26           -0.7239    -2.1087     2.7902 C.ar    
  27 C27           -1.9336    -2.2309     3.4510 C.ar    
  28 C28           -1.9414    -2.2937     4.8428 C.ar    
  29 N29           -0.8057    -2.2368     5.5267 N.ar    
  30 C30            0.3600    -2.1266     4.9217 C.ar    
  31 C31           -3.2297    -2.4248     5.5661 C.2     
  32 C32           -4.5000    -2.5959     4.9807 C.2     
  33 N33           -5.3822    -2.6714     5.9413 N.2     
  34 N34           -4.7167    -2.5526     7.1673 N.pl3   
  35 C35           -3.4004    -2.4076     6.9205 C.2     
  36 C36           -5.3435    -2.5859     8.4911 C.3     
  37 H37            0.1696     2.6823    -0.7471 H       
  38 H38           -0.3533     2.4455     0.9337 H       
  39 H39           -0.3817     0.3050    -0.8795 H       
  40 H40            0.7859    -1.2634     0.5615 H       
  41 H41            2.8751     4.1941     1.0014 H       
  42 H42            1.3103     4.4906     0.2066 H       
  43 H43            1.3665     4.0922     1.9405 H       
  44 H44            3.2979    -0.5929     4.6302 H       
  45 H45            4.2842     5.0732     3.6446 H       
  46 H46            5.5813     3.1980     6.5247 H       
  47 H47            4.2547     5.8081     5.6617 H       
  48 H48            4.8358     6.5534     7.9542 H       
  49 H49            5.6655     5.0061     8.2470 H       
  50 H50            6.3910     7.0333     6.0834 H       
  51 H51            7.2806     6.7740     7.6032 H       
  52 H52            8.3498     5.5553     5.7270 H       
  53 H53            7.7175     4.4232     6.9463 H       
  54 H54            7.1364     3.6779     4.6539 H       
  55 H55            6.3068     5.2252     4.3611 H       
  56 H56            2.7945     5.2214     7.4587 H       
  57 H57            1.7114    -2.3041     1.8481 H       
  58 H58            2.5254    -2.4900     3.4201 H       
  59 H59           -0.6865    -2.0573     1.7120 H       
  60 H60           -2.8587    -2.2766     2.8956 H       
  61 H61            1.2640    -2.0835     5.5110 H       
  62 H62           -4.7081    -2.6541     3.9225 H       
  63 H63           -2.6217    -2.2925     7.6600 H       
  64 H64           -5.3761    -3.6140     8.8519 H       
  65 H65           -4.7630    -1.9761     9.1834 H       
  66 H66           -6.3577    -2.1925     8.4229 H       
@<TRIPOS>BOND
   1    1    2 1
   2    1    6 1
   3    1   37 1
   4    1   38 1
   5    2    3 2
   6    2   39 1
   7    3    4 1
   8    3   40 1
   9    4    5 ar
  10    4    8 ar
  11    5    6 1
  12    5   11 ar
  13    6    7 1
  14    7   41 1
  15    7   42 1
  16    7   43 1
  17    8    9 ar
  18    8   24 1
  19    9   10 ar
  20    9   44 1
  21   10   11 ar
  22   10   12 1
  23   11   15 1
  24   12   13 am
  25   12   16 2
  26   13   14 1
  27   13   17 1
  28   14   15 2
  29   14   45 1
  30   17   18 1
  31   17   22 1
  32   17   46 1
  33   18   19 1
  34   18   23 1
  35   18   47 1
  36   19   20 1
  37   19   48 1
  38   19   49 1
  39   20   21 1
  40   20   50 1
  41   20   51 1
  42   21   22 1
  43   21   52 1
  44   21   53 1
  45   22   54 1
  46   22   55 1
  47   23   56 1
  48   24   25 1
  49   24   57 1
  50   24   58 1
  51   25   26 ar
  52   25   30 ar
  53   26   27 ar
  54   26   59 1
  55   27   28 ar
  56   27   60 1
  57   28   29 ar
  58   28   31 1
  59   29   30 ar
  60   30   61 1
  61   31   32 1
  62   31   35 2
  63   32   33 2
  64   32   62 1
  65   33   34 1
  66   34   35 1
  67   34   36 1
  68   35   63 1
  69   36   64 1
  70   36   65 1
  71   36   66 1

#	End of record

