#	Name: ASD04590240
#	Creating user name:	WinNT
#	Creation time:	15. 06. 2019 20:50

#	Modifying user name:	WinNT
#	Modification time:	15. 06. 2019 20:50

#	Program:	/corina/corina34_cracker 3.40 0067  02.08.2006

@<TRIPOS>MOLECULE
ASD04590240
  56   59    0    0    0
SMALL
NO_CHARGES


@<TRIPOS>ATOM
   1 N1            -0.0947     1.5975     0.9164 N.pl3   
   2 N2            -0.1082     0.2166     1.1413 N.2     
   3 C3             1.1234    -0.2275     1.1219 C.2     
   4 C4             1.9798     0.8768     0.8792 C.2     
   5 C5             1.1773     1.9940     0.7576 C.2     
   6 N6             1.5230    -1.5531     1.3079 N.am    
   7 C7             3.4481     0.8390     0.7763 C.2     
   8 O8             4.0396    -0.2161     0.9034 O.2     
   9 N9             4.1365     1.9735     0.5412 N.am    
  10 C10            5.5975     1.9359     0.4387 C.3     
  11 C11            6.0816     3.1161    -0.4081 C.3     
  12 C12            7.6110     3.1064    -0.4609 C.3     
  13 N13            8.1497     3.2049     0.9016 N.3     
  14 C14            7.7369     2.0577     1.7201 C.3     
  15 C15            6.2113     2.0361     1.8380 C.3     
  16 C16            0.6005    -2.5099     1.5318 C.2     
  17 O17           -0.5795    -2.2192     1.5719 O.2     
  18 C18            1.0224    -3.9097     1.7282 C.ar    
  19 C19            1.1354    -4.7709     0.6313 C.ar    
  20 C20            1.5313    -6.0810     0.8245 C.ar    
  21 C21            1.8150    -6.5414     2.0975 C.ar    
  22 C22            1.7054    -5.6970     3.1874 C.ar    
  23 C23            1.3173    -4.3821     3.0117 C.ar    
  24 F24            1.2113    -3.5588     4.0776 F       
  25 F25            0.8580    -4.3235    -0.6128 F       
  26 C26            9.9896     4.7628     0.4714 C.3     
  27 C27            9.6126     3.3377     0.8811 C.3     
  28 C28            9.5189     5.7725     1.5362 C.3     
  29 C29           11.5284     4.9297     0.4442 C.3     
  30 C30           11.7131     6.3399     1.0603 C.3     
  31 O31           10.6931     6.3980     2.0805 O.3     
  32 H32           -0.8753     2.1720     0.8775 H       
  33 H33            1.5125     3.0031     0.5684 H       
  34 H34            2.4643    -1.7850     1.2759 H       
  35 H35            3.6647     2.8149     0.4397 H       
  36 H36            5.9059     1.0010    -0.0292 H       
  37 H37            5.6821     3.0273    -1.4184 H       
  38 H38            5.7388     4.0494     0.0386 H       
  39 H39            7.9527     2.1789    -0.9203 H       
  40 H40            7.9595     3.9538    -1.0513 H       
  41 H41            8.0780     1.1351     1.2504 H       
  42 H42            8.1768     2.1434     2.7137 H       
  43 H43            5.8705     2.9524     2.3200 H       
  44 H44            5.9043     1.1756     2.4325 H       
  45 H45            1.6191    -6.7472    -0.0210 H       
  46 H46            2.1235    -7.5664     2.2413 H       
  47 H47            1.9281    -6.0649     4.1781 H       
  48 H48            9.5621     5.0069    -0.5011 H       
  49 H49           10.0105     3.1278     1.8739 H       
  50 H50           10.0315     2.6309     0.1648 H       
  51 H51            8.8779     6.5245     1.0761 H       
  52 H52            8.9762     5.2526     2.3256 H       
  53 H53           12.0129     4.1705     1.0583 H       
  54 H54           11.9050     4.8995    -0.5782 H       
  55 H55           12.7044     6.4388     1.5025 H       
  56 H56           11.5483     7.1118     0.3085 H       
@<TRIPOS>BOND
   1    1    2 1
   2    1    5 1
   3    1   32 1
   4    2    3 2
   5    3    4 1
   6    3    6 1
   7    4    5 2
   8    4    7 1
   9    5   33 1
  10    6   16 am
  11    6   34 1
  12    7    8 2
  13    7    9 am
  14    9   10 1
  15    9   35 1
  16   10   11 1
  17   10   15 1
  18   10   36 1
  19   11   12 1
  20   11   37 1
  21   11   38 1
  22   12   13 1
  23   12   39 1
  24   12   40 1
  25   13   14 1
  26   13   27 1
  27   14   15 1
  28   14   41 1
  29   14   42 1
  30   15   43 1
  31   15   44 1
  32   16   17 2
  33   16   18 1
  34   18   19 ar
  35   18   23 ar
  36   19   20 ar
  37   19   25 1
  38   20   21 ar
  39   20   45 1
  40   21   22 ar
  41   21   46 1
  42   22   23 ar
  43   22   47 1
  44   23   24 1
  45   26   28 1
  46   26   29 1
  47   26   27 1
  48   26   48 1
  49   27   49 1
  50   27   50 1
  51   28   31 1
  52   28   51 1
  53   28   52 1
  54   29   30 1
  55   29   53 1
  56   29   54 1
  57   30   31 1
  58   30   55 1
  59   30   56 1

#	End of record

