#	Name: ASD01814057
#	Creating user name:	WinNT
#	Creation time:	15. 06. 2019 19:31

#	Modifying user name:	WinNT
#	Modification time:	15. 06. 2019 19:31

#	Program:	/corina/corina34_cracker 3.40 0067  02.08.2006

@<TRIPOS>MOLECULE
ASD01814057
  41   43    0    0    0
SMALL
NO_CHARGES


@<TRIPOS>ATOM
   1 C1             7.1668     1.3566    -0.2554 C.ar    
   2 C2             7.1473    -0.0297    -0.2687 C.ar    
   3 C3             5.9545    -0.7192    -0.1888 C.ar    
   4 C4             4.7517    -0.0220    -0.0929 C.ar    
   5 C5             4.7730     1.3832    -0.0790 C.ar    
   6 C6             5.9878     2.0684    -0.1611 C.ar    
   7 N7             3.5534    -0.7000    -0.0130 N.pl3   
   8 C8             2.3721    -0.0765     0.0800 C.2     
   9 C9             2.2667     1.2996     0.1024 C.2     
  10 C10            3.4942     2.1084     0.0227 C.2     
  11 F11            6.0085     3.4192    -0.1473 F       
  12 O12            3.4544     3.3262     0.0391 O.2     
  13 C13            0.9511     1.9465     0.2041 C.2     
  14 O14            0.8611     3.2914     0.2251 O.3     
  15 O15           -0.0560     1.2688     0.2693 O.2     
  16 C16            3.5739    -2.1647    -0.0311 C.3     
  17 C17            3.4323    -2.6515    -1.4503 C.ar    
  18 C18            4.5478    -2.7444    -2.2623 C.ar    
  19 C19            4.4214    -3.1902    -3.5634 C.ar    
  20 C20            3.1726    -3.5458    -4.0558 C.ar    
  21 C21            2.0544    -3.4518    -3.2376 C.ar    
  22 C22            2.1882    -3.0098    -1.9360 C.ar    
  23 N23            3.0411    -3.9974    -5.3736 N.am    
  24 F24            5.9529    -2.0702    -0.2040 F       
  25 C25            4.0757    -4.6100    -5.9824 C.2     
  26 C26            3.9710    -5.0024    -7.4337 C.3     
  27 O27            5.0911    -4.8455    -5.3623 O.2     
  28 H28            8.1087     1.8817    -0.3145 H       
  29 H29            8.0759    -0.5760    -0.3428 H       
  30 H30            1.4718    -0.6700     0.1391 H       
  31 H31           -0.0256     3.6710     0.2930 H       
  32 H32            4.5177    -2.5201     0.3825 H       
  33 H33            2.7476    -2.5471     0.5682 H       
  34 H34            5.5187    -2.4678    -1.8788 H       
  35 H35            5.2929    -3.2619    -4.1973 H       
  36 H36            1.0818    -3.7275    -3.6176 H       
  37 H37            1.3190    -2.9368    -1.2990 H       
  38 H38            2.2053    -3.8695    -5.8490 H       
  39 H39            4.3256    -4.1825    -8.0582 H       
  40 H40            4.5804    -5.8876    -7.6156 H       
  41 H41            2.9312    -5.2209    -7.6768 H       
@<TRIPOS>BOND
   1    1    2 ar
   2    1    6 ar
   3    1   28 1
   4    2    3 ar
   5    2   29 1
   6    3    4 ar
   7    3   24 1
   8    4    5 ar
   9    4    7 1
  10    5    6 ar
  11    5   10 1
  12    6   11 1
  13    7    8 1
  14    7   16 1
  15    8    9 2
  16    8   30 1
  17    9   10 1
  18    9   13 1
  19   10   12 2
  20   13   14 1
  21   13   15 2
  22   14   31 1
  23   16   17 1
  24   16   32 1
  25   16   33 1
  26   17   18 ar
  27   17   22 ar
  28   18   19 ar
  29   18   34 1
  30   19   20 ar
  31   19   35 1
  32   20   21 ar
  33   20   23 1
  34   21   22 ar
  35   21   36 1
  36   22   37 1
  37   23   25 am
  38   23   38 1
  39   25   26 1
  40   25   27 2
  41   26   39 1
  42   26   40 1
  43   26   41 1

#	End of record

