#	Name: ASD01328032
#	Creating user name:	WinNT
#	Creation time:	15. 06. 2019 19:16

#	Modifying user name:	WinNT
#	Modification time:	15. 06. 2019 19:16

#	Program:	/corina/corina34_cracker 3.40 0067  02.08.2006

@<TRIPOS>MOLECULE
ASD01328032
  28   28    0    0    0
SMALL
NO_CHARGES


@<TRIPOS>ATOM
   1 O1            -0.0173     1.4248     0.0099 O.3     
   2 C2             0.0021    -0.0041     0.0020 C.3     
   3 C3            -1.4059    -2.0642    -0.0564 C.3     
   4 O4            -2.7428    -2.5645    -0.1208 O.3     
   5 C5            -0.6372    -2.4934    -1.3099 C.3     
   6 O6            -0.5419    -3.9187    -1.3469 O.3     
   7 C7             0.7682    -1.8876    -1.2697 C.3     
   8 O8             0.6697    -0.4652    -1.1743 O.3     
   9 C9             1.5221    -2.2624    -2.5472 C.3     
  10 O10            2.8701    -1.7965    -2.4588 O.3     
  11 C11           -1.4341    -0.5342     0.0129 C.3     
  12 P12            3.9527    -2.0170    -3.6299 P.3     
  13 O13            4.0453    -3.4588    -3.9510 O.2     
  14 O14            3.4970    -1.2032    -4.9422 O.3     
  15 O15            5.3902    -1.4830    -3.1395 O.3     
  16 H16            0.8606     1.8301     0.0037 H       
  17 H17            0.5296    -0.3653     0.8848 H       
  18 H18           -0.9101    -2.4615     0.8293 H       
  19 H19           -3.2878    -2.3297     0.6428 H       
  20 H20           -1.1618    -2.1402    -2.1977 H       
  21 H21           -1.3971    -4.3697    -1.3688 H       
  22 H22            1.3058    -2.2736    -0.4036 H       
  23 H23            1.5192    -3.3459    -2.6662 H       
  24 H24            1.0339    -1.8012    -3.4057 H       
  25 H25           -1.9313    -0.2203     0.9307 H       
  26 H26           -1.9742    -0.1405    -0.8481 H       
  27 H27            3.4154    -0.2495    -4.8050 H       
  28 H28            6.0925    -1.5845    -3.7964 H       
@<TRIPOS>BOND
   1    1    2 1
   2    1   16 1
   3    2   11 1
   4    2    8 1
   5    2   17 1
   6    3    4 1
   7    3    5 1
   8    3   11 1
   9    3   18 1
  10    4   19 1
  11    5    6 1
  12    5    7 1
  13    5   20 1
  14    6   21 1
  15    7    8 1
  16    7    9 1
  17    7   22 1
  18    9   10 1
  19    9   23 1
  20    9   24 1
  21   10   12 1
  22   11   25 1
  23   11   26 1
  24   12   13 2
  25   12   14 1
  26   12   15 1
  27   14   27 1
  28   15   28 1

#	End of record

