#	Name: ASD01880293
#	Creating user name:	WinNT
#	Creation time:	15. 06. 2019 19:40

#	Modifying user name:	WinNT
#	Modification time:	15. 06. 2019 19:40

#	Program:	/corina/corina34_cracker 3.40 0067  02.08.2006

@<TRIPOS>MOLECULE
ASD01880293
  35   36    0    0    0
SMALL
NO_CHARGES


@<TRIPOS>ATOM
   1 C1            -0.0162     1.3460     0.0094 C.2     
   2 C2             0.0021    -0.0041     0.0020 C.2     
   3 N3             1.1718    -0.6969    -0.0129 N.am    
   4 C4             2.3608    -0.0669    -0.0204 C.2     
   5 C5             2.4112     1.3476    -0.0133 C.2     
   6 C6             1.1982     2.0672     0.0017 C.2     
   7 O7             3.3942    -0.7141    -0.0329 O.2     
   8 C8             1.1369    -2.1615    -0.0204 C.3     
   9 C9             1.1110    -2.6636    -1.4654 C.3     
  10 C10            3.6679     2.0340    -0.0207 C.1     
  11 N11            4.6649     2.5786    -0.0265 N.1     
  12 C12            1.1979     3.5357     0.0091 C.2     
  13 S13            1.8156     4.5492     1.3063 S.3     
  14 C14            1.4050     5.9699     0.4554 C.2     
  15 C15            0.8425     5.6770    -0.7220 C.2     
  16 C16            0.7229     4.3331    -0.9933 C.2     
  17 C17            1.0746    -4.1931    -1.4733 C.3     
  18 C18            0.9231    -4.6923    -2.9116 C.3     
  19 C19            2.3752    -4.7373    -0.8790 C.3     
  20 H20           -0.9584     1.8738     0.0168 H       
  21 H21           -0.9325    -0.5452     0.0084 H       
  22 H22            2.0229    -2.5486     0.4829 H       
  23 H23            0.2435    -2.5064     0.5001 H       
  24 H24            0.2251    -2.2765    -1.9688 H       
  25 H25            2.0044    -2.3187    -1.9860 H       
  26 H26            1.5758     6.9722     0.8195 H       
  27 H27            0.5105     6.4392    -1.4113 H       
  28 H28            0.2896     3.9474    -1.9043 H       
  29 H29            0.2301    -4.5396    -0.8776 H       
  30 H30            1.7676    -4.3459    -3.5073 H       
  31 H31            0.8972    -5.7820    -2.9172 H       
  32 H32           -0.0035    -4.3046    -3.3350 H       
  33 H33            2.3493    -5.8270    -0.8846 H       
  34 H34            3.2198    -4.3909    -1.4747 H       
  35 H35            2.4832    -4.3817     0.1457 H       
@<TRIPOS>BOND
   1    1    2 2
   2    1    6 1
   3    1   20 1
   4    2    3 1
   5    2   21 1
   6    3    4 am
   7    3    8 1
   8    4    5 1
   9    4    7 2
  10    5    6 2
  11    5   10 1
  12    6   12 1
  13    8    9 1
  14    8   22 1
  15    8   23 1
  16    9   17 1
  17    9   24 1
  18    9   25 1
  19   10   11 3
  20   12   13 1
  21   12   16 2
  22   13   14 1
  23   14   15 2
  24   14   26 1
  25   15   16 1
  26   15   27 1
  27   16   28 1
  28   17   18 1
  29   17   19 1
  30   17   29 1
  31   18   30 1
  32   18   31 1
  33   18   32 1
  34   19   33 1
  35   19   34 1
  36   19   35 1

#	End of record

