#	Name: ASD00843476
#	Creating user name:	WinNT
#	Creation time:	15. 06. 2019 18:46

#	Modifying user name:	WinNT
#	Modification time:	15. 06. 2019 18:46

#	Program:	/corina/corina34_cracker 3.40 0067  02.08.2006

@<TRIPOS>MOLECULE
ASD00843476
  94   99    0    0    0
SMALL
NO_CHARGES


@<TRIPOS>ATOM
   1 F1             5.6968    -2.5328    -1.9402 F       
   2 N2             0.9409     1.0811    -0.3015 N.ar    
   3 C3             1.1028    -0.2043    -0.5672 C.ar    
   4 C4             0.9443    -1.1585     0.4298 C.ar    
   5 C5             0.6139    -0.7472     1.7091 C.ar    
   6 C6             0.4528     0.6111     1.9469 C.ar    
   7 C7             0.6258     1.5038     0.9082 C.ar    
   8 C8             1.1293    -2.6222     0.1223 C.3     
   9 C9             0.7652    -3.4669     1.3247 C.2     
  10 C10            0.2870    -3.0243    -1.0901 C.3     
  11 C11           -1.1521    -2.6473    -0.8493 C.2     
  12 N12           -2.0998    -3.0035    -1.7389 N.am    
  13 O13           -1.4573    -2.0234     0.1449 O.2     
  14 C14           -3.4876    -2.5489    -1.5765 C.3     
  15 C15           -4.4128    -3.7695    -1.6051 C.3     
  16 C16           -4.1586    -4.5674    -2.8861 C.3     
  17 C17           -2.7095    -5.0592    -2.9036 C.3     
  18 C18           -1.7638    -3.8486    -2.8928 C.3     
  19 C19           -5.1051    -5.7685    -2.9347 C.3     
  20 C20           -6.5555    -5.2779    -2.9189 C.3     
  21 C21           -7.4966    -6.4797    -3.0292 C.3     
  22 N22           -7.2204    -7.2066    -4.2749 N.3     
  23 C23           -5.8477    -7.7280    -4.2922 C.3     
  24 C24           -4.8574    -6.5635    -4.2197 C.3     
  25 C25           -8.1959    -8.2853    -4.4823 C.3     
  26 O26           -0.3210    -3.5260     1.8612 O.2     
  27 N27            1.8711    -4.1394     1.6854 N.am    
  28 C28            2.5890    -2.9326    -0.1170 C.ar    
  29 C29            2.9592    -3.8485     0.8598 C.ar    
  30 C30            3.4981    -2.4917    -1.0520 C.ar    
  31 C31            4.8011    -2.9630    -1.0249 C.ar    
  32 C32            5.1820    -3.8768    -0.0553 C.ar    
  33 C33            4.2701    -4.3190     0.8824 C.ar    
  34 Cl34           6.8137    -4.4685    -0.0195 Cl      
  35 C35            1.5209    -6.7884     2.3447 C.ar    
  36 C36            0.2488    -7.0310     1.8478 C.ar    
  37 C37            2.4637    -7.7984     2.3494 C.ar    
  38 C38            2.1401    -9.0498     1.8591 C.ar    
  39 C39            0.8725    -9.2942     1.3632 C.ar    
  40 C40           -0.0736    -8.2880     1.3567 C.ar    
  41 H41            0.6222   -10.2727     0.9807 H       
  42 O42           -0.6804    -6.0393     1.8425 O.3     
  43 C43           -1.9694    -6.3608     1.3160 C.3     
  44 C44           -8.0346    -8.8543    -5.8933 C.3     
  45 C45           -9.0505    -9.9778    -6.1093 C.3     
  46 S46            1.9365    -5.1915     2.9626 S.o2    
  47 O47            3.2995    -5.2569     3.3592 O.2     
  48 O48            0.8874    -4.8171     3.8449 O.2     
  49 O49            1.4262    -0.5947    -1.8257 O.3     
  50 C50            1.5278     0.4297    -2.8168 C.3     
  51 C51            1.9994    -0.1830    -4.1371 C.3     
  52 F52            3.2095    -0.8550    -3.9334 F       
  53 F53            1.0372    -1.0858    -4.6022 F       
  54 H54            0.4839    -1.4664     2.5042 H       
  55 H55            0.1947     0.9655     2.9339 H       
  56 H56            0.5021     2.5615     1.0881 H       
  57 H57            0.6550    -2.5067    -1.9759 H       
  58 H58            0.3599    -4.1012    -1.2420 H       
  59 H59           -3.5936    -2.0323    -0.6226 H       
  60 H60           -3.7485    -1.8734    -2.3912 H       
  61 H61           -4.2114    -4.3990    -0.7384 H       
  62 H62           -5.4513    -3.4394    -1.5822 H       
  63 H63           -4.3362    -3.9300    -3.7522 H       
  64 H64           -2.5241    -5.6766    -2.0246 H       
  65 H65           -2.5357    -5.6471    -3.8049 H       
  66 H66           -1.8856    -3.2815    -3.8157 H       
  67 H67           -0.7327    -4.1911    -2.8053 H       
  68 H68           -4.9273    -6.4076    -2.0699 H       
  69 H69           -6.7502    -4.7476    -1.9868 H       
  70 H70           -6.7219    -4.6069    -3.7617 H       
  71 H71           -7.3393    -7.1433    -2.1789 H       
  72 H72           -8.5299    -6.1327    -3.0326 H       
  73 H73           -5.6982    -8.3858    -3.4360 H       
  74 H74           -5.6834    -8.2876    -5.2131 H       
  75 H75           -4.9971    -5.9127    -5.0829 H       
  76 H76           -3.8389    -6.9516    -4.2169 H       
  77 H77           -8.0255    -9.0749    -3.7504 H       
  78 H78           -9.2048    -7.8906    -4.3628 H       
  79 H79            3.1963    -1.7797    -1.8059 H       
  80 H80            4.5739    -5.0313     1.6352 H       
  81 H81            3.4543    -7.6101     2.7361 H       
  82 H82            2.8786    -9.8379     1.8630 H       
  83 H83           -1.0637    -8.4796     0.9700 H       
  84 H84           -2.6134    -5.4831     1.3705 H       
  85 H85           -1.8695    -6.6741     0.2768 H       
  86 H86           -2.4084    -7.1704     1.8990 H       
  87 H87           -8.2049    -8.0648    -6.6252 H       
  88 H88           -7.0256    -9.2490    -6.0128 H       
  89 H89           -8.9357   -10.3832    -7.1146 H       
  90 H90           -8.8802   -10.7674    -5.3775 H       
  91 H91          -10.0595    -9.5831    -5.9899 H       
  92 H92            0.5525     0.8947    -2.9600 H       
  93 H93            2.2447     1.1825    -2.4891 H       
  94 H94            2.1424     0.6074    -4.8739 H       
@<TRIPOS>BOND
   1    1   31 1
   2    2    3 ar
   3    2    7 ar
   4    3    4 ar
   5    3   49 1
   6    4    5 ar
   7    4    8 1
   8    5    6 ar
   9    5   54 1
  10    6    7 ar
  11    6   55 1
  12    7   56 1
  13    8    9 1
  14    8   10 1
  15    8   28 1
  16    9   26 2
  17    9   27 am
  18   10   11 1
  19   10   57 1
  20   10   58 1
  21   11   12 am
  22   11   13 2
  23   12   14 1
  24   12   18 1
  25   14   15 1
  26   14   59 1
  27   14   60 1
  28   15   16 1
  29   15   61 1
  30   15   62 1
  31   16   17 1
  32   16   19 1
  33   16   63 1
  34   17   18 1
  35   17   64 1
  36   17   65 1
  37   18   66 1
  38   18   67 1
  39   19   20 1
  40   19   24 1
  41   19   68 1
  42   20   21 1
  43   20   69 1
  44   20   70 1
  45   21   22 1
  46   21   71 1
  47   21   72 1
  48   22   23 1
  49   22   25 1
  50   23   24 1
  51   23   73 1
  52   23   74 1
  53   24   75 1
  54   24   76 1
  55   25   44 1
  56   25   77 1
  57   25   78 1
  58   27   46 am
  59   27   29 1
  60   28   29 ar
  61   28   30 ar
  62   29   33 ar
  63   30   31 ar
  64   30   79 1
  65   31   32 ar
  66   32   33 ar
  67   32   34 1
  68   33   80 1
  69   35   36 ar
  70   35   37 ar
  71   35   46 1
  72   36   42 1
  73   36   40 ar
  74   37   38 ar
  75   37   81 1
  76   38   39 ar
  77   38   82 1
  78   39   40 ar
  79   39   41 1
  80   40   83 1
  81   42   43 1
  82   43   84 1
  83   43   85 1
  84   43   86 1
  85   44   45 1
  86   44   87 1
  87   44   88 1
  88   45   89 1
  89   45   90 1
  90   45   91 1
  91   46   47 2
  92   46   48 2
  93   49   50 1
  94   50   51 1
  95   50   92 1
  96   50   93 1
  97   51   52 1
  98   51   53 1
  99   51   94 1

#	End of record

