#	Name: ASD01882009
#	Creating user name:	WinNT
#	Creation time:	15. 06. 2019 19:43

#	Modifying user name:	WinNT
#	Modification time:	15. 06. 2019 19:43

#	Program:	/corina/corina34_cracker 3.40 0067  02.08.2006

@<TRIPOS>MOLECULE
ASD01882009
  51   55    0    0    0
SMALL
NO_CHARGES


@<TRIPOS>ATOM
   1 N1             0.1092     1.0421    -0.1303 N.pl3   
   2 N2             0.1786    -0.3584    -0.1660 N.2     
   3 N3             1.4113    -0.7258    -0.1792 N.2     
   4 C4             2.2215     0.3513    -0.1545 C.ar    
   5 C5             1.4080     1.4972    -0.1229 C.ar    
   6 C6             3.6153     0.5011    -0.1551 C.ar    
   7 C7             4.1652     1.7662    -0.1248 C.ar    
   8 C8             3.3460     2.8920    -0.0933 C.ar    
   9 C9             1.9858     2.7614    -0.0927 C.ar    
  10 O10            5.5171     1.9148    -0.1254 O.3     
  11 C11            6.0229     3.2509    -0.0931 C.3     
  12 N12           10.1087     3.8512     0.9328 N.am    
  13 C13            9.6243     4.6066    -0.2306 C.3     
  14 C14            8.0934     4.6461    -0.1902 C.3     
  15 C15            7.5525     3.2174    -0.0988 C.3     
  16 C16            8.0530     2.5621     1.1905 C.3     
  17 C17            9.5834     2.4990     1.1657 C.3     
  18 C18           11.0218     4.3864     1.7673 C.2     
  19 O19           11.5338     5.4558     1.5024 O.2     
  20 O20           11.3847     2.2352     4.5183 O.3     
  21 N21           10.8550     2.5796     3.4875 N.2     
  22 C22           11.4016     3.6696     3.0092 C.2     
  23 C23           12.4338     4.0268     3.9209 C.2     
  24 C24           12.3749     3.0661     4.8720 C.2     
  25 C25           -1.1064     1.8596    -0.1112 C.3     
  26 C26           -1.5313     2.1078     1.3375 C.3     
  27 C27           -2.7185     3.0432     1.5752 C.3     
  28 C28           -2.8775     1.5362     1.7868 C.3     
  29 Cl29           4.6435    -0.8971    -0.1932 Cl      
  30 H30            3.7895     3.8765    -0.0690 H       
  31 H31            1.3592     3.6408    -0.0688 H       
  32 H32            5.6681     3.7949    -0.9685 H       
  33 H33            5.6738     3.7498     0.8109 H       
  34 H34           10.0171     5.6228    -0.1958 H       
  35 H35            9.9532     4.1167    -1.1471 H       
  36 H36            7.7670     5.2150     0.6803 H       
  37 H37            7.7177     5.1201    -1.0970 H       
  38 H38            7.8999     2.6420    -0.9569 H       
  39 H39            7.7269     3.1507     2.0480 H       
  40 H40            7.6484     1.5528     1.2664 H       
  41 H41            9.9089     1.8373     0.3631 H       
  42 H42            9.9491     2.1246     2.1218 H       
  43 H43           13.1078     4.8689     3.8664 H       
  44 H44           13.0033     2.9851     5.7466 H       
  45 H45           -0.9106     2.8135    -0.6009 H       
  46 H46           -1.9040     1.3370    -0.6392 H       
  47 H47           -0.7226     2.1255     2.0682 H       
  48 H48           -2.6911     3.6758     2.4623 H       
  49 H49           -3.1970     3.4816     0.6994 H       
  50 H50           -3.4605     0.9833     1.0502 H       
  51 H51           -2.9547     1.1775     2.8132 H       
@<TRIPOS>BOND
   1    1    2 1
   2    1    5 1
   3    1   25 1
   4    2    3 2
   5    3    4 1
   6    4    5 ar
   7    4    6 ar
   8    5    9 ar
   9    6    7 ar
  10    6   29 1
  11    7    8 ar
  12    7   10 1
  13    8    9 ar
  14    8   30 1
  15    9   31 1
  16   10   11 1
  17   11   15 1
  18   11   32 1
  19   11   33 1
  20   12   13 1
  21   12   17 1
  22   12   18 am
  23   13   14 1
  24   13   34 1
  25   13   35 1
  26   14   15 1
  27   14   36 1
  28   14   37 1
  29   15   16 1
  30   15   38 1
  31   16   17 1
  32   16   39 1
  33   16   40 1
  34   17   41 1
  35   17   42 1
  36   18   19 2
  37   18   22 1
  38   20   21 1
  39   20   24 1
  40   21   22 2
  41   22   23 1
  42   23   24 2
  43   23   43 1
  44   24   44 1
  45   25   26 1
  46   25   45 1
  47   25   46 1
  48   26   27 1
  49   26   28 1
  50   26   47 1
  51   27   28 1
  52   27   48 1
  53   27   49 1
  54   28   50 1
  55   28   51 1

#	End of record

