#	Name: ASD03082187
#	Creating user name:	WinNT
#	Creation time:	15. 06. 2019 20:27

#	Modifying user name:	WinNT
#	Modification time:	15. 06. 2019 20:27

#	Program:	/corina/corina34_cracker 3.40 0067  02.08.2006

@<TRIPOS>MOLECULE
ASD03082187
  40   42    0    0    0
SMALL
NO_CHARGES


@<TRIPOS>ATOM
   1 C1             0.0483     1.4351    -0.2107 C.ar    
   2 C2             0.0243     0.1139     0.2175 C.ar    
   3 C3             1.1683    -0.4580     0.7605 C.ar    
   4 C4             2.3246     0.2882     0.8727 C.ar    
   5 C5             2.3449     1.6036     0.4458 C.ar    
   6 C6             1.2085     2.1757    -0.0954 C.ar    
   7 N7            -1.1478    -0.6382     0.1028 N.pl3   
   8 H8            -1.0973    -1.5982    -0.0265 H       
   9 C9            -2.3916    -0.0078     0.1744 C.2     
  10 N10           -3.5715    -0.5995    -0.0159 N.2     
  11 N11           -2.5882     1.2623     0.4455 N.2     
  12 N12           -3.9758     1.4764     0.4176 N.pl3   
  13 C13           -4.5397     0.2832     0.1257 C.2     
  14 C14           -4.6739     2.7413     0.6603 C.3     
  15 C15           -5.9890     0.0155    -0.0118 C.ar    
  16 C16           -6.8901     1.0544    -0.2748 C.ar    
  17 C17           -8.2323     0.7639    -0.3964 C.ar    
  18 N18           -8.6738    -0.4732    -0.2681 N.ar    
  19 C19           -7.8590    -1.4855    -0.0196 C.ar    
  20 C20           -6.4936    -1.2812     0.1115 C.ar    
  21 O21           -4.8188     3.4496    -0.5723 O.3     
  22 O22           -8.3645    -2.7387     0.1037 O.3     
  23 C23           -9.7779    -2.8858    -0.0468 C.3     
  24 C24            3.5659    -0.3313     1.4616 C.3     
  25 F25            4.3223    -0.9192     0.4420 F       
  26 F26            4.3256     0.6583     2.0945 F       
  27 F27            3.2019    -1.3080     2.3947 F       
  28 H28           -0.8378     1.8813    -0.6373 H       
  29 H29            1.1529    -1.4849     1.0947 H       
  30 H30            3.2506     2.1851     0.5351 H       
  31 H31            1.2277     3.2031    -0.4278 H       
  32 H32           -5.6589     2.5379     1.0804 H       
  33 H33           -4.0978     3.3457     1.3610 H       
  34 H34           -6.5383     2.0700    -0.3806 H       
  35 H35           -8.9328     1.5605    -0.5992 H       
  36 H36           -5.8319    -2.1104     0.3141 H       
  37 H37           -5.2735     4.2987    -0.4870 H       
  38 H38          -10.2878    -2.2886     0.7092 H       
  39 H39          -10.0749    -2.5464    -1.0391 H       
  40 H40          -10.0490    -3.9345     0.0749 H       
@<TRIPOS>BOND
   1    1    2 ar
   2    1    6 ar
   3    1   28 1
   4    2    3 ar
   5    2    7 1
   6    3    4 ar
   7    3   29 1
   8    4    5 ar
   9    4   24 1
  10    5    6 ar
  11    5   30 1
  12    6   31 1
  13    7    8 1
  14    7    9 1
  15    9   10 1
  16    9   11 2
  17   10   13 2
  18   11   12 1
  19   12   13 1
  20   12   14 1
  21   13   15 1
  22   14   21 1
  23   14   32 1
  24   14   33 1
  25   15   16 ar
  26   15   20 ar
  27   16   17 ar
  28   16   34 1
  29   17   18 ar
  30   17   35 1
  31   18   19 ar
  32   19   20 ar
  33   19   22 1
  34   20   36 1
  35   21   37 1
  36   22   23 1
  37   23   38 1
  38   23   39 1
  39   23   40 1
  40   24   25 1
  41   24   26 1
  42   24   27 1

#	End of record

