#	Name: ASD01150861
#	Creating user name:	WinNT
#	Creation time:	15. 06. 2019 19:05

#	Modifying user name:	WinNT
#	Modification time:	15. 06. 2019 19:05

#	Program:	/corina/corina34_cracker 3.40 0067  02.08.2006

@<TRIPOS>MOLECULE
ASD01150861
  56   58    0    0    0
SMALL
NO_CHARGES


@<TRIPOS>ATOM
   1 C1            -0.2072     1.3742     0.0474 C.3     
   2 C2             0.0278    -0.0951    -0.1909 C.2     
   3 N3             0.4071    -0.8909     0.8286 N.am    
   4 O4            -0.1245    -0.5616    -1.2999 O.2     
   5 C5             0.6240    -2.2472     0.6087 C.2     
   6 N6             0.4937    -2.8862    -0.5563 N.2     
   7 C7             0.7772    -4.1638    -0.4041 C.2     
   8 N8             1.1075    -4.3998     0.8918 N.pl3   
   9 C9             1.0207    -3.1777     1.5606 C.2     
  10 C10            1.1108     2.0443     0.4408 C.3     
  11 O11           -0.7095     1.9761    -1.1474 O.3     
  12 C12           -1.4506     3.1063    -1.0044 C.ar    
  13 C13           -2.0633     3.6798    -2.1091 C.ar    
  14 C14           -2.8161     4.8286    -1.9611 C.ar    
  15 C15           -2.9593     5.4068    -0.7133 C.ar    
  16 C16           -2.3493     4.8374     0.3891 C.ar    
  17 C17           -1.6005     3.6851     0.2474 C.ar    
  18 C18            1.2752    -2.9382     2.9262 C.2     
  19 O19            1.6474    -3.9559     3.7323 O.3     
  20 O20            1.1596    -1.8137     3.3791 O.2     
  21 C21            1.8891    -3.6410     5.1050 C.3     
  22 C22            2.2972    -4.9105     5.8552 C.3     
  23 S23            0.7336    -5.3764    -1.6816 S.3     
  24 C24            0.2251    -4.3434    -3.0782 C.3     
  25 C25            1.4873    -5.6890     1.4750 C.3     
  26 C26            2.9808    -5.8644     1.3765 C.ar    
  27 C27            3.7976    -5.4224     2.4004 C.ar    
  28 C28            5.1676    -5.5832     2.3101 C.ar    
  29 C29            5.7208    -6.1864     1.1960 C.ar    
  30 C30            4.9039    -6.6292     0.1725 C.ar    
  31 C31            3.5336    -6.4723     0.2648 C.ar    
  32 H32           -0.9330     1.5006     0.8507 H       
  33 H33            0.5289    -0.5178     1.7157 H       
  34 H34            1.4939     1.5851     1.3521 H       
  35 H35            1.8366     1.9179    -0.3626 H       
  36 H36            0.9409     3.1071     0.6131 H       
  37 H37           -1.9515     3.2288    -3.0840 H       
  38 H38           -3.2929     5.2757    -2.8208 H       
  39 H39           -3.5482     6.3049    -0.5997 H       
  40 H40           -2.4621     5.2913     1.3626 H       
  41 H41           -1.1243     3.2407     1.1089 H       
  42 H42            2.6904    -2.9052     5.1734 H       
  43 H43            0.9816    -3.2323     5.5493 H       
  44 H44            2.4816    -4.6703     6.9023 H       
  45 H45            1.4960    -5.6463     5.7869 H       
  46 H46            3.2048    -5.3192     5.4109 H       
  47 H47            0.1481    -4.9577    -3.9754 H       
  48 H48           -0.7433    -3.8921    -2.8627 H       
  49 H49            0.9644    -3.5585    -3.2377 H       
  50 H50            1.1865    -5.7168     2.5222 H       
  51 H51            0.9905    -6.4935     0.9327 H       
  52 H52            3.3655    -4.9511     3.2708 H       
  53 H53            5.8058    -5.2373     3.1097 H       
  54 H54            6.7912    -6.3114     1.1251 H       
  55 H55            5.3361    -7.1002    -0.6980 H       
  56 H56            2.8954    -6.8183    -0.5348 H       
@<TRIPOS>BOND
   1    1    2 1
   2    1   10 1
   3    1   11 1
   4    1   32 1
   5    2    3 am
   6    2    4 2
   7    3    5 1
   8    3   33 1
   9    5    6 1
  10    5    9 2
  11    6    7 2
  12    7    8 1
  13    7   23 1
  14    8    9 1
  15    8   25 1
  16    9   18 1
  17   10   34 1
  18   10   35 1
  19   10   36 1
  20   11   12 1
  21   12   13 ar
  22   12   17 ar
  23   13   14 ar
  24   13   37 1
  25   14   15 ar
  26   14   38 1
  27   15   16 ar
  28   15   39 1
  29   16   17 ar
  30   16   40 1
  31   17   41 1
  32   18   19 1
  33   18   20 2
  34   19   21 1
  35   21   22 1
  36   21   42 1
  37   21   43 1
  38   22   44 1
  39   22   45 1
  40   22   46 1
  41   23   24 1
  42   24   47 1
  43   24   48 1
  44   24   49 1
  45   25   26 1
  46   25   50 1
  47   25   51 1
  48   26   27 ar
  49   26   31 ar
  50   27   28 ar
  51   27   52 1
  52   28   29 ar
  53   28   53 1
  54   29   30 ar
  55   29   54 1
  56   30   31 ar
  57   30   55 1
  58   31   56 1

#	End of record

