#	Name: ASD01001133
#	Creating user name:	WinNT
#	Creation time:	15. 06. 2019 18:55

#	Modifying user name:	WinNT
#	Modification time:	15. 06. 2019 18:55

#	Program:	/corina/corina34_cracker 3.40 0067  02.08.2006

@<TRIPOS>MOLECULE
ASD01001133
  52   54    0    0    0
SMALL
NO_CHARGES


@<TRIPOS>ATOM
   1 C1             0.3007     0.9021     0.6568 C.2     
   2 S2             0.0111    -0.8310     0.5916 S.3     
   3 C3             1.6734    -1.1633     0.7848 C.2     
   4 C4             2.3790    -0.0310     0.8891 C.2     
   5 C5             1.6392     1.1256     0.8209 C.2     
   6 C6            -0.7272     1.9404     0.5465 C.2     
   7 O7            -0.4142     3.1151     0.6047 O.2     
   8 N8            -2.0192     1.5946     0.3806 N.am    
   9 C9            -4.3839     4.6516     0.1372 C.2     
  10 C10           -5.1247     3.5429     0.0271 C.2     
  11 C11           -4.3258     2.3336     0.1067 C.2     
  12 C12           -2.9910     2.5762     0.2763 C.2     
  13 S13           -2.6867     4.2500     0.3411 S.3     
  14 C14           -4.8939     0.9854     0.0145 C.2     
  15 O15           -5.0970     0.4838    -1.0758 O.2     
  16 N16           -5.1915     0.3013     1.1369 N.am    
  17 C17           -5.8606    -0.9988     1.0467 C.3     
  18 C18           -4.8105    -2.1077     0.9554 C.3     
  19 C19           -6.0510     1.6087     3.0167 C.3     
  20 C20           -4.8457     0.8577     2.4473 C.3     
  21 C21           -4.9431     6.0609     0.0967 C.3     
  22 C22           -6.3555     6.0132    -0.4923 C.3     
  23 C23           -7.1651     4.9370     0.2372 C.3     
  24 C24           -6.6335     3.5565    -0.1601 C.3     
  25 C25           -7.0247     5.1284     1.7487 C.3     
  26 C26           -8.6387     5.0495    -0.1589 C.3     
  27 H27            2.0993    -2.1552     0.8188 H       
  28 H28            3.4513    -0.0262     1.0179 H       
  29 H29            2.0724     2.1125     0.8902 H       
  30 H30           -2.2686     0.6583     0.3342 H       
  31 H31           -6.4758    -1.1531     1.9331 H       
  32 H32           -6.4915    -1.0218     0.1581 H       
  33 H33           -4.1953    -1.9534     0.0689 H       
  34 H34           -4.1796    -2.0847     1.8439 H       
  35 H35           -5.3084    -3.0750     0.8882 H       
  36 H36           -5.8266     1.9405     4.0304 H       
  37 H37           -6.2686     2.4741     2.3908 H       
  38 H38           -6.9165     0.9463     3.0344 H       
  39 H39           -4.5687     0.0492     3.1238 H       
  40 H40           -4.0067     1.5453     2.3401 H       
  41 H41           -4.9820     6.4678     1.1072 H       
  42 H42           -4.3075     6.6885    -0.5281 H       
  43 H43           -6.8374     6.9823    -0.3630 H       
  44 H44           -6.3000     5.7709    -1.5536 H       
  45 H45           -6.8794     3.3565    -1.2030 H       
  46 H46           -7.0837     2.7946     0.4762 H       
  47 H47           -7.3981     6.1141     2.0264 H       
  48 H48           -7.6011     4.3622     2.2671 H       
  49 H49           -5.9747     5.0454     2.0294 H       
  50 H50           -8.7372     4.9102    -1.2354 H       
  51 H51           -9.2141     4.2833     0.3608 H       
  52 H52           -9.0146     6.0350     0.1159 H       
@<TRIPOS>BOND
   1    1    2 1
   2    1    5 2
   3    1    6 1
   4    2    3 1
   5    3    4 2
   6    3   27 1
   7    4    5 1
   8    4   28 1
   9    5   29 1
  10    6    7 2
  11    6    8 am
  12    8   12 1
  13    8   30 1
  14    9   10 2
  15    9   13 1
  16    9   21 1
  17   10   11 1
  18   10   24 1
  19   11   12 2
  20   11   14 1
  21   12   13 1
  22   14   15 2
  23   14   16 am
  24   16   17 1
  25   16   20 1
  26   17   18 1
  27   17   31 1
  28   17   32 1
  29   18   33 1
  30   18   34 1
  31   18   35 1
  32   19   20 1
  33   19   36 1
  34   19   37 1
  35   19   38 1
  36   20   39 1
  37   20   40 1
  38   21   22 1
  39   21   41 1
  40   21   42 1
  41   22   23 1
  42   22   43 1
  43   22   44 1
  44   23   24 1
  45   23   25 1
  46   23   26 1
  47   24   45 1
  48   24   46 1
  49   25   47 1
  50   25   48 1
  51   25   49 1
  52   26   50 1
  53   26   51 1
  54   26   52 1

#	End of record

