#	Name: ASD03900020
#	Creating user name:	WinNT
#	Creation time:	15. 06. 2019 20:47

#	Modifying user name:	WinNT
#	Modification time:	15. 06. 2019 20:47

#	Program:	/corina/corina34_cracker 3.40 0067  02.08.2006

@<TRIPOS>MOLECULE
ASD03900020
  39   42    0    0    0
SMALL
NO_CHARGES


@<TRIPOS>ATOM
   1 C1             0.4835     0.5902     0.0836 C.ar    
   2 C2             0.8180    -0.7558     0.1314 C.ar    
   3 C3             2.1500    -1.1358     0.1444 C.ar    
   4 C4             3.1495    -0.1713     0.1102 C.ar    
   5 C5             2.8101     1.1712     0.0583 C.ar    
   6 C6             1.4780     1.5474     0.0468 C.ar    
   7 O7             4.4463    -0.5625     0.1309 O.3     
   8 C8             5.4118     0.3076     0.5129 C.ar    
   9 C9             5.1951     1.6758     0.4743 C.ar    
  10 C10            3.8758     2.2324     0.0118 C.3     
  11 C11            6.6344    -0.1859     0.9511 C.ar    
  12 C12            7.6351     0.6877     1.3436 C.ar    
  13 C13            7.4146     2.0571     1.2980 C.ar    
  14 C14            6.1982     2.5460     0.8646 C.ar    
  15 O15            2.6861     6.0283    -0.7674 O.3     
  16 C16            3.5934     5.0491    -0.5870 C.2     
  17 C17            3.8779     4.0955    -1.6787 C.ar    
  18 C18            4.0161     2.7340    -1.4023 C.ar    
  19 C19            4.0041     4.5510    -2.9928 C.ar    
  20 C20            4.2698     3.6552    -4.0073 C.ar    
  21 C21            4.4113     2.3077    -3.7254 C.ar    
  22 C22            4.2818     1.8489    -2.4267 C.ar    
  23 O23            4.1776     4.9502     0.4734 O.2     
  24 O24            8.8306     0.2047     1.7729 O.3     
  25 O25           -0.1595    -1.6993     0.1659 O.3     
  26 H26           -0.5543     0.8888     0.0707 H       
  27 H27            2.4118    -2.1829     0.1815 H       
  28 H28            1.2154     2.5943     0.0092 H       
  29 H29            3.5879     3.0604     0.6596 H       
  30 H30            6.8047    -1.2518     0.9860 H       
  31 H31            8.1941     2.7401     1.6014 H       
  32 H32            6.0286     3.6120     0.8301 H       
  33 H33            2.5339     6.6281    -0.0243 H       
  34 H34            3.8936     5.6023    -3.2142 H       
  35 H35            4.3674     4.0061    -5.0240 H       
  36 H36            4.6190     1.6105    -4.5237 H       
  37 H37            4.3937     0.7961    -2.2136 H       
  38 H38            9.4828     0.0863     1.0688 H       
  39 H39           -0.4431    -2.0039    -0.7069 H       
@<TRIPOS>BOND
   1    1    2 ar
   2    1    6 ar
   3    1   26 1
   4    2    3 ar
   5    2   25 1
   6    3    4 ar
   7    3   27 1
   8    4    5 ar
   9    4    7 1
  10    5    6 ar
  11    5   10 1
  12    6   28 1
  13    7    8 1
  14    8    9 ar
  15    8   11 ar
  16    9   10 1
  17    9   14 ar
  18   10   18 1
  19   10   29 1
  20   11   12 ar
  21   11   30 1
  22   12   13 ar
  23   12   24 1
  24   13   14 ar
  25   13   31 1
  26   14   32 1
  27   15   16 1
  28   15   33 1
  29   16   17 1
  30   16   23 2
  31   17   18 ar
  32   17   19 ar
  33   18   22 ar
  34   19   20 ar
  35   19   34 1
  36   20   21 ar
  37   20   35 1
  38   21   22 ar
  39   21   36 1
  40   22   37 1
  41   24   38 1
  42   25   39 1

#	End of record

