#	Name: ASD01916786
#	Creating user name:	WinNT
#	Creation time:	15. 06. 2019 20:08

#	Modifying user name:	WinNT
#	Modification time:	15. 06. 2019 20:08

#	Program:	/corina/corina34_cracker 3.40 0067  02.08.2006

@<TRIPOS>MOLECULE
ASD01916786
  58   62    0    0    0
SMALL
NO_CHARGES


@<TRIPOS>ATOM
   1 C1            -0.0167     1.3813     0.0096 C.ar    
   2 C2             0.0021    -0.0041     0.0020 C.ar    
   3 C3             1.2089    -0.6844    -0.0127 C.ar    
   4 C4             2.3978     0.0158    -0.0204 C.ar    
   5 C5             2.3835     1.4091    -0.0132 C.ar    
   6 C6             1.1675     2.0893     0.0021 C.ar    
   7 C7             3.6597     2.1664    -0.0209 C.2     
   8 N8             4.8830     1.6271    -0.0351 N.2     
   9 N9             3.7707     3.4779    -0.0205 N.2     
  10 N10            5.1440     3.7712    -0.0292 N.pl3   
  11 C11            5.7891     2.5816    -0.0383 C.2     
  12 C12            7.2563     2.3878    -0.0488 C.ar    
  13 C13            5.7570     5.1018    -0.0321 C.3     
  14 C14            5.9770     5.5566     1.3877 C.2     
  15 O15            5.6535     4.8399     2.3110 O.2     
  16 N16            6.5331     6.7599     1.6313 N.am    
  17 C17            6.7566     7.2231     3.0093 C.3     
  18 C18            8.2140     7.6786     3.1393 C.3     
  19 N19            8.5090     8.6692     2.0954 N.3     
  20 C20            8.3829     8.0835     0.7541 C.3     
  21 C21            6.9381     7.6420     0.5263 C.3     
  22 C22            9.7692     9.2263     2.2793 C.ar    
  23 C23           10.2337    10.1896     1.3892 C.ar    
  24 N24           10.5145     8.8395     3.3029 N.ar    
  25 C25           11.4892    10.7358     1.5843 C.ar    
  26 C26           12.2411    10.2989     2.6671 C.ar    
  27 C27           11.7159     9.3435     3.5135 C.ar    
  28 C28            7.7829     1.0966    -0.0575 C.ar    
  29 F29           -1.1597    -0.6935     0.0095 F       
  30 C30            9.1564     0.9303    -0.0673 C.ar    
  31 C31            9.9615     2.0632    -0.0681 C.ar    
  32 C32            9.3698     3.3165    -0.0591 C.ar    
  33 N33            8.0594     3.4448    -0.0554 N.ar    
  34 F34           11.3072     1.9440    -0.0771 F       
  35 C35           12.0293    11.7813     0.6429 C.3     
  36 H36           -0.9597     1.9077     0.0170 H       
  37 H37            1.2191    -1.7643    -0.0179 H       
  38 H38            3.3381    -0.5153    -0.0315 H       
  39 H39            1.1520     3.1692     0.0074 H       
  40 H40            6.7138     5.0599    -0.5526 H       
  41 H41            5.0972     5.8047    -0.5407 H       
  42 H42            6.0911     8.0584     3.2273 H       
  43 H43            6.5646     6.4069     3.7056 H       
  44 H44            8.3686     8.1273     4.1206 H       
  45 H45            8.8752     6.8199     3.0232 H       
  46 H46            8.6601     8.8258     0.0056 H       
  47 H47            9.0418     7.2192     0.6713 H       
  48 H48            6.8642     7.1047    -0.4192 H       
  49 H49            6.2871     8.5160     0.5059 H       
  50 H50            9.6223    10.5062     0.5571 H       
  51 H51           13.2253    10.7055     2.8473 H       
  52 H52           12.2971     9.0012     4.3569 H       
  53 H53            7.1276     0.2381    -0.0563 H       
  54 H54            9.5930    -0.0575    -0.0738 H       
  55 H55            9.9917     4.1995    -0.0594 H       
  56 H56           11.7475    12.7719     0.9997 H       
  57 H57           13.1159    11.7058     0.6008 H       
  58 H58           11.6152    11.6224    -0.3528 H       
@<TRIPOS>BOND
   1    1    2 ar
   2    1    6 ar
   3    1   36 1
   4    2    3 ar
   5    2   29 1
   6    3    4 ar
   7    3   37 1
   8    4    5 ar
   9    4   38 1
  10    5    6 ar
  11    5    7 1
  12    6   39 1
  13    7    8 1
  14    7    9 2
  15    8   11 2
  16    9   10 1
  17   10   11 1
  18   10   13 1
  19   11   12 1
  20   12   28 ar
  21   12   33 ar
  22   13   14 1
  23   13   40 1
  24   13   41 1
  25   14   15 2
  26   14   16 am
  27   16   17 1
  28   16   21 1
  29   17   18 1
  30   17   42 1
  31   17   43 1
  32   18   19 1
  33   18   44 1
  34   18   45 1
  35   19   20 1
  36   19   22 1
  37   20   21 1
  38   20   46 1
  39   20   47 1
  40   21   48 1
  41   21   49 1
  42   22   23 ar
  43   22   24 ar
  44   23   25 ar
  45   23   50 1
  46   24   27 ar
  47   25   26 ar
  48   25   35 1
  49   26   27 ar
  50   26   51 1
  51   27   52 1
  52   28   30 ar
  53   28   53 1
  54   30   31 ar
  55   30   54 1
  56   31   32 ar
  57   31   34 1
  58   32   33 ar
  59   32   55 1
  60   35   56 1
  61   35   57 1
  62   35   58 1

#	End of record

