#	Name: ASD02038691
#	Creating user name:	WinNT
#	Creation time:	15. 06. 2019 20:17

#	Modifying user name:	WinNT
#	Modification time:	15. 06. 2019 20:17

#	Program:	/corina/corina34_cracker 3.40 0067  02.08.2006

@<TRIPOS>MOLECULE
ASD02038691
  38   40    0    0    0
SMALL
NO_CHARGES


@<TRIPOS>ATOM
   1 C1            -0.0167     1.3771     0.0096 C.ar    
   2 C2             0.0021    -0.0041     0.0020 C.ar    
   3 C3             1.2125    -0.6811    -0.0132 C.ar    
   4 O4             1.2309    -2.0408    -0.0202 O.3     
   5 C5             2.5128    -2.6722    -0.0360 C.3     
   6 C6             2.3329    -4.1915    -0.0419 C.3     
   7 C7             3.6987    -4.8662    -0.1843 C.3     
   8 S8             3.4745    -6.6556    -0.3395 S.3     
   9 C9             7.3327    -7.0807    -0.6020 C.ar    
  10 C10            1.1749     2.0869     0.0020 C.ar    
  11 C11            2.3853     1.4098    -0.0132 C.ar    
  12 C12            2.4040     0.0286    -0.0218 C.ar    
  13 O13            1.7234    -4.6038     1.1831 O.3     
  14 C14            6.9594    -8.4304    -0.7076 C.ar    
  15 C15            7.9309    -9.4086    -0.8559 C.ar    
  16 C16            9.2640    -9.0524    -0.8995 C.ar    
  17 C17            9.6389    -7.7190    -0.7951 C.ar    
  18 C18            8.6855    -6.7347    -0.6520 C.ar    
  19 Cl19          11.3199    -7.2893    -0.8513 Cl      
  20 Cl20          10.4791   -10.2782    -1.0853 Cl      
  21 N21            6.1893    -6.3582    -0.4683 N.2     
  22 C22            5.1555    -7.1632    -0.4845 C.2     
  23 N23            5.5759    -8.4551    -0.6303 N.pl3   
  24 O24            1.1565     3.4465     0.0091 O.3     
  25 H25           -0.9592     1.9043     0.0169 H       
  26 H26           -0.9258    -0.5567     0.0083 H       
  27 H27            3.0570    -2.3673    -0.9298 H       
  28 H28            3.0744    -2.3762     0.8501 H       
  29 H29            1.6967    -4.4788    -0.8789 H       
  30 H30            4.2015    -4.4847    -1.0730 H       
  31 H31            4.3040    -4.6509     0.6963 H       
  32 H32            3.3132     1.9625    -0.0198 H       
  33 H33            3.3465    -0.4986    -0.0340 H       
  34 H34            2.2359    -4.3802     1.9722 H       
  35 H35            7.6454   -10.4470    -0.9368 H       
  36 H36            8.9833    -5.6996    -0.5717 H       
  37 H37            5.0113    -9.2428    -0.6719 H       
  38 H38            1.1594     3.8353     0.8945 H       
@<TRIPOS>BOND
   1    1    2 ar
   2    1   10 ar
   3    1   25 1
   4    2    3 ar
   5    2   26 1
   6    3    4 1
   7    3   12 ar
   8    4    5 1
   9    5    6 1
  10    5   27 1
  11    5   28 1
  12    6    7 1
  13    6   13 1
  14    6   29 1
  15    7    8 1
  16    7   30 1
  17    7   31 1
  18    8   22 1
  19    9   14 ar
  20    9   21 1
  21    9   18 ar
  22   10   11 ar
  23   10   24 1
  24   11   12 ar
  25   11   32 1
  26   12   33 1
  27   13   34 1
  28   14   15 ar
  29   14   23 1
  30   15   16 ar
  31   15   35 1
  32   16   17 ar
  33   16   20 1
  34   17   18 ar
  35   17   19 1
  36   18   36 1
  37   21   22 2
  38   22   23 1
  39   23   37 1
  40   24   38 1

#	End of record

