#	Name: ASD09120025
#	Creating user name:	WinNT
#	Creation time:	15. 06. 2019 21:21

#	Modifying user name:	WinNT
#	Modification time:	15. 06. 2019 21:21

#	Program:	/corina/corina34_cracker 3.40 0067  02.08.2006

@<TRIPOS>MOLECULE
ASD09120025
  34   36    0    0    0
SMALL
NO_CHARGES


@<TRIPOS>ATOM
   1 C1            -0.0166     1.3747     0.0096 C.ar    
   2 C2             0.0021    -0.0041     0.0020 C.ar    
   3 C3             1.2079    -0.6837    -0.0131 C.ar    
   4 C4             2.4021     0.0133    -0.0208 C.ar    
   5 C5             2.3988     1.3948    -0.0134 C.ar    
   6 C6             1.1849     2.0865     0.0020 C.ar    
   7 N7            -1.2708    -0.7595     0.0106 N.pl3   
   8 O8            -2.3328    -0.1632     0.0244 O.2     
   9 O9            -1.2563    -1.9774     0.0039 O.2     
  10 C10            1.1724     3.5635     0.0095 C.2     
  11 O11            2.2200     4.1802     0.0028 O.2     
  12 N12           -0.0003     4.2275     0.0238 N.am    
  13 Cl13           3.8986     2.2689    -0.0224 Cl      
  14 S14           -1.4638     6.6035     0.0495 S.3     
  15 C15           -0.4819     8.0665     0.0483 C.ar    
  16 C16           -0.0120     5.6123     0.0309 C.2     
  17 N17            1.0389     6.3560     0.0253 N.2     
  18 C18            0.8657     7.6937     0.0340 C.ar    
  19 C19            0.1328    10.3910     0.0560 C.ar    
  20 C20           -0.8418     9.4117     0.0592 C.ar    
  21 C21            1.8445     8.7097     0.0309 C.ar    
  22 C22            1.4766    10.0311     0.0422 C.ar    
  23 O23           -0.2208    11.7040     0.0666 O.3     
  24 C24            0.8399    12.6615     0.0625 C.3     
  25 H25           -0.9585     1.9030     0.0169 H       
  26 H26            1.2160    -1.7637    -0.0187 H       
  27 H27            3.3393    -0.5233    -0.0323 H       
  28 H28           -0.8362     3.7354     0.0292 H       
  29 H29           -1.8852     9.6902     0.0696 H       
  30 H30            2.8915     8.4450     0.0199 H       
  31 H31            2.2365    10.7986     0.0401 H       
  32 H32            0.4211    13.6678     0.0720 H       
  33 H33            1.4620    12.5185     0.9461 H       
  34 H34            1.4459    12.5286    -0.8338 H       
@<TRIPOS>BOND
   1    1    2 ar
   2    1    6 ar
   3    1   25 1
   4    2    3 ar
   5    2    7 1
   6    3    4 ar
   7    3   26 1
   8    4    5 ar
   9    4   27 1
  10    5    6 ar
  11    5   13 1
  12    6   10 1
  13    7    8 2
  14    7    9 2
  15   10   11 2
  16   10   12 am
  17   12   16 1
  18   12   28 1
  19   14   16 1
  20   14   15 1
  21   15   18 ar
  22   15   20 ar
  23   16   17 2
  24   17   18 1
  25   18   21 ar
  26   19   20 ar
  27   19   22 ar
  28   19   23 1
  29   20   29 1
  30   21   22 ar
  31   21   30 1
  32   22   31 1
  33   23   24 1
  34   24   32 1
  35   24   33 1
  36   24   34 1

#	End of record

