#	Name: ASD00843457
#	Creating user name:	WinNT
#	Creation time:	15. 06. 2019 18:46

#	Modifying user name:	WinNT
#	Modification time:	15. 06. 2019 18:46

#	Program:	/corina/corina34_cracker 3.40 0067  02.08.2006

@<TRIPOS>MOLECULE
ASD00843457
  80   85    0    0    0
SMALL
NO_CHARGES


@<TRIPOS>ATOM
   1 F1             5.7279    -2.5020    -1.8937 F       
   2 N2             0.9634     1.0826    -0.2155 N.ar    
   3 C3             1.1256    -0.1968    -0.5084 C.ar    
   4 C4             0.9573    -1.1728     0.4658 C.ar    
   5 C5             0.6167    -0.7894     1.7510 C.ar    
   6 C6             0.4557     0.5635     2.0177 C.ar    
   7 C7             0.6388     1.4788     1.0006 C.ar    
   8 C8             1.1427    -2.6295     0.1273 C.3     
   9 C9             0.7671    -3.5001     1.3074 C.2     
  10 C10            0.3103    -3.0032    -1.1009 C.3     
  11 C11           -1.1303    -2.6295    -0.8639 C.2     
  12 N12           -2.0712    -2.9653    -1.7686 N.am    
  13 O13           -1.4431    -2.0267     0.1410 O.2     
  14 C14           -3.4596    -2.5122    -1.6081 C.3     
  15 C15           -4.3861    -3.7306    -1.6703 C.3     
  16 C16           -4.1223    -4.5014    -2.9658 C.3     
  17 C17           -2.6738    -4.9949    -2.9818 C.3     
  18 C18           -1.7266    -3.7862    -2.9374 C.3     
  19 N19           -5.0322    -5.6520    -3.0445 N.3     
  20 C20           -4.8901    -6.3488    -4.3306 C.3     
  21 C21           -5.7943    -7.5836    -4.3414 C.3     
  22 N22           -7.1870    -7.1697    -4.1211 N.3     
  23 C23           -7.3292    -6.4729    -2.8350 C.3     
  24 C24           -6.4250    -5.2381    -2.8242 C.3     
  25 H25           -7.5184    -6.5956    -4.8819 H       
  26 O26           -0.3237    -3.5693     1.8332 O.2     
  27 N27            1.8688    -4.1824     1.6625 N.am    
  28 C28            2.6040    -2.9370    -0.1064 C.ar    
  29 C29            2.9644    -3.8751     0.8529 C.ar    
  30 C30            3.5217    -2.4769    -1.0236 C.ar    
  31 C31            4.8237    -2.9510    -0.9958 C.ar    
  32 C32            5.1949    -3.8867    -0.0437 C.ar    
  33 C33            4.2744    -4.3482     0.8762 C.ar    
  34 Cl34           6.8253    -4.4819    -0.0072 Cl      
  35 C35            1.5090    -6.8448     2.2596 C.ar    
  36 C36            2.5041    -7.6728     1.7745 C.ar    
  37 C37            0.1908    -7.2604     2.2346 C.ar    
  38 C38           -0.1323    -8.5039     1.7245 C.ar    
  39 C39            0.8627    -9.3316     1.2390 C.ar    
  40 C40            2.1809    -8.9161     1.2640 C.ar    
  41 H41            0.6102   -10.3032     0.8405 H       
  42 H42            3.5339    -7.3481     1.7940 H       
  43 S43            1.9217    -5.2628     2.9164 S.o2    
  44 O44            3.2811    -5.3393     3.3231 O.2     
  45 O45            0.8657    -4.9064     3.7979 O.2     
  46 O46            1.4591    -0.5597    -1.7725 O.3     
  47 C47            1.5712     0.4864    -2.7395 C.3     
  48 C48            2.0525    -0.0977    -4.0692 C.3     
  49 F49            3.2594    -0.7768    -3.8707 F       
  50 F50            1.0923    -0.9878    -4.5623 F       
  51 H51            0.4790    -1.5259     2.5289 H       
  52 H52            0.1898     0.8963     3.0101 H       
  53 H53            0.5150     2.5324     1.2029 H       
  54 H54            0.6863    -2.4663    -1.9717 H       
  55 H55            0.3831    -4.0765    -1.2763 H       
  56 H56           -3.5728    -2.0158    -0.6443 H       
  57 H57           -3.7129    -1.8192    -2.4104 H       
  58 H58           -4.1928    -4.3787    -0.8155 H       
  59 H59           -5.4244    -3.3995    -1.6490 H       
  60 H60           -4.2920    -3.8455    -3.8196 H       
  61 H61           -2.4966    -5.6311    -2.1146 H       
  62 H62           -2.4933    -5.5638    -3.8939 H       
  63 H63           -1.8400    -3.1995    -3.8490 H       
  64 H64           -0.6968    -4.1321    -2.8487 H       
  65 H65           -5.1792    -5.6793    -5.1408 H       
  66 H66           -3.8531    -6.6562    -4.4650 H       
  67 H67           -5.7124    -8.0859    -5.3053 H       
  68 H68           -5.4878    -8.2657    -3.5484 H       
  69 H69           -8.3662    -6.1655    -2.7006 H       
  70 H70           -7.0401    -7.1424    -2.0248 H       
  71 H71           -6.5069    -4.7358    -1.8603 H       
  72 H72           -6.7315    -4.5560    -3.6172 H       
  73 H73            3.2274    -1.7478    -1.7640 H       
  74 H74            4.5707    -5.0776     1.6155 H       
  75 H75           -0.5865    -6.6136     2.6138 H       
  76 H76           -1.1621    -8.8288     1.7056 H       
  77 H77            2.9583    -9.5630     0.8851 H       
  78 H78            0.5981     0.9569    -2.8803 H       
  79 H79            2.2870     1.2300    -2.3891 H       
  80 H80            2.2030     0.7086    -4.7870 H       
@<TRIPOS>BOND
   1    1   31 1
   2    2    3 ar
   3    2    7 ar
   4    3    4 ar
   5    3   46 1
   6    4    5 ar
   7    4    8 1
   8    5    6 ar
   9    5   51 1
  10    6    7 ar
  11    6   52 1
  12    7   53 1
  13    8    9 1
  14    8   10 1
  15    8   28 1
  16    9   26 2
  17    9   27 am
  18   10   11 1
  19   10   54 1
  20   10   55 1
  21   11   12 am
  22   11   13 2
  23   12   14 1
  24   12   18 1
  25   14   15 1
  26   14   56 1
  27   14   57 1
  28   15   16 1
  29   15   58 1
  30   15   59 1
  31   16   17 1
  32   16   19 1
  33   16   60 1
  34   17   18 1
  35   17   61 1
  36   17   62 1
  37   18   63 1
  38   18   64 1
  39   19   20 1
  40   19   24 1
  41   20   21 1
  42   20   65 1
  43   20   66 1
  44   21   22 1
  45   21   67 1
  46   21   68 1
  47   22   23 1
  48   22   25 1
  49   23   24 1
  50   23   69 1
  51   23   70 1
  52   24   71 1
  53   24   72 1
  54   27   43 am
  55   27   29 1
  56   28   29 ar
  57   28   30 ar
  58   29   33 ar
  59   30   31 ar
  60   30   73 1
  61   31   32 ar
  62   32   33 ar
  63   32   34 1
  64   33   74 1
  65   35   36 ar
  66   35   37 ar
  67   35   43 1
  68   36   42 1
  69   36   40 ar
  70   37   38 ar
  71   37   75 1
  72   38   39 ar
  73   38   76 1
  74   39   40 ar
  75   39   41 1
  76   40   77 1
  77   43   44 2
  78   43   45 2
  79   46   47 1
  80   47   48 1
  81   47   78 1
  82   47   79 1
  83   48   49 1
  84   48   50 1
  85   48   80 1

#	End of record

