#	Name: ASD08070667
#	Creating user name:	WinNT
#	Creation time:	15. 06. 2019 21:15

#	Modifying user name:	WinNT
#	Modification time:	15. 06. 2019 21:15

#	Program:	/corina/corina34_cracker 3.40 0067  02.08.2006

@<TRIPOS>MOLECULE
ASD08070667
  46   45    0    0    0
SMALL
NO_CHARGES


@<TRIPOS>ATOM
   1 C1             0.0162     1.5002    -0.0057 C.2     
   2 C2             0.1167    -0.0019    -0.0736 C.3     
   3 C3            -0.7261    -0.5172    -1.2419 C.3     
   4 C4            -0.7033    -2.0470    -1.2515 C.3     
   5 C5            -1.4042    -2.5754     0.0016 C.3     
   6 O6             1.0110     2.1777    -0.1124 O.2     
   7 O7            -1.1791     2.0858     0.1677 O.3     
   8 C8             2.3382    -0.5113     0.7883 C.2     
   9 C9             3.7427    -0.9002     0.5887 C.2     
  10 C10            4.5545    -1.0206     1.6353 C.2     
  11 C11            5.9934    -1.4191     1.4308 C.3     
  12 C12            6.9081    -0.3760     2.0760 C.3     
  13 C13            8.3689    -0.7806     1.8684 C.3     
  14 C14            9.2836     0.2626     2.5135 C.3     
  15 C15           10.7445    -0.1420     2.3060 C.3     
  16 O16            1.9193    -0.2998     1.9102 O.2     
  17 N17            1.5155    -0.3893    -0.2723 N.am    
  18 C18           -1.4295    -2.5600    -2.4967 C.3     
  19 C19           -1.2006     3.5365     0.2236 C.3     
  20 H20           -0.2510    -0.4330     0.8576 H       
  21 H21           -1.7532    -0.1698    -1.1300 H       
  22 H22           -0.3157    -0.1418    -2.1793 H       
  23 H23            0.3296    -2.3949    -1.2641 H       
  24 H24           -2.4371    -2.2275     0.0142 H       
  25 H25           -1.3880    -3.6652    -0.0052 H       
  26 H26           -0.8869    -2.2098     0.8887 H       
  27 H27            4.1147    -1.0881    -0.4076 H       
  28 H28            4.1825    -0.8328     2.6316 H       
  29 H29            6.1700    -2.3914     1.8908 H       
  30 H30            6.2059    -1.4782     0.3634 H       
  31 H31            6.7314     0.5963     1.6160 H       
  32 H32            6.6956    -0.3169     3.1434 H       
  33 H33            8.5456    -1.7528     2.3284 H       
  34 H34            8.5814    -0.8396     0.8010 H       
  35 H35            9.1070     1.2348     2.0535 H       
  36 H36            9.0711     0.3217     3.5810 H       
  37 H37           10.9211    -1.1143     2.7660 H       
  38 H38           10.9570    -0.2011     1.2385 H       
  39 H39           11.3961     0.6011     2.7656 H       
  40 H40            1.8496    -0.5580    -1.1672 H       
  41 H41           -2.4831    -2.2862    -2.4415 H       
  42 H42           -0.9844    -2.1144    -3.3863 H       
  43 H43           -1.3383    -3.6449    -2.5493 H       
  44 H44           -0.5841     3.8772     1.0554 H       
  45 H45           -0.8085     3.9419    -0.7091 H       
  46 H46           -2.2253     3.8795     0.3665 H       
@<TRIPOS>BOND
   1    1    2 1
   2    1    6 2
   3    1    7 1
   4    2    3 1
   5    2   17 1
   6    2   20 1
   7    3    4 1
   8    3   21 1
   9    3   22 1
  10    4    5 1
  11    4   18 1
  12    4   23 1
  13    5   24 1
  14    5   25 1
  15    5   26 1
  16    7   19 1
  17    8    9 1
  18    8   16 2
  19    8   17 am
  20    9   10 2
  21    9   27 1
  22   10   11 1
  23   10   28 1
  24   11   12 1
  25   11   29 1
  26   11   30 1
  27   12   13 1
  28   12   31 1
  29   12   32 1
  30   13   14 1
  31   13   33 1
  32   13   34 1
  33   14   15 1
  34   14   35 1
  35   14   36 1
  36   15   37 1
  37   15   38 1
  38   15   39 1
  39   17   40 1
  40   18   41 1
  41   18   42 1
  42   18   43 1
  43   19   44 1
  44   19   45 1
  45   19   46 1

#	End of record

