#	Name: ASD01903048
#	Creating user name:	WinNT
#	Creation time:	15. 06. 2019 19:54

#	Modifying user name:	WinNT
#	Modification time:	15. 06. 2019 19:54

#	Program:	/corina/corina34_cracker 3.40 0067  02.08.2006

@<TRIPOS>MOLECULE
ASD01903048
  29   31    0    0    0
SMALL
NO_CHARGES


@<TRIPOS>ATOM
   1 C1             0.0389     1.2968    -0.3002 C.2     
   2 N2             0.0267    -0.0101    -0.1571 N.2     
   3 C3            -1.0779    -0.6372    -0.5154 C.2     
   4 N4            -2.0624     0.0895    -0.9803 N.2     
   5 S5            -1.5099     1.6959    -0.9398 S.3     
   6 C6            -1.1993    -2.1118    -0.3962 C.2     
   7 N7             1.0720     2.1658     0.0035 N.pl3   
   8 C8            -2.2881    -2.8613    -0.7347 C.2     
   9 N9            -1.9926    -4.1506    -0.4744 N.pl3   
  10 N10           -0.6907    -4.2065     0.0376 N.2     
  11 C11           -0.2091    -2.9926     0.0812 C.2     
  12 C12           -3.5860    -2.3419    -1.2975 C.3     
  13 C13            0.8749     3.5477    -0.0929 C.ar    
  14 C14            1.8759     4.3599    -0.6151 C.ar    
  15 C15            1.6769     5.7252    -0.7085 C.ar    
  16 C16            0.4848     6.2819    -0.2827 C.ar    
  17 C17           -0.5116     5.4764     0.2373 C.ar    
  18 C18           -0.3225     4.1109     0.3275 C.ar    
  19 F19            3.0409     3.8160    -1.0302 F       
  20 H20            1.9328     1.8170     0.2831 H       
  21 H21           -2.5807    -4.9087    -0.6168 H       
  22 H22            0.7741    -2.7127     0.4295 H       
  23 H23           -3.5288    -2.3242    -2.3858 H       
  24 H24           -4.4031    -2.9932    -0.9871 H       
  25 H25           -3.7648    -1.3327    -0.9265 H       
  26 H26            2.4533     6.3572    -1.1138 H       
  27 H27            0.3318     7.3485    -0.3562 H       
  28 H28           -1.4410     5.9150     0.5694 H       
  29 H29           -1.1017     3.4831     0.7339 H       
@<TRIPOS>BOND
   1    1    2 2
   2    1    7 1
   3    1    5 1
   4    2    3 1
   5    3    4 2
   6    3    6 1
   7    4    5 1
   8    6    8 2
   9    6   11 1
  10    7   13 1
  11    7   20 1
  12    8    9 1
  13    8   12 1
  14    9   10 1
  15    9   21 1
  16   10   11 2
  17   11   22 1
  18   12   23 1
  19   12   24 1
  20   12   25 1
  21   13   14 ar
  22   13   18 ar
  23   14   15 ar
  24   14   19 1
  25   15   16 ar
  26   15   26 1
  27   16   17 ar
  28   16   27 1
  29   17   18 ar
  30   17   28 1
  31   18   29 1

#	End of record

