#	Name: ASD01912865
#	Creating user name:	WinNT
#	Creation time:	15. 06. 2019 20:00

#	Modifying user name:	WinNT
#	Modification time:	15. 06. 2019 20:00

#	Program:	/corina/corina34_cracker 3.40 0067  02.08.2006

@<TRIPOS>MOLECULE
ASD01912865
  40   43    0    0    0
SMALL
NO_CHARGES


@<TRIPOS>ATOM
   1 C1            -0.0165     1.3669     0.0096 C.2     
   2 N2             0.0021    -0.0041     0.0020 N.pl3   
   3 C3            -1.2022    -0.6919     0.0094 C.2     
   4 C4            -2.3630    -0.0494     0.0235 C.2     
   5 N5            -2.4358     1.3306     0.0317 N.am    
   6 C6            -1.3020     2.0667     0.0309 C.2     
   7 C7             1.3015     1.7836    -0.0008 C.2     
   8 C8             2.0550     0.6111    -0.0143 C.2     
   9 N9             1.2243    -0.4045    -0.0118 N.2     
  10 O10           -1.3490     3.2837     0.0380 O.2     
  11 C11           -3.6830     1.9659     0.0465 C.ar    
  12 C12            3.5595     0.5250    -0.0295 C.3     
  13 O13            4.1120     1.8428    -0.0282 O.3     
  14 C14            5.4672     1.9436    -0.0410 C.ar    
  15 C15            6.0711     3.1926    -0.0405 C.ar    
  16 C16            7.4489     3.2924    -0.0536 C.ar    
  17 C17            8.2259     2.1488    -0.0672 C.ar    
  18 C18            7.6265     0.9028    -0.0682 C.ar    
  19 C19            6.2492     0.7977    -0.0489 C.ar    
  20 C20           -4.3308     2.2967    -1.1413 C.ar    
  21 C21           -4.3113     2.2785     1.2491 C.ar    
  22 N22           -5.4895     2.8789     1.2203 N.ar    
  23 C23           -6.0675     3.1805     0.0749 C.ar    
  24 N24           -5.5081     2.8963    -1.0844 N.ar    
  25 C25           -3.6992     1.9764    -2.4716 C.3     
  26 H26           -1.1950    -1.7718     0.0032 H       
  27 H27           -3.2785    -0.6222     0.0285 H       
  28 H28            1.6685     2.7994     0.0006 H       
  29 H29            3.9016    -0.0134     0.8543 H       
  30 H30            3.8840    -0.0042    -0.9255 H       
  31 H31            5.4646     4.0862    -0.0302 H       
  32 H32            7.9195     4.2645    -0.0536 H       
  33 H33            9.3029     2.2289    -0.0775 H       
  34 H34            8.2356     0.0111    -0.0796 H       
  35 H35            5.7814    -0.1758    -0.0497 H       
  36 H36           -3.8437     2.0341     2.1915 H       
  37 H37           -7.0298     3.6707     0.0864 H       
  38 H38           -4.0131     0.9834    -2.7932 H       
  39 H39           -4.0139     2.7138    -3.2101 H       
  40 H40           -2.6139     2.0005    -2.3737 H       
@<TRIPOS>BOND
   1    1    2 1
   2    1    7 2
   3    1    6 1
   4    2    3 1
   5    2    9 1
   6    3    4 2
   7    3   26 1
   8    4    5 1
   9    4   27 1
  10    5    6 am
  11    5   11 1
  12    6   10 2
  13    7    8 1
  14    7   28 1
  15    8    9 2
  16    8   12 1
  17   11   20 ar
  18   11   21 ar
  19   12   13 1
  20   12   29 1
  21   12   30 1
  22   13   14 1
  23   14   15 ar
  24   14   19 ar
  25   15   16 ar
  26   15   31 1
  27   16   17 ar
  28   16   32 1
  29   17   18 ar
  30   17   33 1
  31   18   19 ar
  32   18   34 1
  33   19   35 1
  34   20   25 1
  35   20   24 ar
  36   21   22 ar
  37   21   36 1
  38   22   23 ar
  39   23   24 ar
  40   23   37 1
  41   25   38 1
  42   25   39 1
  43   25   40 1

#	End of record

