#	Name: ASD01411112
#	Creating user name:	WinNT
#	Creation time:	15. 06. 2019 19:19

#	Modifying user name:	WinNT
#	Modification time:	15. 06. 2019 19:19

#	Program:	/corina/corina34_cracker 3.40 0067  02.08.2006

@<TRIPOS>MOLECULE
ASD01411112
  57   60    0    0    0
SMALL
NO_CHARGES


@<TRIPOS>ATOM
   1 C1             0.5440    -0.5272     0.1702 C.3     
   2 C2             1.1125    -1.8545     0.6924 C.3     
   3 O3             1.5771     0.4618     0.1588 O.3     
   4 C4             1.8941    -1.5601     1.9482 C.2     
   5 C5             1.9842     0.9063     1.4589 C.3     
   6 C6             2.2901    -0.3113     2.2990 C.2     
   7 C7             2.3585    -2.4579     2.9742 C.ar    
   8 C8             0.8549     1.7100     2.1068 C.3     
   9 N9             2.9740    -0.3592     3.4793 N.pl3   
  10 C10            2.2491    -3.8545     3.1502 C.ar    
  11 C11            3.0373    -1.6505     3.9237 C.ar    
  12 C12            2.8415    -4.3881     4.3008 C.ar    
  13 C13            3.6148    -2.2170     5.0568 C.ar    
  14 C14            3.4984    -3.5899     5.2151 C.ar    
  15 C15            0.5182     2.9162     1.2278 C.3     
  16 C16            3.2352     1.7788     1.3380 C.3     
  17 N17            3.5590     2.3522     2.6467 N.am    
  18 C18            4.4023     3.3999     2.7333 C.2     
  19 O19            4.8942     3.8691     1.7256 O.2     
  20 C20            4.7291     3.9786     4.0540 C.ar    
  21 C21            5.6020     5.0637     4.1472 C.ar    
  22 C22            5.9024     5.5993     5.3826 C.ar    
  23 C23            5.3407     5.0628     6.5276 C.ar    
  24 C24            4.4746     3.9872     6.4422 C.ar    
  25 C25            4.1614     3.4459     5.2125 C.ar    
  26 C26            1.5671    -4.6821     2.2012 C.1     
  27 N27            1.0261    -5.3386     1.4484 N.1     
  28 C28            4.3384    -1.3709     6.0725 C.3     
  29 C29           -0.6935     3.6480     1.8084 C.3     
  30 C30            4.3900     0.9375     0.8586 C.2     
  31 O31            5.2308     0.5634     1.6414 O.2     
  32 O32            4.4844     0.6039    -0.4382 O.3     
  33 H33            0.1642    -0.6676    -0.8418 H       
  34 H34           -0.2667    -0.1983     0.8203 H       
  35 H35            0.2972    -2.5419     0.9179 H       
  36 H36            1.7704    -2.2945    -0.0571 H       
  37 H37           -0.0273     1.0784     2.2105 H       
  38 H38            1.1726     2.0549     3.0908 H       
  39 H39            3.3575     0.4071     3.9338 H       
  40 H40            2.7828    -5.4519     4.4778 H       
  41 H41            3.9381    -4.0517     6.0868 H       
  42 H42            1.3717     3.5935     1.1979 H       
  43 H43            0.2881     2.5769     0.2178 H       
  44 H44            3.0503     2.5822     0.6250 H       
  45 H45            3.1664     1.9778     3.4508 H       
  46 H46            6.0417     5.4829     3.2542 H       
  47 H47            6.5777     6.4389     5.4561 H       
  48 H48            5.5797     5.4854     7.4924 H       
  49 H49            4.0396     3.5732     7.3398 H       
  50 H50            3.4850     2.6066     5.1471 H       
  51 H51            3.6336    -1.0332     6.8323 H       
  52 H52            5.1248    -1.9611     6.5430 H       
  53 H53            4.7801    -0.5065     5.5768 H       
  54 H54           -0.4633     3.9873     2.8184 H       
  55 H55           -0.9334     4.5073     1.1822 H       
  56 H56           -1.5470     2.9707     1.8384 H       
  57 H57            5.2800     0.1275    -0.7121 H       
@<TRIPOS>BOND
   1    1    2 1
   2    1    3 1
   3    1   33 1
   4    1   34 1
   5    2    4 1
   6    2   35 1
   7    2   36 1
   8    3    5 1
   9    4    6 2
  10    4    7 1
  11    5    8 1
  12    5   16 1
  13    5    6 1
  14    6    9 1
  15    7   10 ar
  16    7   11 ar
  17    8   15 1
  18    8   37 1
  19    8   38 1
  20    9   11 1
  21    9   39 1
  22   10   12 ar
  23   10   26 1
  24   11   13 ar
  25   12   14 ar
  26   12   40 1
  27   13   14 ar
  28   13   28 1
  29   14   41 1
  30   15   29 1
  31   15   42 1
  32   15   43 1
  33   16   17 1
  34   16   30 1
  35   16   44 1
  36   17   18 am
  37   17   45 1
  38   18   19 2
  39   18   20 1
  40   20   21 ar
  41   20   25 ar
  42   21   22 ar
  43   21   46 1
  44   22   23 ar
  45   22   47 1
  46   23   24 ar
  47   23   48 1
  48   24   25 ar
  49   24   49 1
  50   25   50 1
  51   26   27 3
  52   28   51 1
  53   28   52 1
  54   28   53 1
  55   29   54 1
  56   29   55 1
  57   29   56 1
  58   30   31 2
  59   30   32 1
  60   32   57 1

#	End of record

