#	Name: ASD09800033
#	Creating user name:	WinNT
#	Creation time:	15. 06. 2019 21:24

#	Modifying user name:	WinNT
#	Modification time:	15. 06. 2019 21:24

#	Program:	/corina/corina34_cracker 3.40 0067  02.08.2006

@<TRIPOS>MOLECULE
ASD09800033
  58   62    0    0    0
SMALL
NO_CHARGES


@<TRIPOS>ATOM
   1 C1            -1.3185     0.1037     1.7718 C.2     
   2 N2            -2.0717    -0.9515     2.0215 N.2     
   3 C3            -2.9854    -1.3784     1.1399 C.2     
   4 C4            -3.1764    -0.7541    -0.0362 C.2     
   5 C5            -1.4818     0.7996     0.5560 C.2     
   6 C6            -0.8830     1.9129    -0.0194 C.2     
   7 N7            -2.4214     0.3527    -0.3545 N.pl3   
   8 C8            -2.3753     1.1813    -1.4127 C.2     
   9 N9            -1.4680     2.1032    -1.2124 N.2     
  10 C10            0.1965     2.7352     0.5720 C.ar    
  11 C11            0.9957     4.8574     1.3627 C.ar    
  12 C12            2.2173     4.2745     1.6793 C.ar    
  13 C13            2.4293     2.9228     1.4364 C.ar    
  14 C14            1.4259     2.1543     0.8856 C.ar    
  15 C15           -0.0113     4.0945     0.8119 C.ar    
  16 N16            3.2378     5.0519     2.2379 N.am    
  17 C17            4.0738     4.5135     3.1477 C.2     
  18 N18            5.0014     5.2841     3.7495 N.am    
  19 O19            3.9911     3.3327     3.4256 O.2     
  20 C20            5.8030     4.7500     4.7646 C.ar    
  21 C21            7.8980     4.6634     5.9280 C.ar    
  22 C22            7.1093     5.1926     4.9250 C.ar    
  23 C23            5.2918     3.7803     5.6174 C.ar    
  24 C24            6.0854     3.2552     6.6182 C.ar    
  25 C25            7.3878     3.6943     6.7720 C.ar    
  26 C26            5.5316     2.2029     7.5439 C.3     
  27 F27            5.7750     0.9343     7.0067 F       
  28 F28            6.1526     2.3073     8.7932 F       
  29 F29            4.1531     2.3903     7.6913 F       
  30 N30           -0.3802     0.5269     2.6981 N.pl3   
  31 C31           -3.2347     1.0632    -2.6450 C.3     
  32 C32           -4.7522     1.0568    -2.4499 C.3     
  33 C33           -4.0631     2.2848    -3.0482 C.3     
  34 C34           -2.6630     0.1949    -3.7675 C.3     
  35 C35           -1.3352     4.7272     0.4685 C.3     
  36 H36           -3.5833    -2.2455     1.3791 H       
  37 H37           -3.9196    -1.1200    -0.7291 H       
  38 H38            0.8340     5.9081     1.5527 H       
  39 H39            3.3796     2.4730     1.6831 H       
  40 H40            1.5911     1.1037     0.6974 H       
  41 H41            3.3435     5.9782     1.9704 H       
  42 H42            5.1134     6.2088     3.4790 H       
  43 H43            8.9141     5.0072     6.0532 H       
  44 H44            7.5083     5.9495     4.2661 H       
  45 H45            4.2746     3.4374     5.4983 H       
  46 H46            8.0066     3.2819     7.5552 H       
  47 H47           -0.2296     0.0116     3.5060 H       
  48 H48            0.1264     1.3386     2.5391 H       
  49 H49           -5.3433     0.4342    -3.1216 H       
  50 H50           -5.1290     1.1379    -1.4303 H       
  51 H51           -3.9864     3.1738    -2.4223 H       
  52 H52           -4.2008     2.4701    -4.1135 H       
  53 H53           -2.5207    -0.8225    -3.4032 H       
  54 H54           -3.3561     0.1860    -4.6088 H       
  55 H55           -1.7051     0.6026    -4.0903 H       
  56 H56           -2.0035     4.6603     1.3271 H       
  57 H57           -1.1809     5.7746     0.2090 H       
  58 H58           -1.7789     4.2045    -0.3788 H       
@<TRIPOS>BOND
   1    1    2 2
   2    1   30 1
   3    1    5 1
   4    2    3 1
   5    3    4 2
   6    3   36 1
   7    4    7 1
   8    4   37 1
   9    5    7 1
  10    5    6 2
  11    6    9 1
  12    6   10 1
  13    7    8 1
  14    8    9 2
  15    8   31 1
  16   10   15 ar
  17   10   14 ar
  18   11   12 ar
  19   11   15 ar
  20   11   38 1
  21   12   13 ar
  22   12   16 1
  23   13   14 ar
  24   13   39 1
  25   14   40 1
  26   15   35 1
  27   16   17 am
  28   16   41 1
  29   17   18 am
  30   17   19 2
  31   18   20 1
  32   18   42 1
  33   20   23 ar
  34   20   22 ar
  35   21   22 ar
  36   21   25 ar
  37   21   43 1
  38   22   44 1
  39   23   24 ar
  40   23   45 1
  41   24   25 ar
  42   24   26 1
  43   25   46 1
  44   26   27 1
  45   26   28 1
  46   26   29 1
  47   30   47 1
  48   30   48 1
  49   31   32 1
  50   31   33 1
  51   31   34 1
  52   32   33 1
  53   32   49 1
  54   32   50 1
  55   33   51 1
  56   33   52 1
  57   34   53 1
  58   34   54 1
  59   34   55 1
  60   35   56 1
  61   35   57 1
  62   35   58 1

#	End of record

