#	Name: ASD02038016
#	Creating user name:	WinNT
#	Creation time:	15. 06. 2019 20:16

#	Modifying user name:	WinNT
#	Modification time:	15. 06. 2019 20:16

#	Program:	/corina/corina34_cracker 3.40 0067  02.08.2006

@<TRIPOS>MOLECULE
ASD02038016
  55   58    0    0    0
SMALL
NO_CHARGES


@<TRIPOS>ATOM
   1 C1            -0.0184     1.5028     0.0103 C.3     
   2 O2             1.3438     2.0054    -0.0000 O.3     
   3 N3             2.7404     3.8744    -0.0033 N.am    
   4 C4             1.5021     3.3424     0.0057 C.2     
   5 C5             6.0576     5.3202    -2.2423 C.3     
   6 O6             7.3160     4.6578    -2.1017 O.3     
   7 C7             8.2566     4.9117    -3.0501 C.ar    
   8 C8             9.5001     4.3018    -2.9740 C.ar    
   9 C9             7.9702     5.7764    -4.0967 C.ar    
  10 C10            8.9243     6.0341    -5.0609 C.ar    
  11 C11           10.1711     5.4282    -4.9824 C.ar    
  12 C12           10.4552     4.5595    -3.9372 C.ar    
  13 N13           11.1414     5.6874    -5.9581 N.am    
  14 C14           12.1887     4.8573    -6.1155 C.2     
  15 C15           12.3299     3.6259    -5.2619 C.3     
  16 C16           11.8093     3.9040    -3.8542 C.3     
  17 O17            0.5286     4.0694     0.0189 O.2     
  18 O18           13.0285     5.1042    -6.9552 O.2     
  19 C19            0.0021    -0.0041     0.0020 C.ar    
  20 C20            0.0229    -0.7013     1.1958 C.ar    
  21 C21           -0.0057    -0.6883    -1.1988 C.ar    
  22 C22            0.0131    -2.0716    -1.2068 C.ar    
  23 C23            0.0396    -2.7697    -0.0116 C.ar    
  24 C24            0.0416    -2.0833     1.1896 C.ar    
  25 Cl25           0.0027    -2.9315    -2.7149 Cl      
  26 Cl26           0.0631    -4.5055    -0.0200 Cl      
  27 C27            2.9292     5.3315     0.0027 C.3     
  28 C28            3.8352     5.7162    -1.1711 C.3     
  29 C29            5.1358     4.9135    -1.0909 C.3     
  30 C30            4.8220     3.4191    -1.1924 C.3     
  31 C31            3.9272     3.0084    -0.0131 C.3     
  32 H32           -0.5286     1.8543     0.9071 H       
  33 H33           -0.5455     1.8639    -0.8728 H       
  34 H34            6.2107     6.3992    -2.2214 H       
  35 H35            5.6014     5.0362    -3.1906 H       
  36 H36            9.7213     3.6258    -2.1613 H       
  37 H37            7.0004     6.2477    -4.1574 H       
  38 H38            8.7008     6.7065    -5.8760 H       
  39 H39           11.0579     6.4704    -6.5246 H       
  40 H40           11.7550     2.8117    -5.7032 H       
  41 H41           13.3803     3.3393    -5.2108 H       
  42 H42           12.5012     4.5678    -3.3357 H       
  43 H43           11.7266     2.9658    -3.3056 H       
  44 H44            0.0248    -0.1658     2.1336 H       
  45 H45           -0.0268    -0.1430    -2.1308 H       
  46 H46            0.0623    -2.6272     2.1224 H       
  47 H47            1.9634     5.8255    -0.1039 H       
  48 H48            3.3960     5.6356     0.9396 H       
  49 H49            3.3281     5.4942    -2.1101 H       
  50 H50            4.0614     6.7813    -1.1223 H       
  51 H51            5.6301     5.1171    -0.1409 H       
  52 H52            4.3056     3.2187    -2.1311 H       
  53 H53            5.7506     2.8493    -1.1586 H       
  54 H54            4.4777     3.1232     0.9206 H       
  55 H55            3.6191     1.9697    -0.1326 H       
@<TRIPOS>BOND
   1    1   19 1
   2    1    2 1
   3    1   32 1
   4    1   33 1
   5    2    4 1
   6    3    4 am
   7    3   27 1
   8    3   31 1
   9    4   17 2
  10    5    6 1
  11    5   29 1
  12    5   34 1
  13    5   35 1
  14    6    7 1
  15    7    8 ar
  16    7    9 ar
  17    8   12 ar
  18    8   36 1
  19    9   10 ar
  20    9   37 1
  21   10   11 ar
  22   10   38 1
  23   11   12 ar
  24   11   13 1
  25   12   16 1
  26   13   14 am
  27   13   39 1
  28   14   15 1
  29   14   18 2
  30   15   16 1
  31   15   40 1
  32   15   41 1
  33   16   42 1
  34   16   43 1
  35   19   20 ar
  36   19   21 ar
  37   20   24 ar
  38   20   44 1
  39   21   22 ar
  40   21   45 1
  41   22   23 ar
  42   22   25 1
  43   23   24 ar
  44   23   26 1
  45   24   46 1
  46   27   28 1
  47   27   47 1
  48   27   48 1
  49   28   29 1
  50   28   49 1
  51   28   50 1
  52   29   30 1
  53   29   51 1
  54   30   31 1
  55   30   52 1
  56   30   53 1
  57   31   54 1
  58   31   55 1

#	End of record

