#	Name: ASD01810513
#	Creating user name:	WinNT
#	Creation time:	15. 06. 2019 19:24

#	Modifying user name:	WinNT
#	Modification time:	15. 06. 2019 19:24

#	Program:	/corina/corina34_cracker 3.40 0067  02.08.2006

@<TRIPOS>MOLECULE
ASD01810513
  94   98    0    0    0
SMALL
NO_CHARGES


@<TRIPOS>ATOM
   1 N1             0.0878     1.4621     0.7577 N.3     
   2 N2            -8.3408   -12.3019     1.5186 N.am    
   3 C3            -8.2492   -12.9943     2.6506 C.2     
   4 C4            -8.4271   -13.0524     0.2655 C.3     
   5 S5            -7.8676   -14.7347     0.7289 S.3     
   6 C6            -8.2393   -14.5046     2.5163 C.3     
   7 C7            -9.8608   -13.1093    -0.2465 C.3     
   8 C8           -10.2953   -11.7102    -0.6937 C.3     
   9 N9            -9.3794   -11.2227    -1.7329 N.3     
  10 C10           -8.0094   -11.0948    -1.2196 C.3     
  11 C11           -7.4949   -12.4723    -0.7906 C.3     
  12 O12           -8.1772   -12.4476     3.7308 O.2     
  13 C13           -7.1407   -15.1209     3.3848 C.3     
  14 C14           -7.1465   -16.6411     3.2117 C.3     
  15 C15            1.4474     2.0062     0.8671 C.3     
  16 C16            1.3787     3.5275     1.0190 C.3     
  17 C17            0.6660     4.1253    -0.1973 C.3     
  18 C18           -0.7295     3.5063    -0.3165 C.3     
  19 C19           -0.5997     1.9856    -0.4296 C.3     
  20 N20            0.5455     5.5757    -0.0302 N.am    
  21 C21            1.0784     6.5413    -0.8809 C.ar    
  22 C22           -0.1042     6.2025     0.9687 C.2     
  23 N23           -0.0107     7.5355     0.8041 N.am    
  24 C24            0.7274     7.7843    -0.3506 C.ar    
  25 C25            1.1278     8.9467    -0.9920 C.ar    
  26 C26            1.8723     8.8698    -2.1526 C.ar    
  27 C27            2.2201     7.6373    -2.6786 C.ar    
  28 C28            1.8237     6.4742    -2.0482 C.ar    
  29 O29           -0.6873     5.6483     1.8818 O.2     
  30 C30            0.1078    -0.0067     0.7496 C.3     
  31 C31           -1.3209    -0.5369     0.8862 C.3     
  32 C32           -1.3002    -2.0668     0.8777 C.3     
  33 C33           -2.7289    -2.5969     1.0143 C.3     
  34 C34           -2.7081    -4.1268     1.0058 C.3     
  35 C35           -4.1368    -4.6570     1.1424 C.3     
  36 C36           -4.1161    -6.1868     1.1340 C.3     
  37 C37           -5.5448    -6.7170     1.2705 C.3     
  38 C38           -5.5240    -8.2468     1.2621 C.3     
  39 C39           -6.9527    -8.7770     1.3986 C.3     
  40 C40           -6.9320   -10.3068     1.3902 C.3     
  41 C41           -8.3607   -10.8370     1.5267 C.3     
  42 H42           -9.2140   -14.9232     2.7669 H       
  43 H43           -9.9183   -13.7955    -1.0914 H       
  44 H44          -10.5181   -13.4569     0.5505 H       
  45 H45          -11.3082   -11.7548    -1.0939 H       
  46 H46          -10.2711   -11.0321     0.1593 H       
  47 H47           -9.4063   -11.8181    -2.5470 H       
  48 H48           -7.3644   -10.6932    -2.0012 H       
  49 H49           -8.0039   -10.4216    -0.3623 H       
  50 H50           -6.4920   -12.3730    -0.3754 H       
  51 H51           -7.4672   -13.1356    -1.6550 H       
  52 H52           -6.1720   -14.7243     3.0809 H       
  53 H53           -7.3227   -14.8736     4.4306 H       
  54 H54           -6.3638   -17.0802     3.8304 H       
  55 H55           -8.1152   -17.0377     3.5157 H       
  56 H56           -6.9645   -16.8884     2.1659 H       
  57 H57            1.9416     1.5763     1.7383 H       
  58 H58            2.0121     1.7560    -0.0310 H       
  59 H59            0.8259     3.7783     1.9243 H       
  60 H60            2.3885     3.9327     1.0845 H       
  61 H61            1.2391     3.9079    -1.0986 H       
  62 H62           -1.3154     3.7567     0.5678 H       
  63 H63           -1.2258     3.8962    -1.2051 H       
  64 H64           -0.0253     1.7355    -1.3216 H       
  65 H65           -1.5922     1.5407    -0.5002 H       
  66 H66           -0.3942     8.2079     1.3886 H       
  67 H67            0.8578     9.9099    -0.5850 H       
  68 H68            2.1843     9.7750    -2.6523 H       
  69 H69            2.8022     7.5851    -3.5868 H       
  70 H70            2.0969     5.5145    -2.4615 H       
  71 H71            0.5380    -0.3591    -0.1878 H       
  72 H72            0.7101    -0.3665     1.5838 H       
  73 H73           -1.7512    -0.1845     1.8236 H       
  74 H74           -1.9233    -0.1771     0.0520 H       
  75 H75           -0.8699    -2.4191    -0.0597 H       
  76 H76           -0.6979    -2.4266     1.7119 H       
  77 H77           -3.1592    -2.2446     1.9517 H       
  78 H78           -3.3312    -2.2372     0.1801 H       
  79 H79           -2.2778    -4.4792     0.0684 H       
  80 H80           -2.1058    -4.4866     1.8400 H       
  81 H81           -4.5671    -4.3046     2.0798 H       
  82 H82           -4.7392    -4.2972     0.3082 H       
  83 H83           -3.6858    -6.5392     0.1965 H       
  84 H84           -3.5138    -6.5466     1.9681 H       
  85 H85           -5.9751    -6.3646     2.2079 H       
  86 H86           -6.1471    -6.3572     0.4363 H       
  87 H87           -5.0937    -8.5992     0.3246 H       
  88 H88           -4.9217    -8.6066     2.0962 H       
  89 H89           -7.3830    -8.4246     2.3360 H       
  90 H90           -7.5550    -8.4172     0.5644 H       
  91 H91           -6.5017   -10.6592     0.4527 H       
  92 H92           -6.3296   -10.6666     2.2244 H       
  93 H93           -8.9630   -10.4772     0.6925 H       
  94 H94           -8.7909   -10.4846     2.4641 H       
@<TRIPOS>BOND
   1    1   30 1
   2    1   15 1
   3    1   19 1
   4    2   41 1
   5    2    3 am
   6    2    4 1
   7    3   12 2
   8    3    6 1
   9    4    5 1
  10    4    7 1
  11    4   11 1
  12    5    6 1
  13    6   13 1
  14    6   42 1
  15    7    8 1
  16    7   43 1
  17    7   44 1
  18    8    9 1
  19    8   45 1
  20    8   46 1
  21    9   10 1
  22    9   47 1
  23   10   11 1
  24   10   48 1
  25   10   49 1
  26   11   50 1
  27   11   51 1
  28   13   14 1
  29   13   52 1
  30   13   53 1
  31   14   54 1
  32   14   55 1
  33   14   56 1
  34   15   16 1
  35   15   57 1
  36   15   58 1
  37   16   17 1
  38   16   59 1
  39   16   60 1
  40   17   18 1
  41   17   20 1
  42   17   61 1
  43   18   19 1
  44   18   62 1
  45   18   63 1
  46   19   64 1
  47   19   65 1
  48   20   21 1
  49   20   22 am
  50   21   24 ar
  51   21   28 ar
  52   22   23 am
  53   22   29 2
  54   23   24 1
  55   23   66 1
  56   24   25 ar
  57   25   26 ar
  58   25   67 1
  59   26   27 ar
  60   26   68 1
  61   27   28 ar
  62   27   69 1
  63   28   70 1
  64   30   31 1
  65   30   71 1
  66   30   72 1
  67   31   32 1
  68   31   73 1
  69   31   74 1
  70   32   33 1
  71   32   75 1
  72   32   76 1
  73   33   34 1
  74   33   77 1
  75   33   78 1
  76   34   35 1
  77   34   79 1
  78   34   80 1
  79   35   36 1
  80   35   81 1
  81   35   82 1
  82   36   37 1
  83   36   83 1
  84   36   84 1
  85   37   38 1
  86   37   85 1
  87   37   86 1
  88   38   39 1
  89   38   87 1
  90   38   88 1
  91   39   40 1
  92   39   89 1
  93   39   90 1
  94   40   41 1
  95   40   91 1
  96   40   92 1
  97   41   93 1
  98   41   94 1

#	End of record

