#	Name: ASD01908213
#	Creating user name:	WinNT
#	Creation time:	15. 06. 2019 19:54

#	Modifying user name:	WinNT
#	Modification time:	15. 06. 2019 19:54

#	Program:	/corina/corina34_cracker 3.40 0067  02.08.2006

@<TRIPOS>MOLECULE
ASD01908213
  45   47    0    0    0
SMALL
NO_CHARGES


@<TRIPOS>ATOM
   1 O1            -0.0642     1.4172     0.1668 O.3     
   2 C2            -1.1729     1.5761     0.9189 C.2     
   3 C3            -0.9964     2.6797     1.7038 C.2     
   4 C4             0.2740     3.1927     1.3988 C.2     
   5 C5             0.8106     2.3901     0.4533 C.2     
   6 C6            -2.3593     0.7148     0.8975 C.2     
   7 O7            -3.3029     0.9606     1.6257 O.2     
   8 N8            -2.4048    -0.3491     0.0714 N.am    
   9 C9            -3.4940    -1.2246     0.1184 C.ar    
  10 C10           -4.7700    -0.7343     0.3605 C.ar    
  11 C11           -5.8469    -1.6052     0.4063 C.ar    
  12 C12           -5.6477    -2.9649     0.2104 C.ar    
  13 C13           -4.3770    -3.4513    -0.0300 C.ar    
  14 C14           -3.3015    -2.5856    -0.0826 C.ar    
  15 O15           -7.0972    -1.1284     0.6435 O.3     
  16 C16           -9.3189    -1.5511     1.4399 C.2     
  17 C17           -8.1676    -2.0749     0.6206 C.3     
  18 C18           -8.6259    -2.2917    -0.8229 C.3     
  19 C19          -10.3452    -2.4778     1.9437 C.ar    
  20 C20          -11.4152    -1.9955     2.7043 C.ar    
  21 C21          -12.2769    -4.2220     2.8921 C.ar    
  22 C22          -10.2586    -3.8444     1.6595 C.ar    
  23 C23          -12.3727    -2.8701     3.1727 C.ar    
  24 C24          -11.2241    -4.7062     2.1352 C.ar    
  25 C25          -13.3275    -5.1710     3.4084 C.3     
  26 O26           -9.3997    -0.3661     1.6839 O.2     
  27 H27           -1.6985     3.0802     2.4200 H       
  28 H28            0.7357     4.0651     1.8372 H       
  29 H29            1.7846     2.5128     0.0031 H       
  30 H30           -1.6820    -0.5075    -0.5558 H       
  31 H31           -4.9230     0.3239     0.5130 H       
  32 H32           -6.4871    -3.6436     0.2462 H       
  33 H33           -4.2247    -4.5098    -0.1814 H       
  34 H34           -2.3100    -2.9677    -0.2758 H       
  35 H35           -7.8248    -3.0212     1.0391 H       
  36 H36           -7.7931    -2.6706    -1.4155 H       
  37 H37           -9.4423    -3.0137    -0.8404 H       
  38 H38           -8.9686    -1.3454    -1.2414 H       
  39 H39          -11.4911    -0.9409     2.9244 H       
  40 H40           -9.4379    -4.2236     1.0687 H       
  41 H41          -13.1994    -2.4994     3.7605 H       
  42 H42          -11.1560    -5.7625     1.9207 H       
  43 H43          -14.1285    -5.2605     2.6747 H       
  44 H44          -12.8802    -6.1503     3.5792 H       
  45 H45          -13.7336    -4.7888     4.3449 H       
@<TRIPOS>BOND
   1    1    2 1
   2    1    5 1
   3    2    3 2
   4    2    6 1
   5    3    4 1
   6    3   27 1
   7    4    5 2
   8    4   28 1
   9    5   29 1
  10    6    7 2
  11    6    8 am
  12    8    9 1
  13    8   30 1
  14    9   10 ar
  15    9   14 ar
  16   10   11 ar
  17   10   31 1
  18   11   12 ar
  19   11   15 1
  20   12   13 ar
  21   12   32 1
  22   13   14 ar
  23   13   33 1
  24   14   34 1
  25   15   17 1
  26   16   17 1
  27   16   19 1
  28   16   26 2
  29   17   18 1
  30   17   35 1
  31   18   36 1
  32   18   37 1
  33   18   38 1
  34   19   20 ar
  35   19   22 ar
  36   20   23 ar
  37   20   39 1
  38   21   23 ar
  39   21   24 ar
  40   21   25 1
  41   22   24 ar
  42   22   40 1
  43   23   41 1
  44   24   42 1
  45   25   43 1
  46   25   44 1
  47   25   45 1

#	End of record

