#	Name: ASD05740054
#	Creating user name:	WinNT
#	Creation time:	15. 06. 2019 21:02

#	Modifying user name:	WinNT
#	Modification time:	15. 06. 2019 21:02

#	Program:	/corina/corina34_cracker 3.40 0067  02.08.2006

@<TRIPOS>MOLECULE
ASD05740054
  48   51    0    0    0
SMALL
NO_CHARGES


@<TRIPOS>ATOM
   1 C1             3.3515     1.4942     0.0165 C.ar    
   2 C2             1.9113     8.2775     5.8179 C.3     
   3 C3             2.3373     9.9148    -0.1015 C.3     
   4 C4             1.1933     3.8754    -0.8268 C.ar    
   5 C5             2.5269     3.4741    -0.8810 C.ar    
   6 C6             0.8737     5.1922    -0.6658 C.ar    
   7 C7             1.8916     6.1464    -0.5544 C.ar    
   8 C8             3.2400     5.7474    -0.6085 C.ar    
   9 C9             3.5470     4.4050    -0.7725 C.ar    
  10 C10            1.5784     7.5665    -0.3815 C.2     
  11 C11            2.6107     8.4436    -0.2799 C.2     
  12 C12            3.9389     7.9740    -0.3424 C.2     
  13 O13            4.2191     6.6710    -0.5011 O.3     
  14 C14            2.3736    10.2582     1.3654 C.2     
  15 N15            3.4514    10.7419     2.0449 N.pl3   
  16 O16            4.8551     8.7710    -0.2500 O.2     
  17 O17            2.8287     2.1602    -1.0411 O.3     
  18 C18            0.1498     8.0419    -0.3184 C.3     
  19 C19            1.3433    10.1447     2.2284 C.2     
  20 C20            1.7995    10.5749     3.4935 C.2     
  21 C21            3.0969    10.9310     3.3545 C.2     
  22 N22            1.0449    10.6203     4.6811 N.am    
  23 S23            1.6938    10.0567     6.0966 S.o2    
  24 O24            0.6796    10.2896     7.0642 O.2     
  25 O25            2.9550    10.7052     6.1865 O.2     
  26 N26            3.5731     0.1936    -0.0852 N.ar    
  27 C27            4.0830    -0.4871     0.9281 C.ar    
  28 C28            4.3852     0.1788     2.1055 C.ar    
  29 C29            4.1401     1.5411     2.1770 C.ar    
  30 N30            3.6331     2.1613     1.1241 N.ar    
  31 H31            2.5106     8.1208     4.9210 H       
  32 H32            2.4180     7.8347     6.6754 H       
  33 H33            0.9360     7.8079     5.6899 H       
  34 H34            3.0968    10.4921    -0.6287 H       
  35 H35            1.3537    10.1533    -0.5062 H       
  36 H36            0.4077     3.1398    -0.9172 H       
  37 H37           -0.1615     5.4973    -0.6248 H       
  38 H38            4.5780     4.0863    -0.8151 H       
  39 H39            4.3251    10.9225     1.6641 H       
  40 H40           -0.5217     7.1892    -0.4189 H       
  41 H41           -0.0277     8.5334     0.6382 H       
  42 H42           -0.0346     8.7471    -1.1289 H       
  43 H43            0.3505     9.7898     1.9943 H       
  44 H44            3.7395    11.3048     4.1379 H       
  45 H45            0.1448    10.9818     4.6702 H       
  46 H46            4.2612    -1.5486     0.8391 H       
  47 H47            4.8019    -0.3521     2.9486 H       
  48 H48            4.3637     2.0902     3.0797 H       
@<TRIPOS>BOND
   1    1   26 ar
   2    1   17 1
   3    1   30 ar
   4    2   23 1
   5    2   31 1
   6    2   32 1
   7    2   33 1
   8    3   11 1
   9    3   14 1
  10    3   34 1
  11    3   35 1
  12    4    5 ar
  13    4    6 ar
  14    4   36 1
  15    5   17 1
  16    5    9 ar
  17    6    7 ar
  18    6   37 1
  19    7    8 ar
  20    7   10 1
  21    8    9 ar
  22    8   13 1
  23    9   38 1
  24   10   11 2
  25   10   18 1
  26   11   12 1
  27   12   13 1
  28   12   16 2
  29   14   15 1
  30   14   19 2
  31   15   21 1
  32   15   39 1
  33   18   40 1
  34   18   41 1
  35   18   42 1
  36   19   20 1
  37   19   43 1
  38   20   21 2
  39   20   22 1
  40   21   44 1
  41   22   23 am
  42   22   45 1
  43   23   24 2
  44   23   25 2
  45   26   27 ar
  46   27   28 ar
  47   27   46 1
  48   28   29 ar
  49   28   47 1
  50   29   30 ar
  51   29   48 1

#	End of record

