#	Name: ASD03180008
#	Creating user name:	WinNT
#	Creation time:	15. 06. 2019 20:33

#	Modifying user name:	WinNT
#	Modification time:	15. 06. 2019 20:33

#	Program:	/corina/corina34_cracker 3.40 0067  02.08.2006

@<TRIPOS>MOLECULE
ASD03180008
  36   38    0    0    0
SMALL
NO_CHARGES


@<TRIPOS>ATOM
   1 C1             0.3990     1.0227    -1.4884 C.ar    
   2 C2             0.0899    -0.0495    -0.6719 C.ar    
   3 C3             0.9369    -0.4025     0.3625 C.ar    
   4 C4             2.0986     0.3188     0.5837 C.ar    
   5 C5             2.4108     1.3994    -0.2385 C.ar    
   6 C6             1.5563     1.7474    -1.2748 C.ar    
   7 O7             2.9321    -0.0267     1.6012 O.3     
   8 C8             2.5477    -1.1450     2.4035 C.3     
   9 N9             3.5834     2.1324    -0.0195 N.pl3   
  10 C10            3.5647     3.5147    -0.1165 C.2     
  11 C11            4.3953     5.5954    -0.1602 C.2     
  12 N12            4.6065     4.2845    -0.0452 N.2     
  13 S13            2.1244     4.4970    -0.3631 S.3     
  14 C14            3.1114     5.9563    -0.3401 C.2     
  15 C15            5.4943     6.5833    -0.0966 C.2     
  16 S16            5.3278     8.3320    -0.2351 S.3     
  17 C17            7.0167     8.5178    -0.0463 C.2     
  18 N18            7.5821     7.3669     0.0992 N.2     
  19 C19            6.8035     6.3064     0.0838 C.2     
  20 C20            7.7424     9.8385    -0.0493 C.3     
  21 C21            7.3283     4.9034     0.2486 C.3     
  22 H22           -0.2634     1.2919    -2.2979 H       
  23 H23           -0.8157    -0.6127    -0.8424 H       
  24 H24            0.6925    -1.2405     0.9983 H       
  25 H25            1.7954     2.5842    -1.9142 H       
  26 H26            3.2977    -1.3126     3.1765 H       
  27 H27            1.5837    -0.9430     2.8703 H       
  28 H28            2.4685    -2.0325     1.7756 H       
  29 H29            4.4088     1.6727     0.2002 H       
  30 H30            2.7484     6.9673    -0.4525 H       
  31 H31            7.7960    10.2260     0.9681 H       
  32 H32            8.7510     9.6980    -0.4381 H       
  33 H33            7.2053    10.5468    -0.6800 H       
  34 H34            7.5795     4.4922    -0.7291 H       
  35 H35            8.2197     4.9201     0.8757 H       
  36 H36            6.5651     4.2829     0.7184 H       
@<TRIPOS>BOND
   1    1    2 ar
   2    1    6 ar
   3    1   22 1
   4    2    3 ar
   5    2   23 1
   6    3    4 ar
   7    3   24 1
   8    4    5 ar
   9    4    7 1
  10    5    6 ar
  11    5    9 1
  12    6   25 1
  13    7    8 1
  14    8   26 1
  15    8   27 1
  16    8   28 1
  17    9   10 1
  18    9   29 1
  19   10   13 1
  20   10   12 2
  21   11   12 1
  22   11   14 2
  23   11   15 1
  24   13   14 1
  25   14   30 1
  26   15   16 1
  27   15   19 2
  28   16   17 1
  29   17   18 2
  30   17   20 1
  31   18   19 1
  32   19   21 1
  33   20   31 1
  34   20   32 1
  35   20   33 1
  36   21   34 1
  37   21   35 1
  38   21   36 1

#	End of record

