#	Name: ASD03090092
#	Creating user name:	WinNT
#	Creation time:	15. 06. 2019 20:28

#	Modifying user name:	WinNT
#	Modification time:	15. 06. 2019 20:28

#	Program:	/corina/corina34_cracker 3.40 0067  02.08.2006

@<TRIPOS>MOLECULE
ASD03090092
  45   47    0    0    0
SMALL
NO_CHARGES


@<TRIPOS>ATOM
   1 C1            -0.0094     1.5019    -0.3074 C.2     
   2 C2             0.0178     0.0540    -0.5865 C.ar    
   3 C3             1.2391    -0.6239    -0.6519 C.ar    
   4 C4             1.2613    -1.9699    -0.9111 C.ar    
   5 C5             0.0689    -2.6622    -1.1092 C.ar    
   6 C6            -1.1492    -1.9895    -1.0446 C.ar    
   7 C7            -1.1778    -0.6446    -0.7806 C.ar    
   8 O8             1.0308     2.1074    -0.1339 O.2     
   9 N9            -1.1869     2.1551    -0.2502 N.am    
  10 S10            0.1015    -4.3921    -1.4426 S.3     
  11 C11           -1.6557    -4.8072    -1.6173 C.3     
  12 F12           -2.2074    -4.0672    -2.6686 F       
  13 F13           -1.7875    -6.1732    -1.8890 F       
  14 F14           -2.3275    -4.5012    -0.4289 F       
  15 C15           -1.2140     3.5934     0.0271 C.3     
  16 C16           -2.6415     4.0763     0.0366 C.ar    
  17 C17           -3.3642     4.0697     1.2155 C.ar    
  18 C18           -4.6726     4.5116     1.2278 C.ar    
  19 C19           -5.2625     4.9631     0.0540 C.ar    
  20 C20           -4.5337     4.9684    -1.1286 C.ar    
  21 C21           -3.2239     4.5304    -1.1326 C.ar    
  22 N22           -6.5857     5.4103     0.0627 N.3     
  23 C23           -7.2784     5.0354    -1.1837 C.3     
  24 C24           -8.5228     4.2141    -0.7859 C.3     
  25 C25           -8.7759     4.6513     0.6809 C.3     
  26 C26           -7.3304     4.8394     1.2052 C.3     
  27 H27            2.1639    -0.0876    -0.4988 H       
  28 H28            2.2043    -2.4940    -0.9620 H       
  29 H29           -2.0721    -2.5288    -1.1990 H       
  30 H30           -2.1227    -0.1244    -0.7265 H       
  31 H31           -2.0165     1.6729    -0.3926 H       
  32 H32           -0.7593     3.7847     0.9990 H       
  33 H33           -0.6564     4.1229    -0.7455 H       
  34 H34           -2.9050     3.7182     2.1277 H       
  35 H35           -5.2365     4.5058     2.1488 H       
  36 H36           -4.9893     5.3188    -2.0429 H       
  37 H37           -2.6552     4.5388    -2.0507 H       
  38 H38           -7.5829     5.9324    -1.7230 H       
  39 H39           -6.6191     4.4313    -1.8070 H       
  40 H40           -9.3730     4.4724    -1.4172 H       
  41 H41           -8.3127     3.1459    -0.8389 H       
  42 H42           -9.3300     5.5892     0.7187 H       
  43 H43           -9.2945     3.8705     1.2371 H       
  44 H44           -6.9037     3.8790     1.4944 H       
  45 H45           -7.3194     5.5299     2.0485 H       
@<TRIPOS>BOND
   1    1    2 1
   2    1    8 2
   3    1    9 am
   4    2    3 ar
   5    2    7 ar
   6    3    4 ar
   7    3   27 1
   8    4    5 ar
   9    4   28 1
  10    5    6 ar
  11    5   10 1
  12    6    7 ar
  13    6   29 1
  14    7   30 1
  15    9   15 1
  16    9   31 1
  17   10   11 1
  18   11   12 1
  19   11   13 1
  20   11   14 1
  21   15   16 1
  22   15   32 1
  23   15   33 1
  24   16   17 ar
  25   16   21 ar
  26   17   18 ar
  27   17   34 1
  28   18   19 ar
  29   18   35 1
  30   19   20 ar
  31   19   22 1
  32   20   21 ar
  33   20   36 1
  34   21   37 1
  35   22   23 1
  36   22   26 1
  37   23   24 1
  38   23   38 1
  39   23   39 1
  40   24   25 1
  41   24   40 1
  42   24   41 1
  43   25   26 1
  44   25   42 1
  45   25   43 1
  46   26   44 1
  47   26   45 1

#	End of record

