#	Name: ASD02448021
#	Creating user name:	WinNT
#	Creation time:	15. 06. 2019 20:21

#	Modifying user name:	WinNT
#	Modification time:	15. 06. 2019 20:21

#	Program:	/corina/corina34_cracker 3.40 0067  02.08.2006

@<TRIPOS>MOLECULE
ASD02448021
  88   94    0    0    0
SMALL
NO_CHARGES


@<TRIPOS>ATOM
   1 C1             3.3469    -7.4283    -1.0347 C.ar    
   2 C2             2.8244    -6.3124    -0.4123 C.ar    
   3 C3             2.2143    -5.3188    -1.1658 C.ar    
   4 C4             2.1294    -5.4469    -2.5456 C.ar    
   5 C5             2.6512    -6.5627    -3.1688 C.ar    
   6 C6             3.2621    -7.5569    -2.4152 C.ar    
   7 N7             3.7912    -8.6870    -3.0460 N.am    
   8 C8             4.8671    -9.5659    -2.5696 C.3     
   9 C9             5.1380   -10.6691    -3.5410 C.2     
  10 N10            4.3687   -10.6523    -4.6386 N.am    
  11 S11            3.3400    -9.3501    -4.5089 S.o2    
  12 O12            5.9878   -11.5133    -3.3511 O.2     
  13 O13            2.0256    -9.8678    -4.3552 O.2     
  14 O14            3.7129    -8.4192    -5.5157 O.2     
  15 N15            1.6828    -4.1846    -0.5325 N.pl3   
  16 C16            0.7499    -4.1769     0.4693 C.2     
  17 C17            2.0029    -2.8908    -0.7959 C.2     
  18 N18            1.3084    -2.1161    -0.0100 N.2     
  19 C19            0.5249    -2.8742     0.7836 C.2     
  20 C20           -0.4153    -2.3747     1.8167 C.ar    
  21 C21           -0.5483    -1.0039     2.0380 C.ar    
  22 C22           -1.1729    -3.2729     2.5653 C.ar    
  23 C23           -2.0467    -2.8033     3.5250 C.ar    
  24 C24           -2.1719    -1.4424     3.7446 C.ar    
  25 C25           -1.4254    -0.5447     3.0006 C.ar    
  26 C26            2.9985    -2.4268    -1.8277 C.3     
  27 C27            4.3373    -2.2081    -1.1712 C.ar    
  28 C28            5.2061    -3.2719    -1.0070 C.ar    
  29 C29            4.6950    -0.9433    -0.7402 C.ar    
  30 C30            5.9201    -0.7371    -0.1392 C.ar    
  31 C31            6.7973    -1.8062     0.0336 C.ar    
  32 C32            6.4334    -3.0775    -0.4065 C.ar    
  33 C33            8.1155    -1.5908     0.6790 C.ar    
  34 C34            8.9917    -2.6612     0.8511 C.ar    
  35 C35            8.4823    -0.3165     1.1090 C.ar    
  36 C36            9.7079    -0.1187     1.7086 C.ar    
  37 C37           10.5776    -1.1884     1.8839 C.ar    
  38 C38           10.2163    -2.4586     1.4511 C.ar    
  39 N39           11.8208    -0.9851     2.4915 N.am    
  40 Cl40           0.3874     0.1224     1.1055 Cl      
  41 Cl41          -3.2733    -0.8590     4.9530 Cl      
  42 C42           11.9486    -1.8101     4.7701 C.2     
  43 C43           11.8914    -0.5823     3.8982 C.3     
  44 N44           10.9379    -2.5078     5.2017 N.2     
  45 O45           11.2985    -3.4398     5.8825 O.3     
  46 C46           12.6337    -3.4816     5.9932 C.2     
  47 C47           13.1108    -2.4360     5.2763 C.2     
  48 C48           12.9538    -1.1599     1.7829 C.2     
  49 O49           14.0338    -1.0762     2.3335 O.2     
  50 O50           12.8891    -1.4271     0.4648 O.3     
  51 C51           14.1492    -1.6034    -0.2348 C.3     
  52 C52           14.5542    -3.0782    -0.1922 C.3     
  53 C53           13.9908    -1.1599    -1.6905 C.3     
  54 C54           13.4443    -4.4950     6.7594 C.3     
  55 H55            3.8254    -8.1991    -0.4488 H       
  56 H56            2.8899    -6.2125     0.6611 H       
  57 H57            1.6547    -4.6738    -3.1315 H       
  58 H58            2.5845    -6.6627    -4.2421 H       
  59 H59            5.7750    -8.9780    -2.4348 H       
  60 H60            4.5777    -9.9971    -1.6112 H       
  61 H61            4.4031   -11.2852    -5.3729 H       
  62 H62            0.2832    -5.0391     0.9222 H       
  63 H63           -1.0768    -4.3350     2.3947 H       
  64 H64           -2.6342    -3.4992     4.1056 H       
  65 H65           -1.5266     0.5162     3.1757 H       
  66 H66            3.0948    -3.1838    -2.6059 H       
  67 H67            2.6540    -1.4922    -2.2705 H       
  68 H68            4.9233    -4.2565    -1.3491 H       
  69 H69            4.0144    -0.1156    -0.8747 H       
  70 H70            6.1987     0.2509     0.1963 H       
  71 H71            7.1093    -3.9095    -0.2751 H       
  72 H72            8.7114    -3.6485     0.5149 H       
  73 H73            7.8070     0.5152     0.9724 H       
  74 H74            9.9925     0.8683     2.0420 H       
  75 H75           10.8937    -3.2885     1.5887 H       
  76 H76           12.7857     0.0197     4.0593 H       
  77 H77           11.0083     0.0036     4.1532 H       
  78 H78           14.1404    -2.1442     5.1306 H       
  79 H79           14.9195    -1.0010     0.2468 H       
  80 H80           14.6671    -3.3942     0.8449 H       
  81 H81           13.7839    -3.6806    -0.6737 H       
  82 H82           15.5002    -3.2105    -0.7173 H       
  83 H83           13.7022    -0.1092    -1.7209 H       
  84 H84           14.9367    -1.2922    -2.2157 H       
  85 H85           13.2205    -1.7623    -2.1721 H       
  86 H86           12.7749    -5.2162     7.2283 H       
  87 H87           14.1166    -5.0140     6.0763 H       
  88 H88           14.0276    -3.9877     7.5278 H       
@<TRIPOS>BOND
   1    1    2 ar
   2    1    6 ar
   3    1   55 1
   4    2    3 ar
   5    2   56 1
   6    3    4 ar
   7    3   15 1
   8    4    5 ar
   9    4   57 1
  10    5    6 ar
  11    5   58 1
  12    6    7 1
  13    7    8 1
  14    7   11 am
  15    8    9 1
  16    8   59 1
  17    8   60 1
  18    9   10 am
  19    9   12 2
  20   10   11 am
  21   10   61 1
  22   11   13 2
  23   11   14 2
  24   15   16 1
  25   15   17 1
  26   16   19 2
  27   16   62 1
  28   17   18 2
  29   17   26 1
  30   18   19 1
  31   19   20 1
  32   20   21 ar
  33   20   22 ar
  34   21   40 1
  35   21   25 ar
  36   22   23 ar
  37   22   63 1
  38   23   24 ar
  39   23   64 1
  40   24   25 ar
  41   24   41 1
  42   25   65 1
  43   26   27 1
  44   26   66 1
  45   26   67 1
  46   27   28 ar
  47   27   29 ar
  48   28   32 ar
  49   28   68 1
  50   29   30 ar
  51   29   69 1
  52   30   31 ar
  53   30   70 1
  54   31   32 ar
  55   31   33 1
  56   32   71 1
  57   33   34 ar
  58   33   35 ar
  59   34   38 ar
  60   34   72 1
  61   35   36 ar
  62   35   73 1
  63   36   37 ar
  64   36   74 1
  65   37   38 ar
  66   37   39 1
  67   38   75 1
  68   39   48 am
  69   39   43 1
  70   42   43 1
  71   42   44 2
  72   42   47 1
  73   43   76 1
  74   43   77 1
  75   44   45 1
  76   45   46 1
  77   46   47 2
  78   46   54 1
  79   47   78 1
  80   48   49 2
  81   48   50 1
  82   50   51 1
  83   51   52 1
  84   51   53 1
  85   51   79 1
  86   52   80 1
  87   52   81 1
  88   52   82 1
  89   53   83 1
  90   53   84 1
  91   53   85 1
  92   54   86 1
  93   54   87 1
  94   54   88 1

#	End of record

