#	Name: ASD01940245
#	Creating user name:	WinNT
#	Creation time:	15. 06. 2019 20:12

#	Modifying user name:	WinNT
#	Modification time:	15. 06. 2019 20:12

#	Program:	/corina/corina34_cracker 3.40 0067  02.08.2006

@<TRIPOS>MOLECULE
ASD01940245
  39   41    0    0    0
SMALL
NO_CHARGES


@<TRIPOS>ATOM
   1 C1            -0.4844     1.4462    -0.0352 C.2     
   2 C2            -0.6005     0.1179    -0.0710 C.2     
   3 C3             0.5969    -0.5699    -0.1669 C.2     
   4 C4             1.6854     0.1999    -0.2091 C.2     
   5 S5             1.2145     1.8925    -0.1254 S.3     
   6 S6            -1.8280     2.5806     0.0775 S.o2    
   7 O7            -1.3595     3.8117    -0.4555 O.2     
   8 O8            -2.9703     1.9008    -0.4247 O.2     
   9 N9            -2.1119     2.8459     1.6873 N.am    
  10 C10            3.1021    -0.3036    -0.3118 C.3     
  11 C11           -1.1058     3.3920     2.4954 C.ar    
  12 C12           -0.9693     2.9745     3.8188 C.ar    
  13 C13            0.0294     3.5186     4.6147 C.ar    
  14 C14            0.8869     4.4741     4.0922 C.ar    
  15 C15            0.7491     4.8872     2.7785 C.ar    
  16 C16           -0.2406     4.3443     1.9791 C.ar    
  17 N17           -1.8385     2.0085     4.3441 N.pl3   
  18 C18           -1.9710     1.8663     5.7289 C.ar    
  19 C19           -2.6761     2.8150     6.4631 C.ar    
  20 C20           -2.8052     2.6704     7.8317 C.ar    
  21 C21           -2.2336     1.5841     8.4706 C.ar    
  22 C22           -1.5321     0.6403     7.7429 C.ar    
  23 C23           -1.4044     0.7753     6.3737 C.ar    
  24 I24           -2.4310     1.3691    10.5452 I       
  25 F25           -3.2333     3.8760     5.8393 F       
  26 F26            1.8589     5.0035     4.8670 F       
  27 F27            0.1651     3.1175     5.8977 F       
  28 H28           -1.5563    -0.3830    -0.0280 H       
  29 H29            0.6461    -1.6481    -0.2044 H       
  30 H30           -2.9746     2.6232     2.0707 H       
  31 H31            3.3809    -0.3924    -1.3618 H       
  32 H32            3.7736     0.3971     0.1844 H       
  33 H33            3.1765    -1.2796     0.1676 H       
  34 H34            1.4188     5.6324     2.3752 H       
  35 H35           -0.3420     4.6656     0.9529 H       
  36 H36           -2.3480     1.4386     3.7471 H       
  37 H37           -3.3521     3.4060     8.4029 H       
  38 H38           -1.0868    -0.2058     8.2451 H       
  39 H39           -0.8600     0.0350     5.8061 H       
@<TRIPOS>BOND
   1    1    2 2
   2    1    5 1
   3    1    6 1
   4    2    3 1
   5    2   28 1
   6    3    4 2
   7    3   29 1
   8    4    5 1
   9    4   10 1
  10    6    7 2
  11    6    8 2
  12    6    9 am
  13    9   11 1
  14    9   30 1
  15   10   31 1
  16   10   32 1
  17   10   33 1
  18   11   12 ar
  19   11   16 ar
  20   12   13 ar
  21   12   17 1
  22   13   14 ar
  23   13   27 1
  24   14   15 ar
  25   14   26 1
  26   15   16 ar
  27   15   34 1
  28   16   35 1
  29   17   18 1
  30   17   36 1
  31   18   19 ar
  32   18   23 ar
  33   19   20 ar
  34   19   25 1
  35   20   21 ar
  36   20   37 1
  37   21   22 ar
  38   21   24 1
  39   22   23 ar
  40   22   38 1
  41   23   39 1

#	End of record

