#	Name: ASD03091766
#	Creating user name:	WinNT
#	Creation time:	15. 06. 2019 20:31

#	Modifying user name:	WinNT
#	Modification time:	15. 06. 2019 20:31

#	Program:	/corina/corina34_cracker 3.40 0067  02.08.2006

@<TRIPOS>MOLECULE
ASD03091766
  39   41    0    0    0
SMALL
NO_CHARGES


@<TRIPOS>ATOM
   1 C1            -0.0109     1.4649    -0.0354 C.3     
   2 C2             0.0634    -0.0617    -0.1071 C.3     
   3 N3             0.7612    -0.5755     1.0785 N.3     
   4 C4             0.0362    -0.2353     2.3093 C.3     
   5 C5            -0.0396     1.2859     2.4550 C.3     
   6 C6             1.3796     1.8594     2.5289 C.3     
   7 N7             2.0582     1.6060     1.2507 N.am    
   8 C8             1.4088     2.0402     0.0063 C.3     
   9 C9             3.2546     0.9861     1.2201 C.2     
  10 O10            3.7526     0.6761     0.1530 O.2     
  11 C11            3.9542     0.6859     2.4677 C.2     
  12 C12            5.1046    -0.0634     2.5919 C.2     
  13 C13           -0.7568     1.8766     1.2374 C.3     
  14 O14            3.5903     1.0991     3.7023 O.3     
  15 C15            4.4672     0.6330     4.6033 C.2     
  16 C16            5.4204    -0.0923     3.9540 C.2     
  17 N17            4.4143     0.8553     5.9699 N.am    
  18 C18            3.4178     1.5959     6.4942 C.2     
  19 O19            2.5674     2.0679     5.7698 O.2     
  20 C20            3.3604     1.8377     7.9805 C.3     
  21 H21           -0.5341     1.8467    -0.9120 H       
  22 H22           -0.9453    -0.4732    -0.1416 H       
  23 H23            0.6068    -0.3571    -1.0047 H       
  24 H24            0.9077    -1.5714     1.0086 H       
  25 H25           -0.9723    -0.6462     2.2620 H       
  26 H26            0.5598    -0.6566     3.1674 H       
  27 H27           -0.5836     1.5390     3.3650 H       
  28 H28            1.3310     2.9331     2.7104 H       
  29 H29            1.9282     1.3745     3.3364 H       
  30 H30            1.9767     1.6743    -0.8492 H       
  31 H31            1.3630     3.1288    -0.0214 H       
  32 H32            5.6550    -0.5369     1.7924 H       
  33 H33           -0.7714     2.9638     1.3153 H       
  34 H34           -1.7789     1.4998     1.1986 H       
  35 H35            6.2624    -0.5950     4.4064 H       
  36 H36            5.0946     0.4778     6.5493 H       
  37 H37            3.9157     2.7437     8.2230 H       
  38 H38            2.3217     1.9544     8.2898 H       
  39 H39            3.8022     0.9897     8.5039 H       
@<TRIPOS>BOND
   1    1    2 1
   2    1    8 1
   3    1   13 1
   4    1   21 1
   5    2    3 1
   6    2   22 1
   7    2   23 1
   8    3    4 1
   9    3   24 1
  10    4    5 1
  11    4   25 1
  12    4   26 1
  13    5    6 1
  14    5   13 1
  15    5   27 1
  16    6    7 1
  17    6   28 1
  18    6   29 1
  19    7    8 1
  20    7    9 am
  21    8   30 1
  22    8   31 1
  23    9   10 2
  24    9   11 1
  25   11   12 2
  26   11   14 1
  27   12   16 1
  28   12   32 1
  29   13   33 1
  30   13   34 1
  31   14   15 1
  32   15   16 2
  33   15   17 1
  34   16   35 1
  35   17   18 am
  36   17   36 1
  37   18   19 2
  38   18   20 1
  39   20   37 1
  40   20   38 1
  41   20   39 1

#	End of record

