#	Name: ASD03082454
#	Creating user name:	WinNT
#	Creation time:	15. 06. 2019 20:28

#	Modifying user name:	WinNT
#	Modification time:	15. 06. 2019 20:28

#	Program:	/corina/corina34_cracker 3.40 0067  02.08.2006

@<TRIPOS>MOLECULE
ASD03082454
  47   49    0    0    0
SMALL
NO_CHARGES


@<TRIPOS>ATOM
   1 C1             1.5821     3.5007    -1.2841 C.ar    
   2 C2             2.6156     4.2222    -0.7005 C.ar    
   3 C3             2.5961     5.6019    -0.7255 C.ar    
   4 C4             1.5480     6.2782    -1.3308 C.ar    
   5 C5             0.5131     5.5790    -1.9149 C.ar    
   6 N6             1.6001     2.1100    -1.2600 N.pl3   
   7 C7             2.7360     1.4330    -0.8037 C.2     
   8 C8             2.8492     0.0442    -0.6196 C.2     
   9 N9             3.8819     1.9844    -0.4792 N.2     
  10 N10            4.7573     0.9685    -0.0742 N.pl3   
  11 C11            4.0973    -0.2153    -0.1700 C.2     
  12 C12            6.0782     1.1417     0.3501 C.ar    
  13 C13            7.0855     0.2796    -0.0787 C.ar    
  14 C14            6.4226     2.1846     1.2082 C.ar    
  15 C15            7.7373     2.3216     1.6033 C.ar    
  16 N16            8.6621     1.4811     1.1793 N.ar    
  17 C17            8.3768     0.4849     0.3627 C.ar    
  18 C18            8.1222     3.4455     2.5305 C.3     
  19 C19            0.5165     4.1819    -1.8932 C.ar    
  20 Br20           1.5375     8.1690    -1.3550 Br      
  21 C21            4.6565    -1.5740     0.1649 C.3     
  22 C22            5.0970    -2.2754    -1.1215 C.3     
  23 C23            5.7975    -3.5899    -0.7715 C.3     
  24 C24            6.3475    -4.2301    -2.0476 C.3     
  25 O25            3.9520    -2.5470    -1.9321 O.3     
  26 C26           -0.5551     3.4494    -2.4978 C.1     
  27 N27           -1.4053     2.8683    -2.9775 N.1     
  28 H28            3.4353     3.7029    -0.2264 H       
  29 H29            3.4021     6.1583    -0.2703 H       
  30 H30           -0.3012     6.1105    -2.3848 H       
  31 H31            0.8249     1.6097    -1.5595 H       
  32 H32            2.0756    -0.6864    -0.8042 H       
  33 H33            6.8586    -0.5381    -0.7468 H       
  34 H34            5.6707     2.8762     1.5587 H       
  35 H35            9.1631    -0.1810     0.0389 H       
  36 H36            8.0348     3.1101     3.5639 H       
  37 H37            9.1513     3.7445     2.3314 H       
  38 H38            7.4590     4.2949     2.3669 H       
  39 H39            5.5136    -1.4606     0.8287 H       
  40 H40            3.8900    -2.1705     0.6597 H       
  41 H41            5.7853    -1.6315    -1.6690 H       
  42 H42            6.6178    -3.3919    -0.0816 H       
  43 H43            5.0843    -4.2681    -0.3030 H       
  44 H44            5.5272    -4.4281    -2.7375 H       
  45 H45            7.0607    -3.5519    -2.5161 H       
  46 H46            6.8466    -5.1666    -1.7983 H       
  47 H47            3.2954    -3.1159    -1.5074 H       
@<TRIPOS>BOND
   1    1    2 ar
   2    1    6 1
   3    1   19 ar
   4    2    3 ar
   5    2   28 1
   6    3    4 ar
   7    3   29 1
   8    4    5 ar
   9    4   20 1
  10    5   19 ar
  11    5   30 1
  12    6    7 1
  13    6   31 1
  14    7    8 1
  15    7    9 2
  16    8   11 2
  17    8   32 1
  18    9   10 1
  19   10   11 1
  20   10   12 1
  21   11   21 1
  22   12   13 ar
  23   12   14 ar
  24   13   17 ar
  25   13   33 1
  26   14   15 ar
  27   14   34 1
  28   15   16 ar
  29   15   18 1
  30   16   17 ar
  31   17   35 1
  32   18   36 1
  33   18   37 1
  34   18   38 1
  35   19   26 1
  36   21   22 1
  37   21   39 1
  38   21   40 1
  39   22   23 1
  40   22   25 1
  41   22   41 1
  42   23   24 1
  43   23   42 1
  44   23   43 1
  45   24   44 1
  46   24   45 1
  47   24   46 1
  48   25   47 1
  49   26   27 3

#	End of record

