#	Name: ASD01913222
#	Creating user name:	WinNT
#	Creation time:	15. 06. 2019 20:01

#	Modifying user name:	WinNT
#	Modification time:	15. 06. 2019 20:01

#	Program:	/corina/corina34_cracker 3.40 0067  02.08.2006

@<TRIPOS>MOLECULE
ASD01913222
  41   44    0    0    0
SMALL
NO_CHARGES


@<TRIPOS>ATOM
   1 C1             0.1509     1.3708     1.4505 C.ar    
   2 C2             0.1693    -0.0119     1.4392 C.ar    
   3 N3             1.2803    -0.6722     1.1854 N.ar    
   4 C4             2.4226    -0.0411     0.9311 C.ar    
   5 C5             2.4750     1.3554     0.9270 C.ar    
   6 C6             1.3215     2.0711     1.1903 C.ar    
   7 C7             3.6078    -0.7978     0.6600 C.1     
   8 C8             4.5794    -1.4181     0.4378 C.1     
   9 C9             5.7646    -2.1748     0.1668 C.ar    
  10 C10            6.9708    -1.5177    -0.1018 C.ar    
  11 C11            8.1147    -2.2481    -0.3639 C.ar    
  12 C12            8.0756    -3.6275    -0.3627 C.ar    
  13 C13            6.8780    -4.2966    -0.0962 C.ar    
  14 C14            5.7216    -3.5689     0.1751 C.ar    
  15 Cl15           7.0303     0.2173    -0.1061 Cl      
  16 C16            6.8398    -5.7742    -0.0963 C.2     
  17 N17            5.6607    -6.4178     0.0132 N.am    
  18 C18            5.4433    -7.8649    -0.0809 C.3     
  19 C19            3.9688    -8.1200     0.1034 C.ar    
  20 C20            3.3277    -6.9126     0.2969 C.ar    
  21 C21            4.3505    -5.8055     0.2556 C.3     
  22 C22            3.2399    -9.2971     0.1041 C.ar    
  23 C23            1.8725    -9.2652     0.2976 C.ar    
  24 C24            1.2305    -8.0561     0.4913 C.ar    
  25 C25            1.9574    -6.8813     0.4916 C.ar    
  26 O26            7.8718    -6.4089    -0.1951 O.2     
  27 H27           -0.7671     1.9016     1.6556 H       
  28 H28           -0.7402    -0.5580     1.6418 H       
  29 H29            3.4029     1.8682     0.7212 H       
  30 H30            1.3308     3.1510     1.1937 H       
  31 H31            9.0433    -1.7368    -0.5709 H       
  32 H32            8.9732    -4.1917    -0.5687 H       
  33 H33            4.7940    -4.0817     0.3820 H       
  34 H34            5.7607    -8.2233    -1.0601 H       
  35 H35            6.0069    -8.3747     0.7005 H       
  36 H36            4.3554    -5.2714     1.2058 H       
  37 H37            4.1162    -5.1161    -0.5555 H       
  38 H38            3.7411   -10.2417    -0.0473 H       
  39 H39            1.3051   -10.1842     0.2971 H       
  40 H40            0.1615    -8.0301     0.6427 H       
  41 H41            1.4557    -5.9370     0.6430 H       
@<TRIPOS>BOND
   1    1    2 ar
   2    1    6 ar
   3    1   27 1
   4    2    3 ar
   5    2   28 1
   6    3    4 ar
   7    4    5 ar
   8    4    7 1
   9    5    6 ar
  10    5   29 1
  11    6   30 1
  12    7    8 3
  13    8    9 1
  14    9   10 ar
  15    9   14 ar
  16   10   11 ar
  17   10   15 1
  18   11   12 ar
  19   11   31 1
  20   12   13 ar
  21   12   32 1
  22   13   14 ar
  23   13   16 1
  24   14   33 1
  25   16   17 am
  26   16   26 2
  27   17   18 1
  28   17   21 1
  29   18   19 1
  30   18   34 1
  31   18   35 1
  32   19   20 ar
  33   19   22 ar
  34   20   21 1
  35   20   25 ar
  36   21   36 1
  37   21   37 1
  38   22   23 ar
  39   22   38 1
  40   23   24 ar
  41   23   39 1
  42   24   25 ar
  43   24   40 1
  44   25   41 1

#	End of record

