#	Name: ASD00100095
#	Creating user name:	WinNT
#	Creation time:	15. 06. 2019 18:30

#	Modifying user name:	WinNT
#	Modification time:	15. 06. 2019 18:30

#	Program:	/corina/corina34_cracker 3.40 0067  02.08.2006

@<TRIPOS>MOLECULE
ASD00100095
  38   40    0    0    0
SMALL
NO_CHARGES


@<TRIPOS>ATOM
   1 N1            -0.0168     1.3889     0.0097 N.pl3   
   2 C2             0.6711    -2.1018    -0.0149 C.2     
   3 N3             1.1134    -0.8047    -0.0124 N.pl3   
   4 C4             0.0021    -0.0041     0.0020 C.2     
   5 C5            -1.0774    -0.8273     0.0079 C.2     
   6 N6            -0.6424    -2.0925    -0.0026 N.2     
   7 C7             1.5268    -3.3067    -0.0345 C.ar    
   8 C8             0.9485    -4.5773    -0.0349 C.ar    
   9 C9             1.7530    -5.6978    -0.0532 C.ar    
  10 C10            3.1301    -5.5644    -0.0707 C.ar    
  11 C11            3.7097    -4.3080    -0.0699 C.ar    
  12 C12            2.9168    -3.1792    -0.0584 C.ar    
  13 C13           -2.5196    -0.3905     0.0243 C.3     
  14 C14           -3.0142    -0.2370    -1.3909 C.ar    
  15 C15           -3.4948    -1.3400    -2.0820 C.ar    
  16 C16           -3.9492    -1.1954    -3.3845 C.ar    
  17 C17           -3.9223     0.0459    -3.9906 C.ar    
  18 C18           -3.4425     1.1433    -3.3000 C.ar    
  19 C19           -2.9946     1.0029    -1.9992 C.ar    
  20 O20           -3.5198    -2.5600    -1.4838 O.3     
  21 C21           -4.0278    -3.6505    -2.2552 C.3     
  22 H22            0.8165     1.8853     0.0044 H       
  23 H23           -0.8634     1.8624     0.0163 H       
  24 H24            2.0374    -0.5097    -0.0193 H       
  25 H25           -0.1262    -4.6829    -0.0206 H       
  26 H26            1.3070    -6.6814    -0.0536 H       
  27 H27            3.7554    -6.4448    -0.0846 H       
  28 H28            4.7853    -4.2108    -0.0832 H       
  29 H29            3.3703    -2.1990    -0.0631 H       
  30 H30           -3.1203    -1.1398     0.5399 H       
  31 H31           -2.6044     0.5637     0.5443 H       
  32 H32           -4.3235    -2.0525    -3.9246 H       
  33 H33           -4.2760     0.1590    -5.0047 H       
  34 H34           -3.4216     2.1126    -3.7758 H       
  35 H35           -2.6248     1.8626    -1.4602 H       
  36 H36           -5.0589    -3.4436    -2.5418 H       
  37 H37           -3.4198    -3.7760    -3.1512 H       
  38 H38           -3.9921    -4.5636    -1.6611 H       
@<TRIPOS>BOND
   1    1    4 1
   2    1   22 1
   3    1   23 1
   4    2    3 1
   5    2    6 2
   6    2    7 1
   7    3    4 1
   8    3   24 1
   9    4    5 2
  10    5    6 1
  11    5   13 1
  12    7    8 ar
  13    7   12 ar
  14    8    9 ar
  15    8   25 1
  16    9   10 ar
  17    9   26 1
  18   10   11 ar
  19   10   27 1
  20   11   12 ar
  21   11   28 1
  22   12   29 1
  23   13   14 1
  24   13   30 1
  25   13   31 1
  26   14   15 ar
  27   14   19 ar
  28   15   16 ar
  29   15   20 1
  30   16   17 ar
  31   16   32 1
  32   17   18 ar
  33   17   33 1
  34   18   19 ar
  35   18   34 1
  36   19   35 1
  37   20   21 1
  38   21   36 1
  39   21   37 1
  40   21   38 1

#	End of record

