#	Name: ASD01914940
#	Creating user name:	WinNT
#	Creation time:	15. 06. 2019 20:04

#	Modifying user name:	WinNT
#	Modification time:	15. 06. 2019 20:04

#	Program:	/corina/corina34_cracker 3.40 0067  02.08.2006

@<TRIPOS>MOLECULE
ASD01914940
  62   67    0    0    0
SMALL
NO_CHARGES


@<TRIPOS>ATOM
   1 C1             0.0007     1.3367    -0.0248 C.2     
   2 N2             0.0092     0.0644     0.3143 N.2     
   3 C3             1.3156     1.7181    -0.3405 C.2     
   4 C4             2.1164     0.6258    -0.1783 C.2     
   5 N5             1.3247    -0.4080     0.2269 N.pl3   
   6 C6            -1.1944     2.2158    -0.0716 C.ar    
   7 C7            -2.4485     1.7092     0.2621 C.ar    
   8 C8            -3.5565     2.5310     0.2168 C.ar    
   9 C9            -3.4234     3.8553    -0.1595 C.ar    
  10 C10           -2.1806     4.3635    -0.4919 C.ar    
  11 C11           -1.0651     3.5521    -0.4440 C.ar    
  12 C12            3.5784     0.5722    -0.4020 C.ar    
  13 C13            1.7716    -1.7721     0.5198 C.3     
  14 C14            2.0458    -1.9050     1.9956 C.2     
  15 N15            2.4709    -3.0807     2.4989 N.am    
  16 O16            1.8838    -0.9539     2.7305 O.2     
  17 C17            2.6766    -4.2504     1.6362 C.3     
  18 C18            2.0980    -5.4721     2.2988 C.ar    
  19 C19            1.6853    -5.4782     3.6104 C.ar    
  20 C20            1.7567    -4.2638     4.4955 C.3     
  21 C21            2.7533    -3.2413     3.9350 C.3     
  22 C22            4.3476    -0.4070     0.2267 C.ar    
  23 C23            5.7102    -0.4517     0.0142 C.ar    
  24 C24            6.3137     0.4720    -0.8204 C.ar    
  25 C25            5.5563     1.4458    -1.4465 C.ar    
  26 C26            4.1920     1.4972    -1.2469 C.ar    
  27 C27            1.9764    -6.6473     1.5505 C.ar    
  28 N28            1.4750    -7.7315     2.1245 N.ar    
  29 C29            1.0943    -7.7030     3.3945 C.ar    
  30 N30            1.1955    -6.6034     4.1238 N.ar    
  31 O31            2.3664    -6.6770     0.2530 O.3     
  32 C32            0.5412    -8.9327     4.0121 C.ar    
  33 C33            0.4255   -10.1013     3.2614 C.ar    
  34 C34            0.1405    -8.9257     5.3470 C.ar    
  35 C35           -0.3731   -10.0731     5.9166 C.ar    
  36 C36           -0.4904   -11.2286     5.1653 C.ar    
  37 C37           -0.0895   -11.2428     3.8415 C.ar    
  38 H38            1.6352     2.7005    -0.6553 H       
  39 H39           -2.5536     0.6751     0.5555 H       
  40 H40           -4.5291     2.1393     0.4754 H       
  41 H41           -4.2930     4.4948    -0.1943 H       
  42 H42           -2.0822     5.3983    -0.7851 H       
  43 H43           -0.0951     3.9499    -0.7034 H       
  44 H44            0.9946    -2.4792     0.2295 H       
  45 H45            2.6829    -1.9839    -0.0396 H       
  46 H46            2.1813    -4.0873     0.6791 H       
  47 H47            3.7441    -4.3974     1.4722 H       
  48 H48            0.7689    -3.8075     4.5590 H       
  49 H49            2.0769    -4.5651     5.4929 H       
  50 H50            3.7716    -3.6031     4.0775 H       
  51 H51            2.6265    -2.2859     4.4441 H       
  52 H52            3.8777    -1.1284     0.8787 H       
  53 H53            6.3070    -1.2091     0.5006 H       
  54 H54            7.3806     0.4330    -0.9836 H       
  55 H55            6.0333     2.1646    -2.0963 H       
  56 H56            3.6017     2.2576    -1.7364 H       
  57 H57            3.2914    -6.9285     0.1260 H       
  58 H58            0.7379   -10.1135     2.2277 H       
  59 H59            0.2320    -8.0242     5.9346 H       
  60 H60           -0.6835   -10.0689     6.9510 H       
  61 H61           -0.8929   -12.1242     5.6152 H       
  62 H62           -0.1834   -12.1478     3.2596 H       
@<TRIPOS>BOND
   1    1    2 2
   2    1    3 1
   3    1    6 1
   4    2    5 1
   5    3    4 2
   6    3   38 1
   7    4    5 1
   8    4   12 1
   9    5   13 1
  10    6    7 ar
  11    6   11 ar
  12    7    8 ar
  13    7   39 1
  14    8    9 ar
  15    8   40 1
  16    9   10 ar
  17    9   41 1
  18   10   11 ar
  19   10   42 1
  20   11   43 1
  21   12   22 ar
  22   12   26 ar
  23   13   14 1
  24   13   44 1
  25   13   45 1
  26   14   15 am
  27   14   16 2
  28   15   17 1
  29   15   21 1
  30   17   18 1
  31   17   46 1
  32   17   47 1
  33   18   19 ar
  34   18   27 ar
  35   19   20 1
  36   19   30 ar
  37   20   21 1
  38   20   48 1
  39   20   49 1
  40   21   50 1
  41   21   51 1
  42   22   23 ar
  43   22   52 1
  44   23   24 ar
  45   23   53 1
  46   24   25 ar
  47   24   54 1
  48   25   26 ar
  49   25   55 1
  50   26   56 1
  51   27   28 ar
  52   27   31 1
  53   28   29 ar
  54   29   30 ar
  55   29   32 1
  56   31   57 1
  57   32   33 ar
  58   32   34 ar
  59   33   37 ar
  60   33   58 1
  61   34   35 ar
  62   34   59 1
  63   35   36 ar
  64   35   60 1
  65   36   37 ar
  66   36   61 1
  67   37   62 1

#	End of record

