#	Name: ASD05720317
#	Creating user name:	WinNT
#	Creation time:	15. 06. 2019 21:02

#	Modifying user name:	WinNT
#	Modification time:	15. 06. 2019 21:02

#	Program:	/corina/corina34_cracker 3.40 0067  02.08.2006

@<TRIPOS>MOLECULE
ASD05720317
  58   61    0    0    0
SMALL
NO_CHARGES


@<TRIPOS>ATOM
   1 N1            -0.0162     1.3436     0.0094 N.am    
   2 C2            -0.2045     0.1223    -0.5287 C.2     
   3 O3             0.6870    -0.4058    -1.1648 O.2     
   4 N4            -1.3811    -0.5136    -0.3617 N.am    
   5 C5            -1.5858    -1.8410    -0.9466 C.3     
   6 C6             1.2374     1.9544    -0.0667 C.ar    
   7 C7             1.3292     3.3341    -0.2138 C.ar    
   8 C8             2.5643     3.9395    -0.2893 C.ar    
   9 C9             3.7245     3.1664    -0.2178 C.ar    
  10 C10            3.6292     1.7815    -0.0701 C.ar    
  11 C11            2.3913     1.1824     0.0104 C.ar    
  12 C12            6.4328     5.4637    -1.1497 C.ar    
  13 N13            7.4836     5.0314    -0.4727 N.ar    
  14 C14            7.3871     3.9728     0.3271 C.ar    
  15 C15            6.1441     3.3164     0.4426 C.ar    
  16 C16            5.0526     3.8135    -0.2990 C.ar    
  17 N17            5.2448     4.8782    -1.0722 N.ar    
  18 N18            7.5655     2.2445     1.7408 N.2     
  19 N19            8.2571     3.3006     1.1343 N.pl3   
  20 C20            6.3254     2.2444     1.3422 C.2     
  21 O21            6.5627     7.9576    -4.4089 O.3     
  22 C22            5.4979     8.1667    -3.4772 C.3     
  23 C23            5.3095     6.9029    -2.6338 C.3     
  24 N24            6.5767     6.5724    -1.9658 N.3     
  25 C25            7.6470     6.3652    -2.9522 C.3     
  26 C26            7.8120     7.6344    -3.7924 C.3     
  27 C27            9.6715     3.6267     1.3322 C.3     
  28 C28            9.8109     4.6041     2.5010 C.3     
  29 C29           11.2715     5.0413     2.6288 C.3     
  30 C30            8.9317     5.8305     2.2478 C.3     
  31 O31            9.3980     3.9633     3.7096 O.3     
  32 H32           -0.7524     1.7999     0.4461 H       
  33 H33           -2.0923    -0.0922     0.1458 H       
  34 H34           -0.8511    -2.5351    -0.5385 H       
  35 H35           -2.5895    -2.1925    -0.7077 H       
  36 H36           -1.4690    -1.7832    -2.0288 H       
  37 H37            0.4312     3.9316    -0.2694 H       
  38 H38            2.6350     5.0111    -0.4039 H       
  39 H39            4.5251     1.1809    -0.0145 H       
  40 H40            2.3170     0.1115     0.1295 H       
  41 H41            5.5642     1.5422     1.6485 H       
  42 H42            5.7435     9.0055    -2.8261 H       
  43 H43            4.5773     8.3831    -4.0192 H       
  44 H44            4.5376     7.0773    -1.8843 H       
  45 H45            5.0115     6.0761    -3.2786 H       
  46 H46            8.5814     6.1471    -2.4350 H       
  47 H47            7.3864     5.5298    -3.6020 H       
  48 H48            8.5650     7.4659    -4.5622 H       
  49 H49            8.1248     8.4578    -3.1503 H       
  50 H50           10.2271     2.7152     1.5526 H       
  51 H51           10.0690     4.0844     0.4263 H       
  52 H52           11.5865     5.5301     1.7068 H       
  53 H53           11.3708     5.7377     3.4614 H       
  54 H54           11.8979     4.1677     2.8091 H       
  55 H55            7.8912     5.5190     2.1568 H       
  56 H56            9.0310     6.5268     3.0805 H       
  57 H57            9.2467     6.3193     1.3259 H       
  58 H58            9.9130     3.1760     3.9332 H       
@<TRIPOS>BOND
   1    1    2 am
   2    1    6 1
   3    1   32 1
   4    2    3 2
   5    2    4 am
   6    4    5 1
   7    4   33 1
   8    5   34 1
   9    5   35 1
  10    5   36 1
  11    6    7 ar
  12    6   11 ar
  13    7    8 ar
  14    7   37 1
  15    8    9 ar
  16    8   38 1
  17    9   10 ar
  18    9   16 1
  19   10   11 ar
  20   10   39 1
  21   11   40 1
  22   12   13 ar
  23   12   17 ar
  24   12   24 1
  25   13   14 ar
  26   14   15 ar
  27   14   19 1
  28   15   16 ar
  29   15   20 1
  30   16   17 ar
  31   18   19 1
  32   18   20 2
  33   19   27 1
  34   20   41 1
  35   21   22 1
  36   21   26 1
  37   22   23 1
  38   22   42 1
  39   22   43 1
  40   23   24 1
  41   23   44 1
  42   23   45 1
  43   24   25 1
  44   25   26 1
  45   25   46 1
  46   25   47 1
  47   26   48 1
  48   26   49 1
  49   27   28 1
  50   27   50 1
  51   27   51 1
  52   28   29 1
  53   28   30 1
  54   28   31 1
  55   29   52 1
  56   29   53 1
  57   29   54 1
  58   30   55 1
  59   30   56 1
  60   30   57 1
  61   31   58 1

#	End of record

