#	Name: ASD00170361
#	Creating user name:	WinNT
#	Creation time:	15. 06. 2019 18:32

#	Modifying user name:	WinNT
#	Modification time:	15. 06. 2019 18:32

#	Program:	/corina/corina34_cracker 3.40 0067  02.08.2006

@<TRIPOS>MOLECULE
ASD00170361
  52   53    0    0    0
SMALL
NO_CHARGES


@<TRIPOS>ATOM
   1 C1             3.3404     1.4402    -3.6783 C.ar    
   2 C2             3.3724     0.0554    -3.6854 C.ar    
   3 C3             3.5044    -0.6458    -2.4982 C.ar    
   4 C4             3.6047     0.0319    -1.3014 C.ar    
   5 C5             3.5731     1.4275    -1.2880 C.ar    
   6 C6             3.4398     2.1288    -2.4877 C.ar    
   7 Cl7            3.2460    -0.8047    -5.1880 Cl      
   8 C8             5.0045     4.3551    -0.1111 C.2     
   9 C9             3.7613     3.6206    -0.0056 C.2     
  10 C10            3.6797     2.1601    -0.0078 C.2     
  11 O11            3.6997     1.5476     1.0444 O.2     
  12 C12            4.8385     5.6682    -0.0825 C.2     
  13 S13            3.1403     6.0819     0.0696 S.3     
  14 C14            2.6651     4.4453     0.0975 C.2     
  15 N15            1.3608     4.0079     0.2082 N.pl3   
  16 C16            5.9582     6.6730    -0.1685 C.3     
  17 C17            6.2128     7.0287    -1.6346 C.3     
  18 C18            6.3520     3.6917    -0.2346 C.3     
  19 C19            7.3326     8.0335    -1.7207 C.ar    
  20 C20            8.6407     7.6023    -1.8386 C.ar    
  21 C21            9.6678     8.5240    -1.9174 C.ar    
  22 C22            9.3869     9.8770    -1.8788 C.ar    
  23 C23            8.0788    10.3082    -1.7618 C.ar    
  24 C24            7.0512     9.3865    -1.6873 C.ar    
  25 H25            3.2418     1.9817    -4.6075 H       
  26 H26            3.5284    -1.7255    -2.5098 H       
  27 H27            3.7072    -0.5160    -0.3763 H       
  28 H28            3.4151     3.2085    -2.4835 H       
  29 H29            0.6457     4.6469     0.3544 H       
  30 H30            1.1591     3.0616     0.1397 H       
  31 H31            5.6819     7.5729     0.3810 H       
  32 H32            6.8632     6.2465     0.2643 H       
  33 H33            6.4891     6.1288    -2.1841 H       
  34 H34            5.3079     7.4552    -2.0675 H       
  35 H35            6.5864     3.5386    -1.2880 H       
  36 H36            7.1128     4.3275     0.2182 H       
  37 H37            6.3314     2.7293     0.2767 H       
  38 H38            8.8602     6.5453    -1.8687 H       
  39 H39           10.6899     8.1871    -2.0089 H       
  40 H40           10.1895    10.5971    -1.9397 H       
  41 H41            7.8593    11.3653    -1.7313 H       
  42 H42            6.0289     9.7235    -1.5997 H       
  43 C43           18.3880    19.4911     6.9708 C.3     
  44 C44           18.4085    17.9843     6.9625 C.2     
  45 C45           17.2856    17.3155     6.9696 C.1     
  46 C46           16.1627    16.6466     6.9767 C.2     
  47 H47           19.4106    19.8684     6.9630 H       
  48 H48           17.8609    19.8522     6.0877 H       
  49 H49           17.8779    19.8427     7.8676 H       
  50 H50           19.3510    17.4571     6.9506 H       
  51 H51           15.7077    16.3653     7.9149 H       
  52 H52           15.6899    16.3753     6.0444 H       
@<TRIPOS>BOND
   1    1    2 ar
   2    1    6 ar
   3    1   25 1
   4    2    3 ar
   5    2    7 1
   6    3    4 ar
   7    3   26 1
   8    4    5 ar
   9    4   27 1
  10    5    6 ar
  11    5   10 1
  12    6   28 1
  13    8   18 1
  14    8    9 1
  15    8   12 2
  16    9   10 1
  17    9   14 2
  18   10   11 2
  19   12   13 1
  20   12   16 1
  21   13   14 1
  22   14   15 1
  23   15   29 1
  24   15   30 1
  25   16   17 1
  26   16   31 1
  27   16   32 1
  28   17   19 1
  29   17   33 1
  30   17   34 1
  31   18   35 1
  32   18   36 1
  33   18   37 1
  34   19   20 ar
  35   19   24 ar
  36   20   21 ar
  37   20   38 1
  38   21   22 ar
  39   21   39 1
  40   22   23 ar
  41   22   40 1
  42   23   24 ar
  43   23   41 1
  44   24   42 1
  45   43   44 1
  46   43   47 1
  47   43   48 1
  48   43   49 1
  49   44   45 2
  50   44   50 1
  51   45   46 2
  52   46   51 1
  53   46   52 1

#	End of record

