#	Name: ASD01885866
#	Creating user name:	WinNT
#	Creation time:	15. 06. 2019 19:50

#	Modifying user name:	WinNT
#	Modification time:	15. 06. 2019 19:50

#	Program:	/corina/corina34_cracker 3.40 0067  02.08.2006

@<TRIPOS>MOLECULE
ASD01885866
  44   47    0    0    0
SMALL
NO_CHARGES


@<TRIPOS>ATOM
   1 C1            -0.0170     1.4041     0.0098 C.ar    
   2 C2             1.2136     2.1093     0.0018 C.ar    
   3 C3             1.1948     3.5273     0.0097 C.ar    
   4 C4            -0.0401     4.1605     0.0249 C.ar    
   5 C5            -1.2094     3.3911     0.0319 C.ar    
   6 N6            -1.1705     2.0720     0.0299 N.ar    
   7 C7             0.0021    -0.0041     0.0020 C.ar    
   8 C8             1.1916    -0.6633    -0.0129 C.ar    
   9 C9             2.4005     0.0342    -0.0208 C.ar    
  10 C10            2.4201     1.3992    -0.0132 C.ar    
  11 C11            1.2046    -2.1702    -0.0206 C.3     
  12 C12            2.4532     4.3078     0.0024 C.ar    
  13 C13           -2.5244     4.0752     0.0486 C.2     
  14 N14           -3.6609     3.3507     0.0556 N.am    
  15 O15           -2.5777     5.2890     0.0561 O.2     
  16 C16            2.6306     5.3409    -0.9182 C.ar    
  17 C17            3.8042     6.0653    -0.9206 C.ar    
  18 C18            4.8066     5.7679    -0.0109 C.ar    
  19 C19            4.6354     4.7422     0.9053 C.ar    
  20 C20            3.4629     4.0162     0.9199 C.ar    
  21 F21            5.9547     6.4800    -0.0175 F       
  22 N22            1.5532    -2.6487    -1.3607 N.am    
  23 C23            2.8158    -2.8774    -1.7426 C.2     
  24 C24            2.8224    -3.3604    -3.1766 C.3     
  25 C25            1.3289    -3.3713    -3.5612 C.3     
  26 C26            0.6350    -2.8987    -2.3023 C.2     
  27 O27            3.7982    -2.7218    -1.0495 O.2     
  28 O28           -0.5622    -2.7613    -2.1697 O.2     
  29 F29            3.5654    -0.6498    -0.0357 F       
  30 H30           -0.0984     5.2389     0.0317 H       
  31 H31           -0.9247    -0.5586     0.0083 H       
  32 H32            3.3614     1.9286    -0.0194 H       
  33 H33            1.9414    -2.5309     0.6971 H       
  34 H34            0.2178    -2.5435     0.2531 H       
  35 H35           -3.6183     2.3816     0.0496 H       
  36 H36           -4.5214     3.7983     0.0665 H       
  37 H37            1.8503     5.5729    -1.6279 H       
  38 H38            3.9425     6.8652    -1.6329 H       
  39 H39            5.4197     4.5138     1.6118 H       
  40 H40            3.3302     3.2173     1.6345 H       
  41 H41            3.3770    -2.6695    -3.8115 H       
  42 H42            3.2425    -4.3641    -3.2414 H       
  43 H43            1.1406    -2.6858    -4.3875 H       
  44 H44            1.0061    -4.3803    -3.8174 H       
@<TRIPOS>BOND
   1    1    7 ar
   2    1    2 ar
   3    1    6 ar
   4    2    3 ar
   5    2   10 ar
   6    3    4 ar
   7    3   12 1
   8    4    5 ar
   9    4   30 1
  10    5    6 ar
  11    5   13 1
  12    7    8 ar
  13    7   31 1
  14    8   11 1
  15    8    9 ar
  16    9   29 1
  17    9   10 ar
  18   10   32 1
  19   11   22 1
  20   11   33 1
  21   11   34 1
  22   12   16 ar
  23   12   20 ar
  24   13   14 am
  25   13   15 2
  26   14   35 1
  27   14   36 1
  28   16   17 ar
  29   16   37 1
  30   17   18 ar
  31   17   38 1
  32   18   19 ar
  33   18   21 1
  34   19   20 ar
  35   19   39 1
  36   20   40 1
  37   22   23 am
  38   22   26 am
  39   23   24 1
  40   23   27 2
  41   24   25 1
  42   24   41 1
  43   24   42 1
  44   25   26 1
  45   25   43 1
  46   25   44 1
  47   26   28 2

#	End of record

