#	Name: ASD03240821
#	Creating user name:	WinNT
#	Creation time:	15. 06. 2019 20:35

#	Modifying user name:	WinNT
#	Modification time:	15. 06. 2019 20:35

#	Program:	/corina/corina34_cracker 3.40 0067  02.08.2006

@<TRIPOS>MOLECULE
ASD03240821
  58   63    0    0    0
SMALL
NO_CHARGES


@<TRIPOS>ATOM
   1 N1            -0.0165     1.3644     0.0095 N.pl3   
   2 C2             0.0021    -0.0041     0.0020 C.2     
   3 N3             1.1520    -0.7012    -0.0123 N.2     
   4 C4             2.3201    -0.1125    -0.0199 C.2     
   5 C5             2.3794     1.3476    -0.0126 C.ar    
   6 C6             3.5983     2.0343    -0.0192 C.ar    
   7 C7             3.5626     3.4247    -0.0105 C.ar    
   8 C8             2.3154     4.0793     0.0043 C.ar    
   9 N9             1.1813     3.3950     0.0107 N.ar    
  10 C10            1.1694     2.0733     0.0020 C.ar    
  11 C11           -1.3218    -0.4220     0.0124 C.2     
  12 C12           -2.1233     0.7125     0.0262 C.2     
  13 N13           -1.3548     1.7753     0.0302 N.2     
  14 C14            4.8214     4.2080    -0.0164 C.ar    
  15 C15            5.8326     3.9141     0.8970 C.ar    
  16 C16            7.0021     4.6467     0.8868 C.ar    
  17 C17            7.1720     5.6708    -0.0274 C.ar    
  18 C18            6.1720     5.9669    -0.9361 C.ar    
  19 C19            5.0005     5.2374    -0.9391 C.ar    
  20 C20            2.2713     5.5594     0.0135 C.ar    
  21 C21            1.2566     6.2341    -0.6655 C.ar    
  22 C22            1.2206     7.6133    -0.6528 C.ar    
  23 C23            2.1885     8.3271     0.0312 C.ar    
  24 C24            3.1977     7.6638     0.7062 C.ar    
  25 C25            3.2409     6.2846     0.7061 C.ar    
  26 C26            2.1436     9.8334     0.0406 C.3     
  27 N27            1.3450    10.2923     1.1849 N.3     
  28 C28            1.4720    11.7456     1.3670 C.3     
  29 C29            0.5795    12.1888     2.5294 C.3     
  30 O30            0.9423    11.4619     3.7064 O.3     
  31 C31            0.8298    10.0432     3.5645 C.3     
  32 C32            1.7248     9.5783     2.4126 C.3     
  33 C33           -3.6302     0.7208     0.0406 C.3     
  34 H34            3.2279    -0.6974    -0.0310 H       
  35 H35            4.5376     1.5015    -0.0303 H       
  36 H36           -1.6666    -1.4455     0.0097 H       
  37 H37            5.7008     3.1150     1.6114 H       
  38 H38            7.7861     4.4201     1.5942 H       
  39 H39            8.0888     6.2417    -0.0314 H       
  40 H40            6.3100     6.7679    -1.6474 H       
  41 H41            4.2223     5.4666    -1.6520 H       
  42 H42            0.5009     5.6780    -1.2004 H       
  43 H43            0.4355     8.1368    -1.1781 H       
  44 H44            3.9508     8.2265     1.2377 H       
  45 H45            4.0266     5.7678     1.2371 H       
  46 H46            3.1568    10.2266     0.1236 H       
  47 H47            1.6905    10.1892    -0.8848 H       
  48 H48            2.5095    11.9953     1.5890 H       
  49 H49            1.1615    12.2552     0.4549 H       
  50 H50            0.7138    13.2561     2.7049 H       
  51 H51           -0.4635    11.9879     2.2845 H       
  52 H52            1.1450     9.5589     4.4887 H       
  53 H53           -0.2059     9.7800     3.3498 H       
  54 H54            1.5987     8.5059     2.2638 H       
  55 H55            2.7663     9.7934     2.6514 H       
  56 H56           -3.9837     0.7172     1.0716 H       
  57 H57           -3.9935     1.6155    -0.4650 H       
  58 H58           -4.0033    -0.1644    -0.4745 H       
@<TRIPOS>BOND
   1    1    2 1
   2    1   10 1
   3    1   13 1
   4    2    3 1
   5    2   11 2
   6    3    4 2
   7    4    5 1
   8    4   34 1
   9    5    6 ar
  10    5   10 ar
  11    6    7 ar
  12    6   35 1
  13    7    8 ar
  14    7   14 1
  15    8    9 ar
  16    8   20 1
  17    9   10 ar
  18   11   12 1
  19   11   36 1
  20   12   13 2
  21   12   33 1
  22   14   15 ar
  23   14   19 ar
  24   15   16 ar
  25   15   37 1
  26   16   17 ar
  27   16   38 1
  28   17   18 ar
  29   17   39 1
  30   18   19 ar
  31   18   40 1
  32   19   41 1
  33   20   21 ar
  34   20   25 ar
  35   21   22 ar
  36   21   42 1
  37   22   23 ar
  38   22   43 1
  39   23   24 ar
  40   23   26 1
  41   24   25 ar
  42   24   44 1
  43   25   45 1
  44   26   27 1
  45   26   46 1
  46   26   47 1
  47   27   28 1
  48   27   32 1
  49   28   29 1
  50   28   48 1
  51   28   49 1
  52   29   30 1
  53   29   50 1
  54   29   51 1
  55   30   31 1
  56   31   32 1
  57   31   52 1
  58   31   53 1
  59   32   54 1
  60   32   55 1
  61   33   56 1
  62   33   57 1
  63   33   58 1

#	End of record

