#	Name: ASD07931946
#	Creating user name:	WinNT
#	Creation time:	15. 06. 2019 21:13

#	Modifying user name:	WinNT
#	Modification time:	15. 06. 2019 21:13

#	Program:	/corina/corina34_cracker 3.40 0067  02.08.2006

@<TRIPOS>MOLECULE
ASD07931946
  30   30    0    0    0
SMALL
NO_CHARGES


@<TRIPOS>ATOM
   1 C1            -0.0184     1.5028     0.0103 C.2     
   2 C2             0.0251     0.0012    -0.1094 C.3     
   3 O3            -1.2970    -0.4984    -0.3201 O.3     
   4 C4            -1.2107    -2.3083    -1.9193 C.3     
   5 C5            -1.3678    -1.9199    -0.4477 C.3     
   6 C6            -2.7015    -2.4041     0.0600 C.2     
   7 C7            -2.7543    -3.2484     1.0602 C.2     
   8 F8             0.0275    -1.8588    -2.3906 F       
   9 F9            -1.2800    -3.7000    -2.0442 F       
  10 F10           -2.2360    -1.7212    -2.6685 F       
  11 C11            1.2275     2.2616     0.2329 C.ar    
  12 C12            2.2216     2.2848    -0.7507 C.ar    
  13 C13            3.3853     2.9984    -0.5342 C.ar    
  14 C14            3.5667     3.6872     0.6513 C.ar    
  15 C15            2.5866     3.6677     1.6279 C.ar    
  16 C16            1.4174     2.9647     1.4239 C.ar    
  17 F17            2.0451     1.6114    -1.9085 F       
  18 N18           -1.1472     2.1270    -0.0874 N.2     
  19 O19           -1.1756     3.5427    -0.0892 O.3     
  20 H20            0.6576    -0.2780    -0.9521 H       
  21 H21            0.4326    -0.4248     0.8075 H       
  22 H22           -0.5690    -2.3773     0.1360 H       
  23 H23           -3.6138    -2.0550    -0.4008 H       
  24 H24           -3.7102    -3.5953     1.4241 H       
  25 H25           -1.8421    -3.5974     1.5210 H       
  26 H26            4.1545     3.0180    -1.2921 H       
  27 H27            4.4781     4.2427     0.8158 H       
  28 H28            2.7357     4.2081     2.5510 H       
  29 H29            0.6521     2.9548     2.1859 H       
  30 H30           -2.0634     3.9182    -0.1661 H       
@<TRIPOS>BOND
   1    1    2 1
   2    1   11 1
   3    1   18 2
   4    2    3 1
   5    2   20 1
   6    2   21 1
   7    3    5 1
   8    4    5 1
   9    4    8 1
  10    4    9 1
  11    4   10 1
  12    5    6 1
  13    5   22 1
  14    6    7 2
  15    6   23 1
  16    7   24 1
  17    7   25 1
  18   11   12 ar
  19   11   16 ar
  20   12   13 ar
  21   12   17 1
  22   13   14 ar
  23   13   26 1
  24   14   15 ar
  25   14   27 1
  26   15   16 ar
  27   15   28 1
  28   16   29 1
  29   18   19 1
  30   19   30 1

#	End of record

