#	Name: ASD01209043
#	Creating user name:	WinNT
#	Creation time:	15. 06. 2019 19:10

#	Modifying user name:	WinNT
#	Modification time:	15. 06. 2019 19:10

#	Program:	/corina/corina34_cracker 3.40 0067  02.08.2006

@<TRIPOS>MOLECULE
ASD01209043
  56   60    0    0    0
SMALL
NO_CHARGES


@<TRIPOS>ATOM
   1 C1            -2.2495     1.6188    -0.8804 C.3     
   2 C2            -2.1896     0.0991    -1.0628 C.3     
   3 C3            -1.4332    -0.2194    -2.3562 C.3     
   4 C4            -2.1262     0.4797    -3.5287 C.3     
   5 C5            -2.9110     2.2469    -2.1099 C.3     
   6 C6            -1.4596    -0.5305     0.1253 C.3     
   7 C7            -1.5305    -2.0551     0.0176 C.3     
   8 C8            -0.7065    -2.6752     1.1166 C.2     
   9 N9             0.6325    -2.5222     1.1230 N.am    
  10 C10            1.4025    -3.1748     2.0802 C.2     
  11 N11           -2.9236    -2.4896     0.1473 N.pl3   
  12 N12            2.6940    -3.1028     2.1837 N.2     
  13 C13            3.2566    -3.7932     3.1579 C.2     
  14 C14            2.4217    -4.4918     3.9304 C.2     
  15 S15            0.7792    -4.2249     3.3498 S.3     
  16 C16           -3.6286    -3.1826    -0.7982 C.ar    
  17 C17           -4.9159    -3.3916    -0.2671 C.ar    
  18 C18           -4.9226    -2.7754     1.0548 C.2     
  19 N19           -3.7411    -2.2667     1.2595 N.2     
  20 O20           -1.2484    -3.3119     1.9952 O.2     
  21 O21           -2.1759     1.8862    -3.2811 O.3     
  22 F22            2.7745    -5.2657     4.9802 F       
  23 N23           -3.3280    -3.6415    -2.0082 N.ar    
  24 C24           -4.2149    -4.2967    -2.7356 C.ar    
  25 C25           -5.5081    -4.5355    -2.2648 C.ar    
  26 C26           -5.8690    -4.0859    -1.0252 C.ar    
  27 C27           -7.2403    -5.4599     1.0296 C.3     
  28 C28           -8.4868    -5.9941     1.7380 C.3     
  29 C29           -7.6379    -6.9292     0.8744 C.3     
  30 N30           -3.8542    -4.7574    -3.9949 N.pl3   
  31 S31           -7.4911    -4.3691    -0.3980 S.o2    
  32 O32           -7.9317    -3.0864     0.0260 O.2     
  33 O33           -8.1555    -5.0629    -1.4450 O.2     
  34 H34           -2.8337     1.8562     0.0087 H       
  35 H35           -1.2392     2.0125    -0.7693 H       
  36 H36           -3.2016    -0.3009    -1.1242 H       
  37 H37           -0.4064     0.1372    -2.2749 H       
  38 H38           -1.4337    -1.2966    -2.5225 H       
  39 H39           -1.5677     0.2915    -4.4456 H       
  40 H40           -3.1399     0.0932    -3.6346 H       
  41 H41           -3.9349     1.8835    -2.1972 H       
  42 H42           -2.9178     3.3317    -2.0047 H       
  43 H43           -0.4166    -0.2141     0.1201 H       
  44 H44           -1.9320    -0.2095     1.0536 H       
  45 H45           -1.1405    -2.3695    -0.9504 H       
  46 H46            1.0593    -1.9570     0.4603 H       
  47 H47            4.3244    -3.7932     3.3196 H       
  48 H48           -5.7555    -2.7498     1.7419 H       
  49 H49           -6.2181    -5.0730    -2.8759 H       
  50 H50           -6.3687    -5.2363     1.6447 H       
  51 H51           -8.4351    -6.1223     2.8192 H       
  52 H52           -9.4575    -5.6900     1.3463 H       
  53 H53           -8.0501    -7.2403    -0.0855 H       
  54 H54           -7.0278    -7.6726     1.3874 H       
  55 H55           -2.9589    -4.5969    -4.3320 H       
  56 H56           -4.4975    -5.2397    -4.5376 H       
@<TRIPOS>BOND
   1    1    2 1
   2    1    5 1
   3    1   34 1
   4    1   35 1
   5    2    3 1
   6    2    6 1
   7    2   36 1
   8    3    4 1
   9    3   37 1
  10    3   38 1
  11    4   21 1
  12    4   39 1
  13    4   40 1
  14    5   21 1
  15    5   41 1
  16    5   42 1
  17    6    7 1
  18    6   43 1
  19    6   44 1
  20    7    8 1
  21    7   11 1
  22    7   45 1
  23    8    9 am
  24    8   20 2
  25    9   10 1
  26    9   46 1
  27   10   12 2
  28   10   15 1
  29   11   16 1
  30   11   19 1
  31   12   13 1
  32   13   14 2
  33   13   47 1
  34   14   15 1
  35   14   22 1
  36   16   17 ar
  37   16   23 ar
  38   17   18 1
  39   17   26 ar
  40   18   19 2
  41   18   48 1
  42   23   24 ar
  43   24   25 ar
  44   24   30 1
  45   25   26 ar
  46   25   49 1
  47   26   31 1
  48   27   28 1
  49   27   31 1
  50   27   29 1
  51   27   50 1
  52   28   29 1
  53   28   51 1
  54   28   52 1
  55   29   53 1
  56   29   54 1
  57   30   55 1
  58   30   56 1
  59   31   32 2
  60   31   33 2

#	End of record

