#	Name: ASD01883113
#	Creating user name:	WinNT
#	Creation time:	15. 06. 2019 19:45

#	Modifying user name:	WinNT
#	Modification time:	15. 06. 2019 19:45

#	Program:	/corina/corina34_cracker 3.40 0067  02.08.2006

@<TRIPOS>MOLECULE
ASD01883113
  48   50    0    0    0
SMALL
NO_CHARGES


@<TRIPOS>ATOM
   1 N1            -0.0675     1.2359     1.3225 N.am    
   2 C2            -0.0323    -0.0387     0.8918 C.2     
   3 C3            -1.2413    -0.7418     0.6659 C.2     
   4 C4            -2.4602    -0.0812     0.9006 C.2     
   5 C5            -2.4304     1.2534     1.3509 C.2     
   6 C6            -1.2449     1.8715     1.5538 C.2     
   7 O7             1.0387    -0.5874     0.6959 O.2     
   8 C8            -1.2224    -2.0983     0.2072 C.1     
   9 N9            -1.2075    -3.1743    -0.1567 N.1     
  10 C10            1.1906     1.9505     1.5524 C.3     
  11 C11            1.6162     2.6607     0.2658 C.3     
  12 C12            2.9301     3.4069     0.5058 C.3     
  13 C13            3.3557     4.1172    -0.7808 C.3     
  14 C14           -3.7470    -0.7728     0.6787 C.ar    
  15 C15           -4.5983    -1.0307     1.7560 C.ar    
  16 C16           -5.7969    -1.6758     1.5452 C.ar    
  17 C17           -6.1597    -2.0704     0.2628 C.ar    
  18 C18           -5.3153    -1.8160    -0.8114 C.ar    
  19 C19           -4.1180    -1.1655    -0.6096 C.ar    
  20 O20           -7.3417    -2.7063     0.0591 O.3     
  21 C21           -8.4762    -1.9623     0.0742 C.ar    
  22 C22           -9.7115    -2.5897    -0.0223 C.ar    
  23 C23          -10.8613    -1.8192    -0.0052 C.ar    
  24 C24          -10.7336    -0.4419     0.1084 C.ar    
  25 C25           -9.4729     0.1144     0.2002 C.ar    
  26 N26           -8.3953    -0.6466     0.1862 N.ar    
  27 C27           -9.7989    -4.0892    -0.1445 C.3     
  28 F28          -11.1418    -4.4730    -0.2257 F       
  29 F29           -9.1250    -4.5031    -1.2985 F       
  30 F30           -9.2111    -4.6835     0.9773 F       
  31 H31           -3.3539     1.7814     1.5377 H       
  32 H32           -1.2345     2.8947     1.8992 H       
  33 H33            1.0512     2.6862     2.3444 H       
  34 H34            1.9630     1.2404     1.8479 H       
  35 H35            1.7556     1.9250    -0.5263 H       
  36 H36            0.8438     3.3708    -0.0298 H       
  37 H37            2.7907     4.1426     1.2979 H       
  38 H38            3.7025     2.6968     0.8013 H       
  39 H39            2.5833     4.8272    -1.0764 H       
  40 H40            4.2917     4.6488    -0.6098 H       
  41 H41            3.4951     3.3814    -1.5729 H       
  42 H42           -4.3168    -0.7251     2.7528 H       
  43 H43           -6.4556    -1.8755     2.3774 H       
  44 H44           -5.6005    -2.1245    -1.8063 H       
  45 H45           -3.4626    -0.9679    -1.4449 H       
  46 H46          -11.8356    -2.2793    -0.0789 H       
  47 H47          -11.6106     0.1881     0.1244 H       
  48 H48           -9.3679     1.1857     0.2884 H       
@<TRIPOS>BOND
   1    1    2 am
   2    1   10 1
   3    1    6 1
   4    2    3 1
   5    2    7 2
   6    3    4 2
   7    3    8 1
   8    4    5 1
   9    4   14 1
  10    5    6 2
  11    5   31 1
  12    6   32 1
  13    8    9 3
  14   10   11 1
  15   10   33 1
  16   10   34 1
  17   11   12 1
  18   11   35 1
  19   11   36 1
  20   12   13 1
  21   12   37 1
  22   12   38 1
  23   13   39 1
  24   13   40 1
  25   13   41 1
  26   14   15 ar
  27   14   19 ar
  28   15   16 ar
  29   15   42 1
  30   16   17 ar
  31   16   43 1
  32   17   18 ar
  33   17   20 1
  34   18   19 ar
  35   18   44 1
  36   19   45 1
  37   20   21 1
  38   21   22 ar
  39   21   26 ar
  40   22   23 ar
  41   22   27 1
  42   23   24 ar
  43   23   46 1
  44   24   25 ar
  45   24   47 1
  46   25   26 ar
  47   25   48 1
  48   27   28 1
  49   27   29 1
  50   27   30 1

#	End of record

