#	Name: ASD01200227
#	Creating user name:	WinNT
#	Creation time:	15. 06. 2019 19:08

#	Modifying user name:	WinNT
#	Modification time:	15. 06. 2019 19:08

#	Program:	/corina/corina34_cracker 3.40 0067  02.08.2006

@<TRIPOS>MOLECULE
ASD01200227
  42   43    0    0    0
SMALL
NO_CHARGES


@<TRIPOS>ATOM
   1 C1             0.4372     1.1306    -0.1103 C.ar    
   2 C2             0.2895    -0.2442    -0.0792 C.ar    
   3 C3            -0.9744    -0.8028    -0.0378 C.ar    
   4 C4            -2.0910     0.0118    -0.0276 C.ar    
   5 C5            -1.9451     1.3862    -0.0586 C.ar    
   6 C6            -0.6813     1.9469    -0.0942 C.ar    
   7 C7            -1.1349    -2.3009    -0.0044 C.3     
   8 C8            -1.8762    -2.7061     1.2712 C.3     
   9 C9            -1.9240    -2.7485    -1.2077 C.2     
  10 N10           -2.1017    -4.0631    -1.4461 N.am    
  11 O11           -2.3991    -1.9261    -1.9613 O.2     
  12 C12           -1.0112    -2.3778     2.4898 C.3     
  13 C13           -2.7165    -4.4660    -2.5758 C.2     
  14 N14           -2.8942    -5.7806    -2.8142 N.am    
  15 C15           -1.7981    -2.6508     3.7837 C.3     
  16 C16           -1.0119    -3.7285     4.5585 C.3     
  17 C17            0.4375    -3.5956     4.0290 C.3     
  18 C18            0.2257    -3.2991     2.5236 C.3     
  19 C19           -3.5625    -6.2185    -4.0422 C.3     
  20 Cl20           2.0241     1.8326    -0.1622 Cl      
  21 Cl21          -0.4976     3.6727    -0.1333 Cl      
  22 S22           -3.2718    -3.3080    -3.7079 S.2     
  23 H23            1.1615    -0.8813    -0.0875 H       
  24 H24           -3.0779    -0.4256     0.0044 H       
  25 H25           -2.8180     2.0222    -0.0510 H       
  26 H26           -0.1520    -2.7720    -0.0187 H       
  27 H27           -2.8163    -2.1582     1.3347 H       
  28 H28           -2.0803    -3.7766     1.2483 H       
  29 H29           -1.7870    -4.7192    -0.8047 H       
  30 H30           -0.6993    -1.3340     2.4557 H       
  31 H31           -2.5795    -6.4367    -2.1728 H       
  32 H32           -1.8674    -1.7397     4.3778 H       
  33 H33           -2.7962    -3.0172     3.5434 H       
  34 H34           -1.0465    -3.5297     5.6296 H       
  35 H35           -1.4082    -4.7203     4.3406 H       
  36 H36            0.9526    -2.7681     4.5169 H       
  37 H37            0.9858    -4.5277     4.1657 H       
  38 H38            0.0293    -4.2216     1.9771 H       
  39 H39            1.0943    -2.7870     2.1097 H       
  40 H40           -4.5711    -5.8065    -4.0736 H       
  41 H41           -2.9996    -5.8677    -4.9071 H       
  42 H42           -3.6140    -7.3072    -4.0593 H       
@<TRIPOS>BOND
   1    1    2 ar
   2    1   20 1
   3    1    6 ar
   4    2    3 ar
   5    2   23 1
   6    3    4 ar
   7    3    7 1
   8    4    5 ar
   9    4   24 1
  10    5    6 ar
  11    5   25 1
  12    6   21 1
  13    7    8 1
  14    7    9 1
  15    7   26 1
  16    8   12 1
  17    8   27 1
  18    8   28 1
  19    9   10 am
  20    9   11 2
  21   10   13 am
  22   10   29 1
  23   12   15 1
  24   12   18 1
  25   12   30 1
  26   13   14 am
  27   13   22 2
  28   14   19 1
  29   14   31 1
  30   15   16 1
  31   15   32 1
  32   15   33 1
  33   16   17 1
  34   16   34 1
  35   16   35 1
  36   17   18 1
  37   17   36 1
  38   17   37 1
  39   18   38 1
  40   18   39 1
  41   19   40 1
  42   19   41 1
  43   19   42 1

#	End of record

