#	Name: ASD09116022
#	Creating user name:	WinNT
#	Creation time:	15. 06. 2019 21:20

#	Modifying user name:	WinNT
#	Modification time:	15. 06. 2019 21:20

#	Program:	/corina/corina34_cracker 3.40 0067  02.08.2006

@<TRIPOS>MOLECULE
ASD09116022
  69   75    0    0    0
SMALL
NO_CHARGES


@<TRIPOS>ATOM
   1 C1             5.4434    -1.3005     1.1497 C.ar    
   2 C2             4.3667    -2.1555     0.9126 C.ar    
   3 C3             4.4941    -3.4872     1.2186 C.ar    
   4 N4             5.6515    -3.9046     1.7324 N.ar    
   5 N5             6.6398    -3.1140     1.9484 N.ar    
   6 C6             6.5970    -1.8143     1.6752 C.ar    
   7 N7             3.4416    -4.3794     0.9988 N.pl3   
   8 N8             2.1781    -4.0750     0.4673 N.2     
   9 C9             1.4981    -5.1958     0.4306 C.2     
  10 N10            2.2622    -6.1852     0.9083 N.2     
  11 C11            3.4403    -5.7093     1.2505 C.2     
  12 N12            0.1891    -5.3343    -0.0311 N.pl3   
  13 C13           -0.3894    -6.6064    -0.1254 C.ar    
  14 C14           -1.7620    -6.7642    -0.0043 C.ar    
  15 C15            0.4066    -7.7289    -0.3478 C.ar    
  16 C16           -0.2073    -8.9652    -0.4344 C.ar    
  17 C17           -1.5887    -9.0472    -0.2977 C.ar    
  18 N18           -2.3141    -7.9594    -0.0920 N.ar    
  19 N19            4.4883    -6.4374     1.7809 N.pl3   
  20 N20           -2.2167   -10.2875    -0.3838 N.3     
  21 C21           -1.6556   -11.2309     0.5933 C.3     
  22 C22           -3.6699   -10.1553    -0.2093 C.3     
  23 C23           -4.3293   -11.5246    -0.3895 C.3     
  24 N24           -3.7682   -12.4680     0.5877 N.3     
  25 C25           -2.3150   -12.6003     0.4132 C.3     
  26 C26           -4.4305   -13.7761     0.4969 C.3     
  27 C27            5.1709     0.1337     0.7695 C.3     
  28 C28            4.7897     0.1500    -0.7210 C.3     
  29 C29            3.6104    -0.7872    -0.9811 C.3     
  30 C30            3.1619    -1.4628     0.3264 C.3     
  31 C31            3.9344     0.5927     1.5615 C.3     
  32 C32            2.7549    -0.3441     1.3012 C.3     
  33 Cl33           7.9650    -0.7927     1.9889 Cl      
  34 N34           -5.7778   -11.4028    -0.1771 N.3     
  35 C35           -3.6641   -14.7955     1.3419 C.3     
  36 C36           -4.2630   -16.1973     1.4732 C.3     
  37 C37           -3.0180   -15.9749     0.6122 C.3     
  38 H38           -0.3205    -4.5495    -0.2869 H       
  39 H39           -2.3860    -5.8989     0.1640 H       
  40 H40            1.4777    -7.6353    -0.4505 H       
  41 H41            0.3789    -9.8558    -0.6064 H       
  42 H42            4.3894    -7.3905     1.9319 H       
  43 H43            5.3229    -5.9954     2.0023 H       
  44 H44           -0.5808   -11.3213     0.4357 H       
  45 H45           -1.8460   -10.8655     1.6024 H       
  46 H46           -3.8832    -9.7776     0.7906 H       
  47 H47           -4.0637    -9.4615    -0.9521 H       
  48 H48           -4.1389   -11.8901    -1.3986 H       
  49 H49           -2.1017   -12.9779    -0.5868 H       
  50 H50           -1.9212   -13.2940     1.1560 H       
  51 H51           -5.4524   -13.6924     0.8669 H       
  52 H52           -4.4461   -14.1041    -0.5425 H       
  53 H53            6.0381     0.7652     0.9625 H       
  54 H54            4.5150     1.1640    -1.0116 H       
  55 H55            5.6445    -0.1729    -1.3152 H       
  56 H56            2.7798    -0.2151    -1.3945 H       
  57 H57            3.9093    -1.5521    -1.6978 H       
  58 H58            2.3488    -2.1667     0.1489 H       
  59 H59            4.1676     0.5912     2.6263 H       
  60 H60            3.6657     1.6039     1.2560 H       
  61 H61            1.9303     0.2252     0.8724 H       
  62 H62            2.4317    -0.7870     2.2433 H       
  63 H63           -6.1869   -10.7576    -0.8363 H       
  64 H64           -6.2277   -12.3046    -0.2270 H       
  65 H65           -3.1390   -14.3896     2.2066 H       
  66 H66           -4.1317   -16.7137     2.4240 H       
  67 H67           -5.2031   -16.3932     0.9575 H       
  68 H68           -3.1389   -16.0245    -0.4699 H       
  69 H69           -2.0675   -16.3450     0.9966 H       
@<TRIPOS>BOND
   1    1    2 ar
   2    1   27 1
   3    1    6 ar
   4    2    3 ar
   5    2   30 1
   6    3    4 ar
   7    3    7 1
   8    4    5 ar
   9    5    6 ar
  10    6   33 1
  11    7    8 1
  12    7   11 1
  13    8    9 2
  14    9   10 1
  15    9   12 1
  16   10   11 2
  17   11   19 1
  18   12   13 1
  19   12   38 1
  20   13   14 ar
  21   13   15 ar
  22   14   18 ar
  23   14   39 1
  24   15   16 ar
  25   15   40 1
  26   16   17 ar
  27   16   41 1
  28   17   18 ar
  29   17   20 1
  30   19   42 1
  31   19   43 1
  32   20   21 1
  33   20   22 1
  34   21   25 1
  35   21   44 1
  36   21   45 1
  37   22   23 1
  38   22   46 1
  39   22   47 1
  40   23   24 1
  41   23   34 1
  42   23   48 1
  43   24   25 1
  44   24   26 1
  45   25   49 1
  46   25   50 1
  47   26   35 1
  48   26   51 1
  49   26   52 1
  50   27   28 1
  51   27   31 1
  52   27   53 1
  53   28   29 1
  54   28   54 1
  55   28   55 1
  56   29   30 1
  57   29   56 1
  58   29   57 1
  59   30   32 1
  60   30   58 1
  61   31   32 1
  62   31   59 1
  63   31   60 1
  64   32   61 1
  65   32   62 1
  66   34   63 1
  67   34   64 1
  68   35   36 1
  69   35   37 1
  70   35   65 1
  71   36   37 1
  72   36   66 1
  73   36   67 1
  74   37   68 1
  75   37   69 1

#	End of record

