#	Name: ASD01410939
#	Creating user name:	WinNT
#	Creation time:	15. 06. 2019 19:19

#	Modifying user name:	WinNT
#	Modification time:	15. 06. 2019 19:19

#	Program:	/corina/corina34_cracker 3.40 0067  02.08.2006

@<TRIPOS>MOLECULE
ASD01410939
  53   55    0    0    0
SMALL
NO_CHARGES


@<TRIPOS>ATOM
   1 C1             2.1383     1.5570    -1.2623 C.3     
   2 C2             1.4262     2.0569    -0.0037 C.3     
   3 C3             2.1653     1.5494     1.2360 C.3     
   4 C4             2.1786     0.0195     1.2313 C.3     
   5 C5             2.8907    -0.4804    -0.0273 C.3     
   6 C6             2.1515     0.0271    -1.2671 C.3     
   7 C7             1.3991     2.0645    -2.5021 C.3     
   8 P8             3.0593    -0.5852     2.7084 P.3     
   9 N9             4.6328    -0.1295     2.6315 N.pl3   
  10 O10            2.4381    -0.0107     3.9227 O.2     
  11 C11            5.5094    -0.4787     3.6550 C.2     
  12 C12            6.8396    -0.1274     3.6498 C.2     
  13 S13            7.6181    -0.7440     5.1006 S.3     
  14 C14            6.1091    -1.4536     5.6567 C.2     
  15 C15            5.1171    -1.1991     4.7593 C.2     
  16 C16            7.4816     0.6145     2.6342 C.2     
  17 O17            6.8489     0.9957     1.6664 O.2     
  18 O18            8.7970     0.9012     2.7365 O.3     
  19 C19            5.9407    -2.2100     6.9153 C.ar    
  20 C20            7.0295    -2.4061     7.7665 C.ar    
  21 C21            6.8653    -3.1126     8.9399 C.ar    
  22 C22            5.6249    -3.6267     9.2737 C.ar    
  23 C23            4.5415    -3.4360     8.4345 C.ar    
  24 C24            4.6907    -2.7265     7.2609 C.ar    
  25 O25            2.9680    -2.1915     2.7676 O.3     
  26 C26            1.7370    -2.8951     2.9457 C.3     
  27 C27            1.9886    -4.4000     2.8322 C.3     
  28 H28            3.1627     1.9293    -1.2722 H       
  29 H29            1.4167     3.1469    -0.0003 H       
  30 H30            0.4018     1.6846     0.0062 H       
  31 H31            3.1897     1.9217     1.2261 H       
  32 H32            1.6580     1.9056     2.1327 H       
  33 H33            1.1542    -0.3528     1.2412 H       
  34 H34            3.9151    -0.1082    -0.0373 H       
  35 H35            2.9001    -1.5704    -0.0307 H       
  36 H36            1.1271    -0.3452    -1.2571 H       
  37 H37            2.6588    -0.3291    -2.1637 H       
  38 H38            1.3897     3.1544    -2.4986 H       
  39 H39            1.9064     1.7083    -3.3987 H       
  40 H40            0.3747     1.6922    -2.4921 H       
  41 H41            4.9527     0.3833     1.8728 H       
  42 H42            4.1021    -1.5392     4.9018 H       
  43 H43            9.1470     1.4124     1.9941 H       
  44 H44            7.9984    -2.0059     7.5067 H       
  45 H45            7.7069    -3.2650     9.5994 H       
  46 H46            5.5019    -4.1797    10.1932 H       
  47 H47            3.5761    -3.8402     8.7008 H       
  48 H48            3.8433    -2.5744     6.6089 H       
  49 H49            1.3280    -2.6683     3.9303 H       
  50 H50            1.0277    -2.5864     2.1777 H       
  51 H51            2.3976    -4.6267     1.8476 H       
  52 H52            2.6979    -4.7086     3.6002 H       
  53 H53            1.0496    -4.9366     2.9680 H       
@<TRIPOS>BOND
   1    1    2 1
   2    1    6 1
   3    1    7 1
   4    1   28 1
   5    2    3 1
   6    2   29 1
   7    2   30 1
   8    3    4 1
   9    3   31 1
  10    3   32 1
  11    4    5 1
  12    4    8 1
  13    4   33 1
  14    5    6 1
  15    5   34 1
  16    5   35 1
  17    6   36 1
  18    6   37 1
  19    7   38 1
  20    7   39 1
  21    7   40 1
  22    8    9 1
  23    8   10 2
  24    8   25 1
  25    9   11 1
  26    9   41 1
  27   11   12 2
  28   11   15 1
  29   12   13 1
  30   12   16 1
  31   13   14 1
  32   14   15 2
  33   14   19 1
  34   15   42 1
  35   16   17 2
  36   16   18 1
  37   18   43 1
  38   19   20 ar
  39   19   24 ar
  40   20   21 ar
  41   20   44 1
  42   21   22 ar
  43   21   45 1
  44   22   23 ar
  45   22   46 1
  46   23   24 ar
  47   23   47 1
  48   24   48 1
  49   25   26 1
  50   26   27 1
  51   26   49 1
  52   26   50 1
  53   27   51 1
  54   27   52 1
  55   27   53 1

#	End of record

