#	Name: ASD03090174
#	Creating user name:	WinNT
#	Creation time:	15. 06. 2019 20:28

#	Modifying user name:	WinNT
#	Modification time:	15. 06. 2019 20:28

#	Program:	/corina/corina34_cracker 3.40 0067  02.08.2006

@<TRIPOS>MOLECULE
ASD03090174
  49   51    0    0    0
SMALL
NO_CHARGES


@<TRIPOS>ATOM
   1 N1            -0.0200     1.1255     1.2723 N.ar    
   2 C2             0.0459    -0.1973     1.2663 C.ar    
   3 C3             1.2467    -0.8466     1.0096 C.ar    
   4 C4             2.3875    -0.0823     0.7572 C.ar    
   5 C5             2.2675     1.3130     0.7745 C.ar    
   6 C6             1.0383     1.8785     1.0378 C.ar    
   7 C7             3.6894    -0.7295     0.4791 C.2     
   8 N8             5.7279    -3.4323    -0.4659 N.pl3   
   9 C9             4.8970    -4.4892    -0.8512 C.ar    
  10 C10            3.6898    -4.2279    -1.4860 C.ar    
  11 C11            2.8668    -5.2733    -1.8683 C.ar    
  12 C12            3.2454    -6.5816    -1.6187 C.ar    
  13 C13            4.4534    -6.8471    -0.9828 C.ar    
  14 C14            5.2815    -5.8002    -0.6045 C.ar    
  15 N15            3.8681    -1.9765     0.0923 N.2     
  16 C16            5.1706    -2.2169    -0.0642 C.2     
  17 N17            5.8446    -1.1260     0.2205 N.2     
  18 N18            4.9040    -0.1440     0.5714 N.pl3   
  19 C19            5.1844     1.2384     0.9673 C.3     
  20 C20            5.2267     2.1133    -0.2590 C.2     
  21 N21            4.8355    -8.1682    -0.7298 N.pl3   
  22 N22            5.4710     3.4331    -0.1370 N.am    
  23 F23            2.4408    -7.6005    -1.9925 F       
  24 O24            5.0410     1.6298    -1.3556 O.2     
  25 N25           -1.0992    -0.9441     1.5200 N.pl3   
  26 C26           -1.0352    -2.4077     1.5153 C.3     
  27 C27            5.5121     4.2837    -1.3291 C.3     
  28 F28            1.6926    -5.0167    -2.4853 F       
  29 C29            6.1082    -8.4471    -0.0600 C.3     
  30 H30            1.2972    -1.9254     1.0058 H       
  31 H31            3.1273     1.9381     0.5839 H       
  32 H32            0.9397     2.9539     1.0525 H       
  33 H33            6.6914    -3.5437    -0.4778 H       
  34 H34            3.3926    -3.2081    -1.6812 H       
  35 H35            6.2200    -6.0046    -0.1106 H       
  36 H36            4.4004     1.5904     1.6379 H       
  37 H37            6.1462     1.2821     1.4782 H       
  38 H38            4.2579    -8.8999    -0.9978 H       
  39 H39            5.6195     3.8199     0.7401 H       
  40 H40           -1.9404    -0.4960     1.7002 H       
  41 H41           -2.0225    -2.8152     1.7326 H       
  42 H42           -0.7068    -2.7538     0.5352 H       
  43 H43           -0.3285    -2.7429     2.2745 H       
  44 H44            5.7207     5.3122    -1.0346 H       
  45 H45            6.2961     3.9317    -1.9997 H       
  46 H46            4.5503     4.2400    -1.8400 H       
  47 H47            6.9279    -8.0454    -0.6555 H       
  48 H48            6.1109    -7.9791     0.9244 H       
  49 H49            6.2326    -9.5244     0.0496 H       
@<TRIPOS>BOND
   1    1    2 ar
   2    1    6 ar
   3    2    3 ar
   4    2   25 1
   5    3    4 ar
   6    3   30 1
   7    4    5 ar
   8    4    7 1
   9    5    6 ar
  10    5   31 1
  11    6   32 1
  12    7   15 2
  13    7   18 1
  14    8    9 1
  15    8   16 1
  16    8   33 1
  17    9   10 ar
  18    9   14 ar
  19   10   11 ar
  20   10   34 1
  21   11   12 ar
  22   11   28 1
  23   12   13 ar
  24   12   23 1
  25   13   14 ar
  26   13   21 1
  27   14   35 1
  28   15   16 1
  29   16   17 2
  30   17   18 1
  31   18   19 1
  32   19   20 1
  33   19   36 1
  34   19   37 1
  35   20   22 am
  36   20   24 2
  37   21   29 1
  38   21   38 1
  39   22   27 1
  40   22   39 1
  41   25   26 1
  42   25   40 1
  43   26   41 1
  44   26   42 1
  45   26   43 1
  46   27   44 1
  47   27   45 1
  48   27   46 1
  49   29   47 1
  50   29   48 1
  51   29   49 1

#	End of record

