#	Name: ASD03130011
#	Creating user name:	WinNT
#	Creation time:	15. 06. 2019 20:33

#	Modifying user name:	WinNT
#	Modification time:	15. 06. 2019 20:33

#	Program:	/corina/corina34_cracker 3.40 0067  02.08.2006

@<TRIPOS>MOLECULE
ASD03130011
 363  364    0    0    0
SMALL
NO_CHARGES


@<TRIPOS>ATOM
   1 C1           -13.2186    -8.9333    17.0334 C.2     
   2 O2           -12.5736    -8.6025    16.0671 O.2     
   3 C3           -14.1512    -7.9483    17.6900 C.3     
   4 C4           -14.0877    -6.6125    16.9468 C.3     
   5 C5           -15.0345    -5.6125    17.6134 C.3     
   6 C6           -14.9711    -4.2766    16.8702 C.3     
   7 C7           -15.9179    -3.2766    17.5369 C.3     
   8 C8           -15.8544    -1.9408    16.7937 C.3     
   9 C9           -16.8013    -0.9408    17.4603 C.3     
  10 C10          -16.7378     0.3951    16.7171 C.3     
  11 C11          -17.6847     1.3951    17.3837 C.3     
  12 C12          -17.6212     2.7309    16.6405 C.3     
  13 C13          -18.5680     3.7309    17.3072 C.3     
  14 C14          -18.5045     5.0668    16.5640 C.3     
  15 C15          -19.4514     6.0668    17.2306 C.3     
  16 C16          -19.3879     7.4026    16.4874 C.3     
  17 C17          -20.3348     8.4026    17.1540 C.3     
  18 N18           43.5203   -25.8505    28.8425 N.am    
  19 C19          -12.1690   -11.3005    16.9107 C.3     
  20 C20          -13.0969   -10.3137    17.5711 C.2     
  21 N21          -12.2290   -12.5828    17.6251 N.3     
  22 O22          -13.7418   -10.6445    18.5373 O.2     
  23 C23          -12.4973   -15.7196    17.1133 C.3     
  24 C24          -11.4041   -14.8437    17.7285 C.3     
  25 C25          -10.0751   -15.5449    17.6145 C.2     
  26 N26          -11.3441   -13.5615    17.0142 N.3     
  27 O27           -9.1673   -15.0275    16.9987 O.2     
  28 N28          -16.2621   -15.3161    16.9409 N.pl3   
  29 C29          -17.4021   -15.9252    16.4725 C.2     
  30 N30          -17.3203   -17.0595    15.8357 N.2     
  31 N31          -18.6284   -15.3379    16.6758 N.pl3   
  32 C32          -13.8621   -15.0660    17.3395 C.3     
  33 C33          -14.9553   -15.9419    16.7243 C.3     
  34 C34           -8.6033   -17.4287    18.0859 C.3     
  35 C35           -8.8037   -18.9139    18.2441 C.2     
  36 N36           -9.8952   -16.7471    18.1967 N.am    
  37 O37           -9.9162   -19.3592    18.4311 O.2     
  38 C38           -8.1730   -14.4940    19.5178 C.ar    
  39 C39           -7.8993   -13.1555    19.3072 C.ar    
  40 C40           -6.8177   -12.7852    18.5300 C.ar    
  41 C41           -6.0096   -13.7533    17.9638 C.ar    
  42 C42           -6.2836   -15.0919    18.1741 C.ar    
  43 C43           -7.3652   -15.4622    18.9513 C.ar    
  44 C44           -7.6633   -16.9214    19.1813 C.3     
  45 C45           -8.3210   -21.8014    16.9809 C.3     
  46 C46           -7.9415   -21.1913    18.3317 C.3     
  47 C47           -6.6646   -21.8206    18.8262 C.2     
  48 N48           -7.7467   -19.7474    18.1778 N.am    
  49 O49           -5.6880   -21.1310    19.0301 O.2     
  50 C50           -9.6591   -21.2628    16.5446 C.2     
  51 N51           -9.8782   -20.1969    15.7142 N.pl3   
  52 C52          -11.2155   -20.0577    15.5873 C.2     
  53 N53          -11.8016   -20.9828    16.2969 N.2     
  54 C54          -10.8691   -21.7413    16.8919 C.2     
  55 C55           -5.3053   -23.6596    21.0481 C.3     
  56 C56           -5.3667   -23.7616    19.5227 C.3     
  57 C57           -5.3304   -25.2118    19.1144 C.2     
  58 N58           -6.6080   -23.1498    19.0420 N.am    
  59 O59           -6.3191   -25.7345    18.6450 O.2     
  60 C60           -5.2065   -22.1886    21.4573 C.3     
  61 C61           -6.5704   -24.2730    21.6516 C.3     
  62 C62           -3.7539   -27.3082    17.3017 C.3     
  63 C63           -4.1330   -27.3080    18.7840 C.3     
  64 C64           -3.0944   -28.0678    19.5682 C.2     
  65 N65           -4.1994   -25.9278    19.2709 N.am    
  66 O66           -2.4710   -27.5113    20.4472 O.2     
  67 C67           -4.8691   -26.6459    16.4900 C.3     
  68 C68           -4.4957   -26.6461    15.0300 C.2     
  69 O69           -3.4416   -27.1285    14.6737 O.2     
  70 N70           -5.3333   -26.1103    14.1202 N.am    
  71 C71           -2.0987   -31.5685    20.0361 C.3     
  72 C72           -1.7741   -30.0745    19.9774 C.3     
  73 C73           -0.4853   -29.8696    19.2237 C.2     
  74 N74           -2.8582   -29.3658    19.2927 N.am    
  75 O75           -0.4735   -29.1978    18.2140 O.2     
  76 C76           -3.2881   -31.7892    20.9348 C.2     
  77 N77           -3.7057   -33.0420    21.2045 N.am    
  78 O78           -3.8697   -30.8395    21.4152 O.2     
  79 C79            2.5545   -28.9207    19.3832 C.3     
  80 C80            1.9070   -30.2339    18.9390 C.3     
  81 C81            2.8443   -31.3784    19.2263 C.2     
  82 N82            0.6542   -30.4330    19.6717 N.am    
  83 O83            2.4997   -32.2724    19.9698 O.2     
  84 C84            1.6585   -27.7481    18.9792 C.3     
  85 C85            2.2425   -26.4462    19.5315 C.3     
  86 C86            1.5829   -27.6662    17.4532 C.3     
  87 C87            4.6680   -33.6830    17.9897 C.3     
  88 C88            4.9767   -32.5212    18.9362 C.3     
  89 C89            6.3995   -32.0694    18.7296 C.2     
  90 N90            4.0655   -31.4086    18.6569 N.am    
  91 O91            6.6297   -30.9301    18.3832 O.2     
  92 O92            4.9517   -33.2905    16.6453 O.3     
  93 C93            9.3112   -31.8203    20.0046 C.3     
  94 C94            8.7991   -32.4921    18.7289 C.3     
  95 C95            9.6631   -33.6842    18.4074 C.2     
  96 N96            7.4161   -32.9313    18.9298 N.am    
  97 O97            9.1719   -34.7917    18.3515 O.2     
  98 C98           11.7508   -34.9699    16.3691 C.3     
  99 C99           11.8216   -34.6786    17.8694 C.3     
 100 C100          13.2478   -34.3845    18.2572 C.2     
 101 N101          10.9817   -33.5197    18.1820 N.am    
 102 O102          13.5345   -33.3125    18.7466 O.2     
 103 C103          15.7927   -35.3460    19.9201 C.3     
 104 C104          15.5913   -35.0270    18.4374 C.3     
 105 C105          16.5221   -35.8757    17.6100 C.2     
 106 N106          14.2048   -35.3129    18.0603 N.am    
 107 O107          16.0716   -36.6437    16.7865 O.2     
 108 C108          19.0337   -35.9104    15.6462 C.3     
 109 C109          18.7598   -36.6063    16.9809 C.3     
 110 C110          20.0574   -36.7985    17.7228 C.2     
 111 N111          17.8550   -35.7813    17.7852 N.am    
 112 O112          20.2113   -36.2957    18.8158 O.2     
 113 C113          17.7367   -35.8271    14.8389 C.3     
 114 C114          18.0064   -35.1416    13.5242 C.2     
 115 O115          19.1259   -34.7575    13.2591 O.2     
 116 N116          17.0037   -34.9553    12.6431 N.am    
 117 C117          22.9264   -39.0774    17.3980 C.3     
 118 C118          22.2652   -37.8071    17.9364 C.3     
 119 C119          23.2189   -36.6482    17.8009 C.2     
 120 N120          21.0469   -37.5290    17.1717 N.am    
 121 O121          22.9113   -35.6848    17.1315 O.2     
 122 C122          22.0416   -40.2637    17.6826 C.2     
 123 O123          21.0435   -40.1266    18.3497 O.2     
 124 O124          22.3623   -41.4725    17.1950 O.3     
 125 C125          25.3409   -35.5557    18.2919 C.3     
 126 C126          26.5940   -35.8418    19.0785 C.2     
 127 N127          24.4137   -36.6823    18.4236 N.am    
 128 O128          26.7020   -36.8842    19.6891 O.2     
 129 C129          29.7754   -36.0428    19.0118 C.3     
 130 C130          28.8130   -35.2175    19.8682 C.3     
 131 C131          29.4717   -33.9181    20.2538 C.2     
 132 N132          27.5947   -34.9394    19.1036 N.am    
 133 O133          28.9727   -32.8635    19.9224 O.2     
 134 N134          29.5261   -39.5486    17.5931 N.pl3   
 135 C135          30.2127   -40.4683    16.8362 C.2     
 136 N136          29.6853   -41.6349    16.5915 N.2     
 137 N137          31.4556   -40.1575    16.3374 N.pl3   
 138 C138          29.1564   -37.4122    18.7246 C.3     
 139 C139          30.1188   -38.2374    17.8682 C.3     
 140 C140          30.6272   -32.1378    22.6332 C.3     
 141 C141          31.2557   -32.6647    21.3416 C.3     
 142 C142          32.7296   -32.8932    21.5571 C.2     
 143 N143          30.6154   -33.9279    20.9668 N.am    
 144 O144          33.1702   -34.0228    21.5865 O.2     
 145 O145          30.8276   -33.0872    23.6823 O.3     
 146 C146          29.1275   -31.9226    22.4198 C.3     
 147 C147          35.7373   -32.2782    20.6958 C.3     
 148 C148          34.9769   -32.0655    22.0064 C.3     
 149 C149          35.5382   -30.8650    22.7237 C.2     
 150 N150          33.5582   -31.8424    21.7171 N.am    
 151 O151          34.8236   -29.9163    22.9691 O.2     
 152 C152          35.1674   -33.4971    19.9675 C.3     
 153 C153          35.5860   -31.0389    19.8115 C.3     
 154 C154          36.4465   -31.1995    18.5567 C.3     
 155 C155          37.3801   -29.6784    23.7899 C.3     
 156 C156          38.8395   -29.9079    24.0875 C.2     
 157 N157          36.8344   -30.8455    23.0925 N.am    
 158 O158          39.3714   -30.9444    23.7502 O.2     
 159 C159          41.8720   -28.8704    23.9551 C.3     
 160 C160          40.9411   -29.2276    25.1157 C.3     
 161 C161          41.2956   -28.3927    26.3192 C.2     
 162 N162          39.5535   -28.9615    24.7283 N.am    
 163 O163          40.7428   -27.3291    26.5035 O.2     
 164 C164          41.8112   -27.3634    23.6978 C.3     
 165 C165          43.3057   -29.2698    24.3099 C.3     
 166 C166          43.3931   -30.7915    24.4432 C.3     
 167 C167          43.0743   -28.9976    29.4786 C.3     
 168 C168          42.5041   -28.0637    28.4093 C.3     
 169 C169          43.5044   -26.9784    28.1049 C.2     
 170 N170          42.2270   -28.8281    27.1906 N.am    
 171 O171          44.2952   -27.1200    27.1964 O.2     
 172 C172          44.4275   -29.5394    29.0135 C.3     
 173 C173          43.2567   -28.2246    30.7863 C.3     
 174 C174          43.6852   -29.1895    31.8936 C.3     
 175 H175         -15.1699    -8.3347    17.6566 H       
 176 H176         -13.8523    -7.8013    18.7278 H       
 177 H177         -13.0690    -6.2261    16.9802 H       
 178 H178         -14.3866    -6.7595    15.9090 H       
 179 H179         -16.0532    -5.9988    17.5800 H       
 180 H180         -14.7356    -5.4654    18.6513 H       
 181 H181         -13.9524    -3.8903    16.9037 H       
 182 H182         -15.2700    -4.4237    15.8324 H       
 183 H183         -16.9366    -3.6630    17.5034 H       
 184 H184         -15.6190    -3.1296    18.5747 H       
 185 H185         -14.8358    -1.5544    16.8271 H       
 186 H186         -16.1534    -2.0878    15.7558 H       
 187 H187         -17.8200    -1.3271    17.4269 H       
 188 H188         -16.5024    -0.7937    18.4982 H       
 189 H189         -15.7191     0.7814    16.7505 H       
 190 H190         -17.0367     0.2480    15.6793 H       
 191 H191         -18.7033     1.0087    17.3503 H       
 192 H192         -17.3857     1.5421    18.4216 H       
 193 H193         -16.6025     3.1173    16.6740 H       
 194 H194         -17.9201     2.5839    15.6027 H       
 195 H195         -19.5867     3.3446    17.2737 H       
 196 H196         -18.2691     3.8780    18.3450 H       
 197 H197         -17.4859     5.4531    16.5974 H       
 198 H198         -18.8035     4.9197    15.5261 H       
 199 H199         -20.4701     5.6804    17.1972 H       
 200 H200         -19.1525     6.2138    18.2685 H       
 201 H201         -18.3692     7.7890    16.5209 H       
 202 H202         -19.6868     7.2556    15.4496 H       
 203 H203         -20.2895     9.3543    16.6246 H       
 204 H204         -21.3534     8.0163    17.1206 H       
 205 H205         -20.0358     8.5497    18.1919 H       
 206 H206          42.8423   -25.7049    29.5207 H       
 207 H207          44.2098   -25.1843    28.6951 H       
 208 H208         -12.4728   -11.4475    15.8743 H       
 209 H209         -11.1495   -10.9160    16.9395 H       
 210 H210         -12.0140   -12.4620    18.6035 H       
 211 H211         -12.3184   -15.8261    16.0434 H       
 212 H212         -12.4829   -16.7027    17.5837 H       
 213 H213         -11.6310   -14.6639    18.7794 H       
 214 H214         -11.5590   -13.6823    16.0357 H       
 215 H215         -16.3229   -14.4719    17.4148 H       
 216 H216         -18.1246   -17.4893    15.5052 H       
 217 H217         -18.6893   -14.4937    17.1497 H       
 218 H218         -19.4328   -15.7676    16.3453 H       
 219 H219         -14.0410   -14.9595    18.4094 H       
 220 H220         -13.8765   -14.0828    16.8691 H       
 221 H221         -14.9408   -16.9250    17.1947 H       
 222 H222         -14.7763   -16.0484    15.6544 H       
 223 H223          -8.1667   -17.2231    17.1085 H       
 224 H224         -10.6213   -17.1609    18.6892 H       
 225 H225          -9.0153   -14.7833    20.1287 H       
 226 H226          -8.5306   -12.3991    19.7495 H       
 227 H227          -6.6043   -11.7394    18.3648 H       
 228 H228          -5.1651   -13.4640    17.3560 H       
 229 H229          -5.6525   -15.8483    17.7314 H       
 230 H230          -8.1384   -17.0462    20.1543 H       
 231 H231          -6.7341   -17.4906    19.1550 H       
 232 H232          -7.5654   -21.5414    16.2396 H       
 233 H233          -8.3792   -22.8858    17.0756 H       
 234 H234          -8.7397   -21.3756    19.0508 H       
 235 H235          -6.8569   -19.3914    18.0283 H       
 236 H236          -9.1997   -19.6447    15.2953 H       
 237 H237         -11.7167   -19.3052    14.9966 H       
 238 H238         -11.0558   -22.5860    17.5384 H       
 239 H239          -4.4306   -24.1978    21.4133 H       
 240 H240          -4.5131   -23.2406    19.0891 H       
 241 H241          -7.3891   -23.7013    18.8789 H       
 242 H242          -5.1079   -22.1187    22.5406 H       
 243 H243          -4.3350   -21.7373    20.9832 H       
 244 H244          -6.1064   -21.6619    21.1396 H       
 245 H245          -7.4450   -23.7347    21.2864 H       
 246 H246          -6.6407   -25.3209    21.3601 H       
 247 H247          -6.5266   -24.2003    22.7383 H       
 248 H248          -2.8258   -26.7536    17.1639 H       
 249 H249          -3.6177   -28.3348    16.9617 H       
 250 H250          -5.1048   -27.7851    18.9106 H       
 251 H251          -3.4294   -25.5294    19.7058 H       
 252 H252          -5.7972   -27.2005    16.6278 H       
 253 H253          -5.0054   -25.6193    16.8301 H       
 254 H254          -6.1764   -25.7245    14.4052 H       
 255 H255          -5.0930   -26.1104    13.1804 H       
 256 H256          -2.3285   -31.9301    19.0339 H       
 257 H257          -1.2398   -32.1117    20.4303 H       
 258 H258          -1.6685   -29.6855    20.9902 H       
 259 H259          -3.4060   -29.8308    18.6411 H       
 260 H260          -3.2405   -33.8015    20.8203 H       
 261 H261          -4.4713   -33.1840    21.7830 H       
 262 H262           2.6802   -28.9256    20.4659 H       
 263 H263           3.5282   -28.8156    18.9048 H       
 264 H264           1.7001   -30.1934    17.8696 H       
 265 H265           0.6447   -30.9703    20.4792 H       
 266 H266           0.6581   -27.8986    19.3850 H       
 267 H267           3.2428   -26.2958    19.1256 H       
 268 H268           1.6042   -25.6108    19.2436 H       
 269 H269           2.2963   -26.5045    20.6186 H       
 270 H270           2.5833   -27.5158    17.0474 H       
 271 H271           1.1669   -28.5937    17.0598 H       
 272 H272           0.9446   -26.8308    17.1654 H       
 273 H273           5.2847   -34.5417    18.2553 H       
 274 H274           3.6151   -33.9515    18.0754 H       
 275 H275           4.8455   -32.8482    19.9677 H       
 276 H276           4.3412   -30.6935    18.0622 H       
 277 H277           4.7787   -33.9797    15.9895 H       
 278 H278           8.6863   -30.9580    20.2372 H       
 279 H279           9.2719   -32.5308    20.8303 H       
 280 H280          10.3403   -31.4935    19.8552 H       
 281 H281           8.8385   -31.7816    17.9032 H       
 282 H282           7.2319   -33.8425    19.2068 H       
 283 H283          12.1070   -34.1026    15.8133 H       
 284 H284          12.3757   -35.8322    16.1365 H       
 285 H285          10.7192   -35.1826    16.0885 H       
 286 H286          11.4654   -35.5459    18.4252 H       
 287 H287          11.3745   -32.6339    18.2266 H       
 288 H288          15.1195   -34.7322    20.5186 H       
 289 H289          15.5778   -36.3998    20.0975 H       
 290 H290          16.8243   -35.1333    20.2007 H       
 291 H291          15.8062   -33.9733    18.2600 H       
 292 H292          13.9756   -36.1703    17.6690 H       
 293 H293          19.4116   -34.9049    15.8315 H       
 294 H294          19.7750   -36.4794    15.0851 H       
 295 H295          18.2994   -37.5770    16.7968 H       
 296 H296          18.2153   -35.1670    18.4439 H       
 297 H297          17.3588   -36.8325    14.6536 H       
 298 H298          16.9954   -35.2580    15.4000 H       
 299 H299          16.1084   -35.2625    12.8552 H       
 300 H300          17.1774   -34.5141    11.7969 H       
 301 H301          23.0725   -38.9829    16.3220 H       
 302 H302          23.8915   -39.2189    17.8846 H       
 303 H303          22.0107   -37.9473    18.9870 H       
 304 H304          20.9525   -37.8706    16.2688 H       
 305 H305          21.7642   -42.2030    17.4042 H       
 306 H306          24.8698   -34.6507    18.6755 H       
 307 H307          25.5954   -35.4156    17.2413 H       
 308 H308          24.6597   -37.4529    18.9590 H       
 309 H309          29.9615   -35.5237    18.0716 H       
 310 H310          30.7161   -36.1743    19.5466 H       
 311 H311          28.5572   -35.7763    20.7685 H       
 312 H312          27.5083   -34.1057    18.6152 H       
 313 H313          28.6492   -39.7679    17.9450 H       
 314 H314          30.1697   -42.2837    16.0574 H       
 315 H315          31.8480   -39.2893    16.5195 H       
 316 H316          31.9400   -40.8064    15.8034 H       
 317 H317          28.9703   -37.9312    19.6648 H       
 318 H318          28.2157   -37.2807    18.1898 H       
 319 H319          31.0595   -38.3689    18.4029 H       
 320 H320          30.3049   -37.7184    16.9279 H       
 321 H321          31.0949   -31.1916    22.9052 H       
 322 H322          31.1139   -31.9349    20.5445 H       
 323 H323          31.0145   -34.7713    21.2319 H       
 324 H324          31.7574   -33.2727    23.8725 H       
 325 H325          28.6407   -32.8855    22.2649 H       
 326 H326          28.7015   -31.4372    23.2978 H       
 327 H327          28.9719   -31.2919    21.5445 H       
 328 H328          36.7929   -32.4443    20.9111 H       
 329 H329          35.0847   -32.9485    22.6364 H       
 330 H330          33.2152   -30.9383    21.6407 H       
 331 H331          35.7092   -33.6486    19.0339 H       
 332 H332          35.2753   -34.3800    20.5976 H       
 333 H333          34.1119   -33.3310    19.7523 H       
 334 H334          34.5411   -30.9236    19.5232 H       
 335 H335          35.9099   -30.1567    20.3637 H       
 336 H336          37.4914   -31.3148    18.8450 H       
 337 H337          36.1226   -32.0817    18.0045 H       
 338 H338          36.3387   -30.3166    17.9267 H       
 339 H339          36.8384   -29.5269    24.7235 H       
 340 H340          37.2723   -28.7954    23.1599 H       
 341 H341          37.4060   -31.6042    22.8962 H       
 342 H342          41.5571   -29.4050    23.0590 H       
 343 H343          41.0540   -30.2838    25.3601 H       
 344 H344          39.1487   -28.1041    24.9331 H       
 345 H345          42.0593   -26.8280    24.6142 H       
 346 H346          42.5253   -27.0989    22.9179 H       
 347 H347          40.8058   -27.0897    23.3778 H       
 348 H348          43.9815   -28.9346    23.5230 H       
 349 H349          43.5891   -28.8054    25.2544 H       
 350 H350          43.1644   -31.2541    23.4831 H       
 351 H351          44.4004   -31.0720    24.7509 H       
 352 H352          42.6767   -31.1324    25.1907 H       
 353 H353          42.3867   -29.8278    29.6401 H       
 354 H354          41.5805   -27.6145    28.7743 H       
 355 H355          42.7139   -29.6476    27.0110 H       
 356 H356          44.8338   -30.2048    29.7753 H       
 357 H357          44.2976   -30.0901    28.0819 H       
 358 H358          45.1152   -28.7093    28.8520 H       
 359 H359          44.0230   -27.4609    30.6531 H       
 360 H360          42.3149   -27.7501    31.0622 H       
 361 H361          43.8151   -28.6387    32.8253 H       
 362 H362          42.9190   -29.9531    32.0268 H       
 363 H363          44.6270   -29.6639    31.6177 H       
@<TRIPOS>BOND
   1    1   20 1
   2    1    2 2
   3    1    3 1
   4    3    4 1
   5    3  175 1
   6    3  176 1
   7    4    5 1
   8    4  177 1
   9    4  178 1
  10    5    6 1
  11    5  179 1
  12    5  180 1
  13    6    7 1
  14    6  181 1
  15    6  182 1
  16    7    8 1
  17    7  183 1
  18    7  184 1
  19    8    9 1
  20    8  185 1
  21    8  186 1
  22    9   10 1
  23    9  187 1
  24    9  188 1
  25   10   11 1
  26   10  189 1
  27   10  190 1
  28   11   12 1
  29   11  191 1
  30   11  192 1
  31   12   13 1
  32   12  193 1
  33   12  194 1
  34   13   14 1
  35   13  195 1
  36   13  196 1
  37   14   15 1
  38   14  197 1
  39   14  198 1
  40   15   16 1
  41   15  199 1
  42   15  200 1
  43   16   17 1
  44   16  201 1
  45   16  202 1
  46   17  203 1
  47   17  204 1
  48   17  205 1
  49   18  169 am
  50   18  206 1
  51   18  207 1
  52   19   20 1
  53   19   21 1
  54   19  208 1
  55   19  209 1
  56   20   22 2
  57   21   26 1
  58   21  210 1
  59   23   32 1
  60   23   24 1
  61   23  211 1
  62   23  212 1
  63   24   26 1
  64   24   25 1
  65   24  213 1
  66   25   27 2
  67   25   36 am
  68   26  214 1
  69   28   33 1
  70   28   29 1
  71   28  215 1
  72   29   30 2
  73   29   31 1
  74   30  216 1
  75   31  217 1
  76   31  218 1
  77   32   33 1
  78   32  219 1
  79   32  220 1
  80   33  221 1
  81   33  222 1
  82   34   35 1
  83   34   36 1
  84   34   44 1
  85   34  223 1
  86   35   37 2
  87   35   48 am
  88   36  224 1
  89   38   39 ar
  90   38   43 ar
  91   38  225 1
  92   39   40 ar
  93   39  226 1
  94   40   41 ar
  95   40  227 1
  96   41   42 ar
  97   41  228 1
  98   42   43 ar
  99   42  229 1
 100   43   44 1
 101   44  230 1
 102   44  231 1
 103   45   50 1
 104   45   46 1
 105   45  232 1
 106   45  233 1
 107   46   47 1
 108   46   48 1
 109   46  234 1
 110   47   49 2
 111   47   58 am
 112   48  235 1
 113   50   51 1
 114   50   54 2
 115   51   52 1
 116   51  236 1
 117   52   53 2
 118   52  237 1
 119   53   54 1
 120   54  238 1
 121   55   60 1
 122   55   61 1
 123   55   56 1
 124   55  239 1
 125   56   58 1
 126   56   57 1
 127   56  240 1
 128   57   59 2
 129   57   65 am
 130   58  241 1
 131   60  242 1
 132   60  243 1
 133   60  244 1
 134   61  245 1
 135   61  246 1
 136   61  247 1
 137   62   67 1
 138   62   63 1
 139   62  248 1
 140   62  249 1
 141   63   65 1
 142   63   64 1
 143   63  250 1
 144   64   66 2
 145   64   74 am
 146   65  251 1
 147   67   68 1
 148   67  252 1
 149   67  253 1
 150   68   69 2
 151   68   70 am
 152   70  254 1
 153   70  255 1
 154   71   76 1
 155   71   72 1
 156   71  256 1
 157   71  257 1
 158   72   74 1
 159   72   73 1
 160   72  258 1
 161   73   75 2
 162   73   82 am
 163   74  259 1
 164   76   77 am
 165   76   78 2
 166   77  260 1
 167   77  261 1
 168   79   84 1
 169   79   80 1
 170   79  262 1
 171   79  263 1
 172   80   82 1
 173   80   81 1
 174   80  264 1
 175   81   83 2
 176   81   90 am
 177   82  265 1
 178   84   85 1
 179   84   86 1
 180   84  266 1
 181   85  267 1
 182   85  268 1
 183   85  269 1
 184   86  270 1
 185   86  271 1
 186   86  272 1
 187   87   92 1
 188   87   88 1
 189   87  273 1
 190   87  274 1
 191   88   90 1
 192   88   89 1
 193   88  275 1
 194   89   91 2
 195   89   96 am
 196   90  276 1
 197   92  277 1
 198   93   94 1
 199   93  278 1
 200   93  279 1
 201   93  280 1
 202   94   95 1
 203   94   96 1
 204   94  281 1
 205   95   97 2
 206   95  101 am
 207   96  282 1
 208   98   99 1
 209   98  283 1
 210   98  284 1
 211   98  285 1
 212   99  100 1
 213   99  101 1
 214   99  286 1
 215  100  102 2
 216  100  106 am
 217  101  287 1
 218  103  104 1
 219  103  288 1
 220  103  289 1
 221  103  290 1
 222  104  105 1
 223  104  106 1
 224  104  291 1
 225  105  107 2
 226  105  111 am
 227  106  292 1
 228  108  113 1
 229  108  109 1
 230  108  293 1
 231  108  294 1
 232  109  111 1
 233  109  110 1
 234  109  295 1
 235  110  112 2
 236  110  120 am
 237  111  296 1
 238  113  114 1
 239  113  297 1
 240  113  298 1
 241  114  115 2
 242  114  116 am
 243  116  299 1
 244  116  300 1
 245  117  122 1
 246  117  118 1
 247  117  301 1
 248  117  302 1
 249  118  119 1
 250  118  120 1
 251  118  303 1
 252  119  121 2
 253  119  127 am
 254  120  304 1
 255  122  123 2
 256  122  124 1
 257  124  305 1
 258  125  126 1
 259  125  127 1
 260  125  306 1
 261  125  307 1
 262  126  128 2
 263  126  132 am
 264  127  308 1
 265  129  138 1
 266  129  130 1
 267  129  309 1
 268  129  310 1
 269  130  132 1
 270  130  131 1
 271  130  311 1
 272  131  133 2
 273  131  143 am
 274  132  312 1
 275  134  139 1
 276  134  135 1
 277  134  313 1
 278  135  136 2
 279  135  137 1
 280  136  314 1
 281  137  315 1
 282  137  316 1
 283  138  139 1
 284  138  317 1
 285  138  318 1
 286  139  319 1
 287  139  320 1
 288  140  141 1
 289  140  145 1
 290  140  146 1
 291  140  321 1
 292  141  143 1
 293  141  142 1
 294  141  322 1
 295  142  144 2
 296  142  150 am
 297  143  323 1
 298  145  324 1
 299  146  325 1
 300  146  326 1
 301  146  327 1
 302  147  148 1
 303  147  152 1
 304  147  153 1
 305  147  328 1
 306  148  150 1
 307  148  149 1
 308  148  329 1
 309  149  151 2
 310  149  157 am
 311  150  330 1
 312  152  331 1
 313  152  332 1
 314  152  333 1
 315  153  154 1
 316  153  334 1
 317  153  335 1
 318  154  336 1
 319  154  337 1
 320  154  338 1
 321  155  156 1
 322  155  157 1
 323  155  339 1
 324  155  340 1
 325  156  158 2
 326  156  162 am
 327  157  341 1
 328  159  160 1
 329  159  164 1
 330  159  165 1
 331  159  342 1
 332  160  162 1
 333  160  161 1
 334  160  343 1
 335  161  163 2
 336  161  170 am
 337  162  344 1
 338  164  345 1
 339  164  346 1
 340  164  347 1
 341  165  166 1
 342  165  348 1
 343  165  349 1
 344  166  350 1
 345  166  351 1
 346  166  352 1
 347  167  168 1
 348  167  172 1
 349  167  173 1
 350  167  353 1
 351  168  170 1
 352  168  169 1
 353  168  354 1
 354  169  171 2
 355  170  355 1
 356  172  356 1
 357  172  357 1
 358  172  358 1
 359  173  174 1
 360  173  359 1
 361  173  360 1
 362  174  361 1
 363  174  362 1
 364  174  363 1

#	End of record

