#	Name: ASD01913502
#	Creating user name:	WinNT
#	Creation time:	15. 06. 2019 20:01

#	Modifying user name:	WinNT
#	Modification time:	15. 06. 2019 20:01

#	Program:	/corina/corina34_cracker 3.40 0067  02.08.2006

@<TRIPOS>MOLECULE
ASD01913502
  38   40    0    0    0
SMALL
NO_CHARGES


@<TRIPOS>ATOM
   1 C1            -0.6784     1.3765    -0.9544 C.ar    
   2 C2            -0.7325    -0.0149    -0.9864 C.ar    
   3 C3            -0.0999    -0.6752    -2.0370 C.ar    
   4 N4             0.5246     0.0378    -2.9594 N.ar    
   5 C5             0.5530     1.3538    -2.8934 C.ar    
   6 N6            -0.0330     2.0156    -1.9158 N.ar    
   7 C7            -1.4572    -2.1203    -0.0468 C.ar    
   8 C8            -0.3087    -2.8887     0.1487 C.ar    
   9 C9            -0.4010    -4.2643     0.0907 C.ar    
  10 N10           -1.5575    -4.8572    -0.1469 N.ar    
  11 C11           -2.6712    -4.1646    -0.3380 C.ar    
  12 C12           -2.6592    -2.7785    -0.2945 C.ar    
  13 N13           -3.8667    -4.8363    -0.5858 N.am    
  14 C14           -3.8678    -6.1750    -0.7416 C.2     
  15 N15           -1.4036    -0.7299     0.0100 N.pl3   
  16 C16           -5.1151    -6.8746    -1.1150 C.ar    
  17 O17           -2.8430    -6.8071    -0.5749 O.2     
  18 C18           -5.1196    -8.2609    -1.2770 C.ar    
  19 C19           -6.2872    -8.9085    -1.6252 C.ar    
  20 C20           -7.4522    -8.1872    -1.8138 C.ar    
  21 C21           -7.4554    -6.8114    -1.6548 C.ar    
  22 C22           -6.2951    -6.1522    -1.3014 C.ar    
  23 Cl23          -8.9226    -5.9149    -1.8943 Cl      
  24 C24           -2.0505    -0.0164     1.1140 C.3     
  25 Cl25           1.0219    -5.2290     0.3325 Cl      
  26 H26           -1.1601     1.9255    -0.1588 H       
  27 H27           -0.1188    -1.7534    -2.0973 H       
  28 H28            1.0721     1.9061    -3.6627 H       
  29 H29            0.6410    -2.4125     0.3427 H       
  30 H30           -3.5689    -2.2176    -0.4504 H       
  31 H31           -4.6981    -4.3403    -0.6462 H       
  32 H32           -4.2107    -8.8256    -1.1305 H       
  33 H33           -6.2913    -9.9811    -1.7511 H       
  34 H34           -8.3633    -8.6990    -2.0867 H       
  35 H35           -6.2982    -5.0793    -1.1776 H       
  36 H36           -3.0801     0.2163     0.8424 H       
  37 H37           -2.0427    -0.6432     2.0057 H       
  38 H38           -1.5098     0.9084     1.3152 H       
@<TRIPOS>BOND
   1    1    2 ar
   2    1    6 ar
   3    1   26 1
   4    2    3 ar
   5    2   15 1
   6    3    4 ar
   7    3   27 1
   8    4    5 ar
   9    5    6 ar
  10    5   28 1
  11    7    8 ar
  12    7   12 ar
  13    7   15 1
  14    8    9 ar
  15    8   29 1
  16    9   10 ar
  17    9   25 1
  18   10   11 ar
  19   11   12 ar
  20   11   13 1
  21   12   30 1
  22   13   14 am
  23   13   31 1
  24   14   16 1
  25   14   17 2
  26   15   24 1
  27   16   18 ar
  28   16   22 ar
  29   18   19 ar
  30   18   32 1
  31   19   20 ar
  32   19   33 1
  33   20   21 ar
  34   20   34 1
  35   21   22 ar
  36   21   23 1
  37   22   35 1
  38   24   36 1
  39   24   37 1
  40   24   38 1

#	End of record

