#	Name: ASD03330322
#	Creating user name:	WinNT
#	Creation time:	15. 06. 2019 20:37

#	Modifying user name:	WinNT
#	Modification time:	15. 06. 2019 20:37

#	Program:	/corina/corina34_cracker 3.40 0067  02.08.2006

@<TRIPOS>MOLECULE
ASD03330322
  67   70    0    0    0
SMALL
NO_CHARGES


@<TRIPOS>ATOM
   1 C1            -1.1800     1.8348    -2.1186 C.3     
   2 N2            -0.9388     0.4512    -1.6818 N.am    
   3 C3            -0.0674    -0.3970    -2.5173 C.3     
   4 C4             1.1112     0.4519    -2.9263 C.2     
   5 N5             1.1836     1.7938    -2.7389 N.pl3   
   6 C6             0.1435     2.6078    -2.1056 C.3     
   7 C7             2.2637     0.0623    -3.5283 C.2     
   8 N8             3.0244     1.1656    -3.7087 N.2     
   9 C9             2.3810     2.2096    -3.2387 C.2     
  10 C10            2.8738     3.6046    -3.2507 C.ar    
  11 C11            3.9571     3.9579    -4.0558 C.ar    
  12 C12            2.6216    -1.3140    -3.9145 C.2     
  13 O13            1.8482    -2.2272    -3.6971 O.2     
  14 C14            4.1616    -2.9292    -4.8927 C.3     
  15 N15            3.8058    -1.5609    -4.5087 N.am    
  16 S16           -1.6242    -0.1368    -0.2937 S.o2    
  17 O17           -1.9063     0.9911     0.5234 O.2     
  18 C18           -3.1814    -0.8332    -0.7353 C.ar    
  19 O19           -0.8066    -1.2188     0.1304 O.2     
  20 C20           -3.2648    -2.1649    -1.0967 C.ar    
  21 C21           -4.4855    -2.7121    -1.4437 C.ar    
  22 C22           -5.5413    -0.5938    -1.0614 C.ar    
  23 C23           -4.3196    -0.0488    -0.7147 C.ar    
  24 C24            5.1573    -2.8909    -6.0232 C.2     
  25 O25            5.7831    -1.8762    -6.2460 O.2     
  26 C26            4.7791    -3.6512    -3.6934 C.3     
  27 C27            3.7384    -3.7695    -2.5781 C.3     
  28 C28            5.2326    -5.0494    -4.1181 C.3     
  29 C29            5.9837    -2.8569    -3.1848 C.3     
  30 N30            5.3524    -3.9843    -6.7867 N.am    
  31 C31            6.2421    -3.9170    -7.9487 C.3     
  32 C32           -5.6252    -1.9261    -1.4289 C.ar    
  33 F33           -6.8191    -2.4599    -1.7680 F       
  34 C34            4.4116     5.2606    -4.0629 C.ar    
  35 C35            3.7955     6.2156    -3.2740 C.ar    
  36 C36            2.7209     5.8716    -2.4735 C.ar    
  37 C37            2.2535     4.5735    -2.4615 C.ar    
  38 H38           -1.5895     1.8313    -3.1287 H       
  39 H39           -1.8871     2.3124    -1.4403 H       
  40 H40            0.2754    -1.2577    -1.9431 H       
  41 H41           -0.6103    -0.7308    -3.4017 H       
  42 H42            0.0255     3.5409    -2.6566 H       
  43 H43            0.4279     2.8255    -1.0761 H       
  44 H44            4.4391     3.2132    -4.6718 H       
  45 H45            3.2661    -3.4606    -5.2151 H       
  46 H46            4.4226    -0.8326    -4.6821 H       
  47 H47           -2.3757    -2.7779    -1.1082 H       
  48 H48           -4.5503    -3.7524    -1.7267 H       
  49 H49           -6.4304     0.0192    -1.0452 H       
  50 H50           -4.2539     0.9904    -0.4280 H       
  51 H51            2.8802    -4.3354    -2.9405 H       
  52 H52            4.1783    -4.2839    -1.7237 H       
  53 H53            3.4153    -2.7734    -2.2756 H       
  54 H54            5.8942    -4.9704    -4.9808 H       
  55 H55            5.7652    -5.5245    -3.2942 H       
  56 H56            4.3617    -5.6494    -4.3818 H       
  57 H57            5.6606    -1.8608    -2.8823 H       
  58 H58            6.4237    -3.3713    -2.3304 H       
  59 H59            6.7251    -2.7726    -3.9794 H       
  60 H60            4.9038    -4.8157    -6.5668 H       
  61 H61            6.2742    -4.8903    -8.4385 H       
  62 H62            5.8690    -3.1699    -8.6492 H       
  63 H63            7.2450    -3.6409    -7.6229 H       
  64 H64            5.2503     5.5353    -4.6854 H       
  65 H65            4.1552     7.2339    -3.2827 H       
  66 H66            2.2441     6.6217    -1.8598 H       
  67 H67            1.4145     4.3061    -1.8361 H       
@<TRIPOS>BOND
   1    1    2 1
   2    1    6 1
   3    1   38 1
   4    1   39 1
   5    2    3 1
   6    2   16 am
   7    3    4 1
   8    3   40 1
   9    3   41 1
  10    4    5 1
  11    4    7 2
  12    5    6 1
  13    5    9 1
  14    6   42 1
  15    6   43 1
  16    7    8 1
  17    7   12 1
  18    8    9 2
  19    9   10 1
  20   10   11 ar
  21   10   37 ar
  22   11   34 ar
  23   11   44 1
  24   12   13 2
  25   12   15 am
  26   14   15 1
  27   14   24 1
  28   14   26 1
  29   14   45 1
  30   15   46 1
  31   16   17 2
  32   16   18 1
  33   16   19 2
  34   18   20 ar
  35   18   23 ar
  36   20   21 ar
  37   20   47 1
  38   21   32 ar
  39   21   48 1
  40   22   23 ar
  41   22   32 ar
  42   22   49 1
  43   23   50 1
  44   24   25 2
  45   24   30 am
  46   26   27 1
  47   26   28 1
  48   26   29 1
  49   27   51 1
  50   27   52 1
  51   27   53 1
  52   28   54 1
  53   28   55 1
  54   28   56 1
  55   29   57 1
  56   29   58 1
  57   29   59 1
  58   30   31 1
  59   30   60 1
  60   31   61 1
  61   31   62 1
  62   31   63 1
  63   32   33 1
  64   34   35 ar
  65   34   64 1
  66   35   36 ar
  67   35   65 1
  68   36   37 ar
  69   36   66 1
  70   37   67 1

#	End of record

