#	Name: ASD09380009
#	Creating user name:	WinNT
#	Creation time:	15. 06. 2019 21:21

#	Modifying user name:	WinNT
#	Modification time:	15. 06. 2019 21:21

#	Program:	/corina/corina34_cracker 3.40 0067  02.08.2006

@<TRIPOS>MOLECULE
ASD09380009
  74   78    0    0    0
SMALL
NO_CHARGES


@<TRIPOS>ATOM
   1 O1            -0.0164     1.3552     0.0095 O.3     
   2 C2           -10.2938    -8.0643     0.4125 C.3     
   3 C3            -8.7774    -7.9302     0.2600 C.3     
   4 C4            -7.7486    -5.8543    -0.6831 C.ar    
   5 C5            -8.4679    -7.0129    -0.8950 C.ar    
   6 C6            -8.9040    -7.3318    -2.1676 C.ar    
   7 C7            -8.6215    -6.4895    -3.2255 C.ar    
   8 C8            -7.9023    -5.3246    -3.0186 C.ar    
   9 O9           -11.8788    -9.2480     1.8898 O.3     
  10 O10           -6.7421    -3.8787    -1.5001 O.3     
  11 C11          -10.6033    -8.9816     1.5675 C.2     
  12 C12          -10.9036    -6.6864     0.6779 C.3     
  13 C13           -8.1676    -9.3081    -0.0055 C.3     
  14 C14           -7.2949    -9.9179     1.0933 C.3     
  15 C15           -6.6506    -9.3859    -0.1883 C.3     
  16 C16           -7.6230    -4.4254    -4.1961 C.3     
  17 C17           -6.4798    -3.4670    -3.8532 C.3     
  18 C18           -6.7689    -2.8422    -2.4825 C.3     
  19 C19           -5.7007    -1.7962    -2.1572 C.3     
  20 C20           -5.9776    -1.1940    -0.7769 C.3     
  21 C21           -4.8726    -0.1933    -0.4313 C.3     
  22 C22           -3.2637    -1.4224    -1.7630 C.3     
  23 C23           -4.3208    -2.4598    -2.1484 C.3     
  24 C24           -2.5051     0.0200     0.0271 C.3     
  25 C25           -1.1894    -0.7146     0.0096 C.ar    
  26 C26            0.0021    -0.0041     0.0020 C.ar    
  27 C27            1.2120    -0.6817    -0.0136 C.ar    
  28 C28            1.2293    -2.0633    -0.0217 C.ar    
  29 C29            0.0396    -2.7711    -0.0141 C.ar    
  30 C30           -1.1692    -2.0957     0.0068 C.ar    
  31 C31            1.2479     2.0213     0.0010 C.3     
  32 C32           -2.8108     0.4847     1.4524 C.3     
  33 F33            1.0458     3.4056     0.0104 F       
  34 F34            1.9787     1.6490     1.1344 F       
  35 F35            1.9569     1.6613    -1.1501 F       
  36 F36            0.0579    -4.1219    -0.0224 F       
  37 N37           -3.5728    -0.8768    -0.4351 N.3     
  38 C38           -7.4606    -5.0049    -1.7464 C.ar    
  39 O39           -9.7033    -9.4771     2.2034 O.2     
  40 H40          -10.7159    -8.4782    -0.5033 H       
  41 H41           -8.3553    -7.5163     1.1758 H       
  42 H42           -7.4120    -5.6041     0.3121 H       
  43 H43           -9.4652    -8.2393    -2.3346 H       
  44 H44           -8.9632    -6.7409    -4.2187 H       
  45 H45          -12.0276    -9.8420     2.6383 H       
  46 H46          -10.4815    -6.2726     1.5937 H       
  47 H47          -10.6798    -6.0230    -0.1575 H       
  48 H48          -11.9840    -6.7820     0.7866 H       
  49 H49           -8.7813    -9.9878    -0.5966 H       
  50 H50           -7.1552    -9.3375     2.0053 H       
  51 H51           -7.3345   -10.9992     1.2254 H       
  52 H52           -6.2662   -10.1171    -0.8994 H       
  53 H53           -6.0869    -8.4555    -0.1195 H       
  54 H54           -7.3420    -5.0319    -5.0570 H       
  55 H55           -8.5184    -3.8513    -4.4345 H       
  56 H56           -5.5390    -4.0162    -3.8155 H       
  57 H57           -6.4183    -2.6835    -4.6085 H       
  58 H58           -7.7523    -2.3721    -2.4934 H       
  59 H59           -5.7219    -1.0078    -2.9096 H       
  60 H60           -6.9404    -0.6831    -0.7893 H       
  61 H61           -5.9960    -1.9881    -0.0305 H       
  62 H62           -4.8638     0.6077    -1.1704 H       
  63 H63           -5.0591     0.2267     0.5571 H       
  64 H64           -2.2818    -1.8951    -1.7418 H       
  65 H65           -3.2625    -0.6156    -2.4959 H       
  66 H66           -4.3131    -3.2738    -1.4235 H       
  67 H67           -4.0998    -2.8532    -3.1406 H       
  68 H68           -2.4467     0.8857    -0.6326 H       
  69 H69            2.1403    -0.1298    -0.0199 H       
  70 H70            2.1714    -2.5912    -0.0342 H       
  71 H71           -2.0965    -2.6492     0.0172 H       
  72 H72           -2.8692    -0.3810     2.1122 H       
  73 H73           -2.0185     1.1501     1.7954 H       
  74 H74           -3.7624     1.0160     1.4651 H       
@<TRIPOS>BOND
   1    1   26 1
   2    1   31 1
   3    2   12 1
   4    2    3 1
   5    2   11 1
   6    2   40 1
   7    3    5 1
   8    3   13 1
   9    3   41 1
  10    4   38 ar
  11    4    5 ar
  12    4   42 1
  13    5    6 ar
  14    6    7 ar
  15    6   43 1
  16    7    8 ar
  17    7   44 1
  18    8   38 ar
  19    8   16 1
  20    9   11 1
  21    9   45 1
  22   10   18 1
  23   10   38 1
  24   11   39 2
  25   12   46 1
  26   12   47 1
  27   12   48 1
  28   13   15 1
  29   13   14 1
  30   13   49 1
  31   14   15 1
  32   14   50 1
  33   14   51 1
  34   15   52 1
  35   15   53 1
  36   16   17 1
  37   16   54 1
  38   16   55 1
  39   17   18 1
  40   17   56 1
  41   17   57 1
  42   18   19 1
  43   18   58 1
  44   19   20 1
  45   19   23 1
  46   19   59 1
  47   20   21 1
  48   20   60 1
  49   20   61 1
  50   21   37 1
  51   21   62 1
  52   21   63 1
  53   22   37 1
  54   22   23 1
  55   22   64 1
  56   22   65 1
  57   23   66 1
  58   23   67 1
  59   24   32 1
  60   24   25 1
  61   24   37 1
  62   24   68 1
  63   25   30 ar
  64   25   26 ar
  65   26   27 ar
  66   27   28 ar
  67   27   69 1
  68   28   29 ar
  69   28   70 1
  70   29   36 1
  71   29   30 ar
  72   30   71 1
  73   31   35 1
  74   31   33 1
  75   31   34 1
  76   32   72 1
  77   32   73 1
  78   32   74 1

#	End of record

