#	Name: ASD01230303
#	Creating user name:	WinNT
#	Creation time:	15. 06. 2019 19:14

#	Modifying user name:	WinNT
#	Modification time:	15. 06. 2019 19:14

#	Program:	/corina/corina34_cracker 3.40 0067  02.08.2006

@<TRIPOS>MOLECULE
ASD01230303
  37   39    0    0    0
SMALL
NO_CHARGES


@<TRIPOS>ATOM
   1 C1            -0.2104     1.3424     1.5474 C.ar    
   2 C2            -0.1487     0.1190     0.8648 C.ar    
   3 C3             1.0862    -0.3288     0.3962 C.ar    
   4 C4             2.2038     0.4587     0.6267 C.ar    
   5 C5             2.0647     1.6526     1.3071 C.ar    
   6 N6             0.8857     2.0570     1.7418 N.ar    
   7 N7            -1.4305     1.8093     2.0171 N.pl3   
   8 C8            -1.3752    -0.6849     0.6454 C.ar    
   9 C9            -1.6791    -1.1618    -0.6289 C.ar    
  10 C10           -2.8202    -1.9096    -0.8297 C.ar    
  11 C11           -3.6662    -2.1877     0.2357 C.ar    
  12 C12           -3.3664    -1.7137     1.5059 C.ar    
  13 C13           -2.2238    -0.9703     1.7141 C.ar    
  14 O14           -4.7898    -2.9247     0.0348 O.3     
  15 C15           -5.9408    -2.2656    -0.2605 C.ar    
  16 C16           -7.1357    -2.9642    -0.3610 C.ar    
  17 C17           -8.3042    -2.2917    -0.6607 C.ar    
  18 C18           -8.2842    -0.9235    -0.8610 C.ar    
  19 C19           -7.0952    -0.2252    -0.7615 C.ar    
  20 C20           -5.9244    -0.8922    -0.4563 C.ar    
  21 C21           -7.1581    -4.4553    -0.1438 C.3     
  22 H22            1.1699    -1.2664    -0.1332 H       
  23 H23            3.1751     0.1410     0.2775 H       
  24 H24            2.9355     2.2657     1.4869 H       
  25 H25           -2.2368     1.2897     1.8728 H       
  26 H26           -1.4767     2.6552     2.4897 H       
  27 H27           -1.0217    -0.9456    -1.4581 H       
  28 H28           -3.0564    -2.2791    -1.8167 H       
  29 H29           -4.0267    -1.9310     2.3325 H       
  30 H30           -1.9887    -0.6059     2.7032 H       
  31 H31           -9.2344    -2.8349    -0.7391 H       
  32 H32           -9.1990    -0.3997    -1.0960 H       
  33 H33           -7.0823     0.8433    -0.9184 H       
  34 H34           -4.9966    -0.3456    -0.3742 H       
  35 H35           -7.3347    -4.6662     0.9109 H       
  36 H36           -7.9554    -4.8975    -0.7412 H       
  37 H37           -6.2005    -4.8806    -0.4440 H       
@<TRIPOS>BOND
   1    1    2 ar
   2    1    6 ar
   3    1    7 1
   4    2    3 ar
   5    2    8 1
   6    3    4 ar
   7    3   22 1
   8    4    5 ar
   9    4   23 1
  10    5    6 ar
  11    5   24 1
  12    7   25 1
  13    7   26 1
  14    8    9 ar
  15    8   13 ar
  16    9   10 ar
  17    9   27 1
  18   10   11 ar
  19   10   28 1
  20   11   12 ar
  21   11   14 1
  22   12   13 ar
  23   12   29 1
  24   13   30 1
  25   14   15 1
  26   15   16 ar
  27   15   20 ar
  28   16   17 ar
  29   16   21 1
  30   17   18 ar
  31   17   31 1
  32   18   19 ar
  33   18   32 1
  34   19   20 ar
  35   19   33 1
  36   20   34 1
  37   21   35 1
  38   21   36 1
  39   21   37 1

#	End of record

