#	Name: ASD01870286
#	Creating user name:	WinNT
#	Creation time:	15. 06. 2019 19:38

#	Modifying user name:	WinNT
#	Modification time:	15. 06. 2019 19:38

#	Program:	/corina/corina34_cracker 3.40 0067  02.08.2006

@<TRIPOS>MOLECULE
ASD01870286
  62   66    0    0    0
SMALL
NO_CHARGES


@<TRIPOS>ATOM
   1 N1            -0.0352     1.3108    -1.0973 N.ar    
   2 C2             0.0247     0.0721    -1.5198 C.ar    
   3 C3             1.1935    -0.6813    -1.4188 C.ar    
   4 C4             2.3144    -0.1293    -0.8678 C.ar    
   5 C5             2.2470     1.2019    -0.4147 C.ar    
   6 C6             3.3619     1.8334     0.1615 C.ar    
   7 C7             3.2725     3.1185     0.5907 C.ar    
   8 C8             2.0690     3.8381     0.4673 C.ar    
   9 C9             0.9568     3.2357    -0.0982 C.ar    
  10 C10            1.0261     1.9114    -0.5478 C.ar    
  11 N11            0.4238     5.4680     0.5290 N.am    
  12 C12            1.7063     5.2196     0.8452 C.2     
  13 C13           -0.1479     4.2621    -0.0811 C.3     
  14 O14            2.4599     6.0173     1.3679 O.2     
  15 C15           -0.2843     6.7304     0.7555 C.3     
  16 C16            0.3275     7.8231    -0.1236 C.3     
  17 C17           -0.4120     9.1414     0.1129 C.3     
  18 C18           -0.2854     9.5404     1.5845 C.3     
  19 C19           -0.8972     8.4477     2.4636 C.3     
  20 C20           -0.1577     7.1293     2.2271 C.3     
  21 O21            0.2093     7.4505    -1.4981 O.3     
  22 C22           -0.6089     4.5627    -1.5086 C.3     
  23 C23           -1.8586     5.4443    -1.4660 C.3     
  24 C24           -2.3571     5.6918    -2.8912 C.3     
  25 O25           -3.4531     6.6082    -2.8601 O.3     
  26 O26           -2.8793     4.7876    -0.7116 O.3     
  27 C27            4.6605     1.0822     0.3041 C.3     
  28 C28            6.3367     2.2244    -1.1704 C.ar    
  29 C29            5.4447     1.1865    -0.9785 C.ar    
  30 C30            5.2803     0.2420    -1.9804 C.ar    
  31 C31            6.0226     0.3772    -3.1432 C.ar    
  32 C32            6.8967     1.4426    -3.2647 C.ar    
  33 N33            7.0274     2.3224    -2.2896 N.ar    
  34 Cl34           7.8325     1.6240    -4.7155 Cl      
  35 H35           -0.8544    -0.3773    -1.9574 H       
  36 H36            1.2122    -1.7004    -1.7756 H       
  37 H37            3.2280    -0.6988    -0.7815 H       
  38 H38            4.1355     3.5944     1.0325 H       
  39 H39           -0.9855     3.9012     0.5157 H       
  40 H40           -1.3371     6.6070     0.5017 H       
  41 H41            1.3804     7.9464     0.1301 H       
  42 H42            0.0239     9.9199    -0.5134 H       
  43 H43           -1.4648     9.0180    -0.1408 H       
  44 H44            0.7675     9.6637     1.8383 H       
  45 H45           -0.8122    10.4796     1.7530 H       
  46 H46           -0.8070     8.7319     3.5120 H       
  47 H47           -1.9500     8.3243     2.2099 H       
  48 H48           -0.5935     6.3509     2.8534 H       
  49 H49            0.8952     7.2527     2.4808 H       
  50 H50            0.5772     8.0985    -2.1143 H       
  51 H51            0.1847     5.0831    -2.0447 H       
  52 H52           -0.8407     3.6284    -2.0199 H       
  53 H53           -1.6153     6.3970    -0.9956 H       
  54 H54           -1.5494     6.1115    -3.4908 H       
  55 H55           -2.6839     4.7493    -3.3305 H       
  56 H56           -3.8205     6.8117    -3.7311 H       
  57 H57           -3.1463     3.9314    -1.0732 H       
  58 H58            5.2409     1.5116     1.1208 H       
  59 H59            4.4522     0.0339     0.5184 H       
  60 H60            6.4667     2.9662    -0.3964 H       
  61 H61            4.5904    -0.5798    -1.8574 H       
  62 H62            5.9201    -0.3402    -3.9439 H       
@<TRIPOS>BOND
   1    1    2 ar
   2    1   10 ar
   3    2    3 ar
   4    2   35 1
   5    3    4 ar
   6    3   36 1
   7    4    5 ar
   8    4   37 1
   9    5    6 ar
  10    5   10 ar
  11    6    7 ar
  12    6   27 1
  13    7    8 ar
  14    7   38 1
  15    8    9 ar
  16    8   12 1
  17    9   10 ar
  18    9   13 1
  19   11   12 am
  20   11   13 1
  21   11   15 1
  22   12   14 2
  23   13   22 1
  24   13   39 1
  25   15   16 1
  26   15   20 1
  27   15   40 1
  28   16   17 1
  29   16   21 1
  30   16   41 1
  31   17   18 1
  32   17   42 1
  33   17   43 1
  34   18   19 1
  35   18   44 1
  36   18   45 1
  37   19   20 1
  38   19   46 1
  39   19   47 1
  40   20   48 1
  41   20   49 1
  42   21   50 1
  43   22   23 1
  44   22   51 1
  45   22   52 1
  46   23   24 1
  47   23   26 1
  48   23   53 1
  49   24   25 1
  50   24   54 1
  51   24   55 1
  52   25   56 1
  53   26   57 1
  54   27   29 1
  55   27   58 1
  56   27   59 1
  57   28   29 ar
  58   28   33 ar
  59   28   60 1
  60   29   30 ar
  61   30   31 ar
  62   30   61 1
  63   31   32 ar
  64   31   62 1
  65   32   33 ar
  66   32   34 1

#	End of record

