#	Name: ASD04230024
#	Creating user name:	WinNT
#	Creation time:	15. 06. 2019 20:48

#	Modifying user name:	WinNT
#	Modification time:	15. 06. 2019 20:48

#	Program:	/corina/corina34_cracker 3.40 0067  02.08.2006

@<TRIPOS>MOLECULE
ASD04230024
  64   69    0    0    0
SMALL
NO_CHARGES


@<TRIPOS>ATOM
   1 C1            -0.0201     1.3840     0.0495 C.ar    
   2 C2            -0.0002    -0.0082     0.0382 C.ar    
   3 C3             1.2014    -0.6868     0.0292 C.ar    
   4 C4             2.4043     0.0324     0.0421 C.ar    
   5 C5             2.3767     1.4398     0.0205 C.ar    
   6 C6             1.1567     2.1024     0.0380 C.ar    
   7 C7             3.6492    -0.6482     0.0722 C.2     
   8 C8             4.7968     0.1040     0.2855 C.2     
   9 C9             4.6240     1.5530     0.4956 C.2     
  10 O10            3.5328     2.1439    -0.0401 O.3     
  11 C11            6.1305    -0.5195     0.3018 C.2     
  12 N12            7.2258     0.2374     0.5114 N.am    
  13 O13            6.2438    -1.7177     0.1260 O.2     
  14 C14            8.4801    -0.3679     0.6391 C.ar    
  15 C15            9.6130     0.2704     0.1493 C.ar    
  16 C16           10.8542    -0.3247     0.2738 C.ar    
  17 C17           10.9754    -1.5565     0.8851 C.ar    
  18 C18            9.8444    -2.2040     1.3798 C.ar    
  19 C19            8.5945    -1.6031     1.2597 C.ar    
  20 C20            9.9731    -3.5285     2.0368 C.2     
  21 O21            5.4380     2.1965     1.1311 O.2     
  22 C22            1.1187     3.6089     0.0437 C.3     
  23 C23           11.1413    -4.1753     2.3061 C.2     
  24 N24           10.8158    -5.3561     2.9124 N.pl3   
  25 C25            9.4480    -5.4039     3.0002 C.2     
  26 N26            8.9585    -4.2917     2.4728 N.2     
  27 C27           11.5755    -6.3847     3.3911 C.2     
  28 C28           10.9944    -7.4632     3.9569 C.2     
  29 C29            9.5957    -7.5417     4.0615 C.2     
  30 C30            8.8265    -6.5239     3.5899 C.2     
  31 N31            1.3298     4.1093    -1.3212 N.3     
  32 C32            1.0656     5.5533    -1.3997 C.3     
  33 C33            0.4990     3.3745    -2.2861 C.3     
  34 C34            0.7936     3.8860    -3.6987 C.3     
  35 O35            0.5612     5.2963    -3.7477 O.3     
  36 C36            1.3545     6.0430    -2.8212 C.3     
  37 O37           -1.1695    -0.7020     0.0366 O.3     
  38 C38           -1.0777    -2.1280     0.0248 C.3     
  39 H39           -0.9656     1.9058     0.0630 H       
  40 H40            1.2148    -1.7666     0.0126 H       
  41 H41            3.7023    -1.7180    -0.0662 H       
  42 H42            7.1441     1.2019     0.5738 H       
  43 H43            9.5233     1.2340    -0.3301 H       
  44 H44           11.7317     0.1752    -0.1088 H       
  45 H45           11.9469    -2.0188     0.9799 H       
  46 H46            7.7153    -2.1009     1.6414 H       
  47 H47            0.1486     3.9465     0.4085 H       
  48 H48            1.9047     3.9897     0.6959 H       
  49 H49           12.1370    -3.8218     2.0823 H       
  50 H50           12.6517    -6.3348     3.3159 H       
  51 H51           11.6075    -8.2699     4.3308 H       
  52 H52            9.1333    -8.4061     4.5147 H       
  53 H53            7.7503    -6.5736     3.6654 H       
  54 H54            0.0214     5.7462    -1.1535 H       
  55 H55            1.7095     6.0800    -0.6954 H       
  56 H56            0.7293     2.3106    -2.2288 H       
  57 H57           -0.5543     3.5325    -2.0541 H       
  58 H58            1.8337     3.6795    -3.9510 H       
  59 H59            0.1390     3.3843    -4.4114 H       
  60 H60            1.1056     7.1013    -2.8992 H       
  61 H61            2.4109     5.8992    -3.0480 H       
  62 H62           -0.5386    -2.4647     0.9103 H       
  63 H63           -2.0799    -2.5566     0.0247 H       
  64 H64           -0.5446    -2.4504    -0.8696 H       
@<TRIPOS>BOND
   1    1    2 ar
   2    1    6 ar
   3    1   39 1
   4    2    3 ar
   5    2   37 1
   6    3    4 ar
   7    3   40 1
   8    4    5 ar
   9    4    7 1
  10    5    6 ar
  11    5   10 1
  12    6   22 1
  13    7    8 2
  14    7   41 1
  15    8    9 1
  16    8   11 1
  17    9   10 1
  18    9   21 2
  19   11   12 am
  20   11   13 2
  21   12   14 1
  22   12   42 1
  23   14   15 ar
  24   14   19 ar
  25   15   16 ar
  26   15   43 1
  27   16   17 ar
  28   16   44 1
  29   17   18 ar
  30   17   45 1
  31   18   19 ar
  32   18   20 1
  33   19   46 1
  34   20   23 2
  35   20   26 1
  36   22   31 1
  37   22   47 1
  38   22   48 1
  39   23   24 1
  40   23   49 1
  41   24   25 1
  42   24   27 1
  43   25   26 2
  44   25   30 1
  45   27   28 2
  46   27   50 1
  47   28   29 1
  48   28   51 1
  49   29   30 2
  50   29   52 1
  51   30   53 1
  52   31   32 1
  53   31   33 1
  54   32   36 1
  55   32   54 1
  56   32   55 1
  57   33   34 1
  58   33   56 1
  59   33   57 1
  60   34   35 1
  61   34   58 1
  62   34   59 1
  63   35   36 1
  64   36   60 1
  65   36   61 1
  66   37   38 1
  67   38   62 1
  68   38   63 1
  69   38   64 1

#	End of record

