#	Name: ASD01901101
#	Creating user name:	WinNT
#	Creation time:	15. 06. 2019 19:53

#	Modifying user name:	WinNT
#	Modification time:	15. 06. 2019 19:53

#	Program:	/corina/corina34_cracker 3.40 0067  02.08.2006

@<TRIPOS>MOLECULE
ASD01901101
  23   24    0    0    0
SMALL
NO_CHARGES


@<TRIPOS>ATOM
   1 C1            -0.0184     1.5028     0.0103 C.2     
   2 C2             0.0021    -0.0041     0.0020 C.3     
   3 C3            -2.1343    -0.7831    -1.0688 C.2     
   4 N4            -3.2969    -1.2154    -0.6633 N.2     
   5 C5            -3.3186    -1.2347     0.6776 C.2     
   6 C6            -2.1240    -0.7978     1.1199 C.2     
   7 N7            -1.3723    -0.5112     0.0124 N.pl3   
   8 C8             2.4725     1.5850    -0.0130 C.ar    
   9 C9             1.2453     2.2555     0.0023 C.ar    
  10 C10            1.2403     3.6588     0.0094 C.ar    
  11 C11            2.4551     4.3180     0.0009 C.ar    
  12 C12            3.6277     3.5799    -0.0142 C.ar    
  13 N13            3.6028     2.2592    -0.0206 N.ar    
  14 Cl14           5.1552     4.4048    -0.0255 Cl      
  15 O15           -1.0766     2.0947     0.0185 O.2     
  16 H16            0.5123    -0.3556    -0.8948 H       
  17 H17            0.5293    -0.3651     0.8851 H       
  18 H18           -1.8303    -0.6665    -2.0986 H       
  19 H19           -4.1486    -1.5458     1.2946 H       
  20 H20           -1.8179    -0.6932     2.1504 H       
  21 H21            2.4929     0.5052    -0.0142 H       
  22 H22            0.3113     4.2094     0.0209 H       
  23 H23            2.4900     5.3975     0.0056 H       
@<TRIPOS>BOND
   1    1    2 1
   2    1    9 1
   3    1   15 2
   4    2    7 1
   5    2   16 1
   6    2   17 1
   7    3    4 2
   8    3    7 1
   9    3   18 1
  10    4    5 1
  11    5    6 2
  12    5   19 1
  13    6    7 1
  14    6   20 1
  15    8    9 ar
  16    8   13 ar
  17    8   21 1
  18    9   10 ar
  19   10   11 ar
  20   10   22 1
  21   11   12 ar
  22   11   23 1
  23   12   13 ar
  24   12   14 1

#	End of record

