#	Name: ASD01900602
#	Creating user name:	WinNT
#	Creation time:	15. 06. 2019 19:52

#	Modifying user name:	WinNT
#	Modification time:	15. 06. 2019 19:52

#	Program:	/corina/corina34_cracker 3.40 0067  02.08.2006

@<TRIPOS>MOLECULE
ASD01900602
  40   43    0    0    0
SMALL
NO_CHARGES


@<TRIPOS>ATOM
   1 C1            -0.0165     1.3646     0.0095 C.2     
   2 N2             0.0021    -0.0041     0.0020 N.pl3   
   3 C3             1.3258    -0.3942    -0.0127 C.ar    
   4 C4             2.0842     0.7909    -0.0136 C.ar    
   5 N5             1.2098     1.8250     0.0003 N.2     
   6 C6             3.4808     0.7128    -0.0273 C.ar    
   7 C7             4.0942    -0.5076    -0.0398 C.ar    
   8 C8             3.3460    -1.6763    -0.0389 C.ar    
   9 C9             1.9680    -1.6247    -0.0251 C.ar    
  10 C10           -1.2387     2.1991     0.0201 C.ar    
  11 C11           -1.1268     3.5882     0.0271 C.ar    
  12 C12           -2.2789     4.3571     0.0365 C.ar    
  13 C13           -3.5059     3.7120     0.0386 C.ar    
  14 C14           -3.5452     2.3254     0.0312 C.ar    
  15 N15           -2.4329     1.6178     0.0173 N.ar    
  16 F16           -4.7386     1.6922     0.0332 F       
  17 S17            5.8537    -0.5988    -0.0576 S.o2    
  18 O18            6.1336    -1.8491    -0.6722 O.2     
  19 O19            6.2618     0.6215    -0.6606 O.2     
  20 C20            6.3231    -0.6314     1.6943 C.3     
  21 C21            7.8235    -0.7098     1.8110 C.ar    
  22 C22            8.5746     0.4509     1.8701 C.ar    
  23 C23            9.9518     0.3781     1.9777 C.ar    
  24 C24           10.5769    -0.8539     2.0260 C.ar    
  25 C25            9.8261    -2.0129     1.9664 C.ar    
  26 C26            8.4491    -1.9408     1.8646 C.ar    
  27 Cl27           7.7890     1.9977     1.8088 Cl      
  28 H28           -0.7708    -0.5902     0.0065 H       
  29 H29            4.0731     1.6159    -0.0285 H       
  30 H30            3.8465    -2.6333    -0.0492 H       
  31 H31            1.3911    -2.5376    -0.0242 H       
  32 H32           -0.1548     4.0589     0.0256 H       
  33 H33           -2.2225     5.4356     0.0424 H       
  34 H34           -4.4223     4.2834     0.0462 H       
  35 H35            5.9676     0.2760     2.1826 H       
  36 H36            5.8754    -1.5016     2.1743 H       
  37 H37           10.5386     1.2836     2.0236 H       
  38 H38           11.6521    -0.9109     2.1100 H       
  39 H39           10.3150    -2.9752     2.0035 H       
  40 H40            7.8627    -2.8467     1.8226 H       
@<TRIPOS>BOND
   1    1    2 1
   2    1    5 2
   3    1   10 1
   4    2    3 1
   5    2   28 1
   6    3    4 ar
   7    3    9 ar
   8    4    5 1
   9    4    6 ar
  10    6    7 ar
  11    6   29 1
  12    7    8 ar
  13    7   17 1
  14    8    9 ar
  15    8   30 1
  16    9   31 1
  17   10   11 ar
  18   10   15 ar
  19   11   12 ar
  20   11   32 1
  21   12   13 ar
  22   12   33 1
  23   13   14 ar
  24   13   34 1
  25   14   15 ar
  26   14   16 1
  27   17   18 2
  28   17   19 2
  29   17   20 1
  30   20   21 1
  31   20   35 1
  32   20   36 1
  33   21   22 ar
  34   21   26 ar
  35   22   23 ar
  36   22   27 1
  37   23   24 ar
  38   23   37 1
  39   24   25 ar
  40   24   38 1
  41   25   26 ar
  42   25   39 1
  43   26   40 1

#	End of record

