#	Name: ASD03540431
#	Creating user name:	WinNT
#	Creation time:	15. 06. 2019 20:43

#	Modifying user name:	WinNT
#	Modification time:	15. 06. 2019 20:43

#	Program:	/corina/corina34_cracker 3.40 0067  02.08.2006

@<TRIPOS>MOLECULE
ASD03540431
  71   74    0    0    0
SMALL
NO_CHARGES


@<TRIPOS>ATOM
   1 N1            -0.0161     1.3396     0.0094 N.am    
   2 C2             0.0021    -0.0041     0.0020 C.2     
   3 N3             1.1390    -0.7172    -0.0122 N.am    
   4 C4             2.3459    -0.1106    -0.0200 C.2     
   5 C5             2.3857     1.3633    -0.0129 C.ar    
   6 C6             3.5871     2.0607    -0.0197 C.ar    
   7 C7             3.5659     3.4548    -0.0121 C.ar    
   8 C8             2.3437     4.1382     0.0023 C.ar    
   9 C9             1.1622     3.4519     0.0094 C.ar    
  10 C10            1.1637     2.0628     0.0020 C.ar    
  11 C11            4.8337     4.2115    -0.0186 C.2     
  12 O12            5.8952     3.6190    -0.0307 O.2     
  13 N13            4.8141     5.5591    -0.0113 N.am    
  14 C14            6.0721     6.3100    -0.0178 C.3     
  15 C15            5.7753     7.7874    -0.0074 C.ar    
  16 C16            5.6494     8.4577     1.1954 C.ar    
  17 C17            5.3773     9.8120     1.2076 C.ar    
  18 C18            5.2304    10.4996     0.0116 C.ar    
  19 C19            5.3572     9.8248    -1.1939 C.ar    
  20 C20            5.6349     8.4716    -1.2007 C.ar    
  21 O21            4.9624    11.8319     0.0210 O.3     
  22 C22            4.8240    12.4747    -1.2477 C.3     
  23 O23            3.3721    -0.7626    -0.0320 O.2     
  24 O24           -1.0576    -0.5997     0.0089 O.2     
  25 C25           -1.2992     2.0466     0.0193 C.3     
  26 C26            1.0697    -2.1806    -0.0189 C.3     
  27 C27            1.0327    -2.6752    -1.4420 C.2     
  28 O28            1.0614    -1.8831    -2.3604 O.2     
  29 C29            0.9620    -4.1150    -1.7168 C.ar    
  30 C30            0.9275    -4.5770    -3.0391 C.ar    
  31 C31            0.8617    -5.9176    -3.2903 C.ar    
  32 C32            0.8283    -6.8254    -2.2341 C.ar    
  33 C33            0.8624    -6.3704    -0.9178 C.ar    
  34 C34            0.9346    -5.0319    -0.6577 C.ar    
  35 N35            0.7604    -8.1880    -2.4941 N.pl3   
  36 C36            0.7253    -9.1446    -1.3850 C.3     
  37 C37           -0.7277    -9.4084    -0.9850 C.3     
  38 C38            0.7240    -8.6688    -3.8775 C.3     
  39 C39            2.1521    -8.9053    -4.3730 C.3     
  40 H40            4.5271     1.5290    -0.0304 H       
  41 H41            2.3349     5.2181     0.0081 H       
  42 H42            0.2260     3.9901     0.0212 H       
  43 H43            3.9672     6.0319    -0.0017 H       
  44 H44            6.6548     6.0502     0.8660 H       
  45 H45            6.6399     6.0598    -0.9139 H       
  46 H46            5.7635     7.9218     2.1261 H       
  47 H47            5.2787    10.3350     2.1473 H       
  48 H48            5.2433    10.3579    -2.1262 H       
  49 H49            5.7384     7.9468    -2.1390 H       
  50 H50            4.0047    12.0150    -1.8005 H       
  51 H51            4.6120    13.5333    -1.0975 H       
  52 H52            5.7496    12.3662    -1.8129 H       
  53 H53           -2.1134     1.3219     0.0192 H       
  54 H54           -1.3652     2.6671     0.9130 H       
  55 H55           -1.3736     2.6768    -0.8669 H       
  56 H56            1.9463    -2.5881     0.4847 H       
  57 H57            0.1684    -2.5041     0.5017 H       
  58 H58            0.9526    -3.8739    -3.8584 H       
  59 H59            0.8350    -6.2746    -4.3092 H       
  60 H60            0.8364    -7.0776    -0.1019 H       
  61 H61            0.9659    -4.6802     0.3630 H       
  62 H62            1.1919   -10.0792    -1.6964 H       
  63 H63            1.2677    -8.7337    -0.5335 H       
  64 H64           -1.1943    -8.4738    -0.6737 H       
  65 H65           -1.2701    -9.8193    -1.8365 H       
  66 H66           -0.7539   -10.1201    -0.1598 H       
  67 H67            0.1643    -9.6030    -3.9228 H       
  68 H68            0.2392    -7.9238    -4.5084 H       
  69 H69            2.1249    -9.2630    -5.4023 H       
  70 H70            2.7118    -7.9711    -4.3277 H       
  71 H71            2.6369    -9.6503    -3.7421 H       
@<TRIPOS>BOND
   1    1    2 am
   2    1   10 1
   3    1   25 1
   4    2    3 am
   5    2   24 2
   6    3    4 am
   7    3   26 1
   8    4    5 1
   9    4   23 2
  10    5    6 ar
  11    5   10 ar
  12    6    7 ar
  13    6   40 1
  14    7    8 ar
  15    7   11 1
  16    8    9 ar
  17    8   41 1
  18    9   10 ar
  19    9   42 1
  20   11   12 2
  21   11   13 am
  22   13   14 1
  23   13   43 1
  24   14   15 1
  25   14   44 1
  26   14   45 1
  27   15   16 ar
  28   15   20 ar
  29   16   17 ar
  30   16   46 1
  31   17   18 ar
  32   17   47 1
  33   18   19 ar
  34   18   21 1
  35   19   20 ar
  36   19   48 1
  37   20   49 1
  38   21   22 1
  39   22   50 1
  40   22   51 1
  41   22   52 1
  42   25   53 1
  43   25   54 1
  44   25   55 1
  45   26   27 1
  46   26   56 1
  47   26   57 1
  48   27   28 2
  49   27   29 1
  50   29   30 ar
  51   29   34 ar
  52   30   31 ar
  53   30   58 1
  54   31   32 ar
  55   31   59 1
  56   32   33 ar
  57   32   35 1
  58   33   34 ar
  59   33   60 1
  60   34   61 1
  61   35   36 1
  62   35   38 1
  63   36   37 1
  64   36   62 1
  65   36   63 1
  66   37   64 1
  67   37   65 1
  68   37   66 1
  69   38   39 1
  70   38   67 1
  71   38   68 1
  72   39   69 1
  73   39   70 1
  74   39   71 1

#	End of record

