#	Name: ASD04590568
#	Creating user name:	WinNT
#	Creation time:	15. 06. 2019 20:51

#	Modifying user name:	WinNT
#	Modification time:	15. 06. 2019 20:51

#	Program:	/corina/corina34_cracker 3.40 0067  02.08.2006

@<TRIPOS>MOLECULE
ASD04590568
  58   63    0    0    0
SMALL
NO_CHARGES


@<TRIPOS>ATOM
   1 N1             2.2806     1.4217    -0.0353 N.ar    
   2 C2             2.3854     0.1076    -0.0539 C.ar    
   3 C3             1.2590    -0.6969    -0.0426 C.ar    
   4 C4             0.0099    -0.1046    -0.0074 C.ar    
   5 C5            -0.0711     1.2778     0.0099 C.ar    
   6 C6             1.1021     2.0243    -0.0052 C.ar    
   7 N7             1.0371     3.4147     0.0120 N.pl3   
   8 C8             2.2000     4.1615     0.1090 C.ar    
   9 N9             2.1222     5.4790     0.0155 N.ar    
  10 C10            3.2161     6.2297     0.1038 C.ar    
  11 C11            4.4564     5.5892     0.2987 C.ar    
  12 C12            4.4884     4.2014     0.3910 C.ar    
  13 N13            3.3518     3.5308     0.2978 N.ar    
  14 N14            3.4321     7.5842     0.0444 N.pl3   
  15 C15            4.7789     7.8663     0.1939 C.ar    
  16 C16            5.4686     6.6515     0.3569 C.ar    
  17 C17            5.5076     9.0485     0.2093 C.ar    
  18 N18            6.8147     9.0281     0.3726 N.ar    
  19 C19            7.4923     7.9044     0.5283 C.ar    
  20 C20            6.8522     6.6833     0.5273 C.ar    
  21 C21            2.3845     8.5896    -0.1506 C.3     
  22 C22            1.3693     8.4962     0.9903 C.3     
  23 C23            0.2752     9.5462     0.7867 C.3     
  24 C24           -0.4315     9.2943    -0.5467 C.3     
  25 C25            0.5836     9.3877    -1.6876 C.3     
  26 C26            1.6777     8.3377    -1.4840 C.3     
  27 C27           -1.5256    10.3443    -0.7503 C.3     
  28 C28            1.4258    -2.1921    -0.0744 C.3     
  29 N29            0.1888    -2.8533     0.3552 N.3     
  30 C30           -0.9568    -2.3538    -0.4213 C.3     
  31 C31           -1.2549    -0.9187     0.0171 C.3     
  32 H32            3.3643    -0.3479    -0.0785 H       
  33 H33           -1.0324     1.7695     0.0343 H       
  34 H34            0.1775     3.8608    -0.0440 H       
  35 H35            5.4232     3.6814     0.5399 H       
  36 H36            4.9983     9.9929     0.0859 H       
  37 H37            8.5637     7.9432     0.6583 H       
  38 H38            7.4120     5.7686     0.6547 H       
  39 H39            2.8317     9.5836    -0.1585 H       
  40 H40            0.9220     7.5022     0.9983 H       
  41 H41            1.8728     8.6756     1.9403 H       
  42 H42           -0.4480     9.4796     1.5995 H       
  43 H43            0.7225    10.5401     0.7788 H       
  44 H44           -0.8788     8.3003    -0.5388 H       
  45 H45            0.0801     9.2083    -2.6375 H       
  46 H46            1.0309    10.3817    -1.6955 H       
  47 H47            2.4009     8.4043    -2.2968 H       
  48 H48            1.2304     7.3437    -1.4761 H       
  49 H49           -1.0783    11.3382    -0.7582 H       
  50 H50           -2.0291    10.1648    -1.7002 H       
  51 H51           -2.2488    10.2777     0.0625 H       
  52 H52            1.6688    -2.5063    -1.0895 H       
  53 H53            2.2384    -2.4786     0.5931 H       
  54 H54            0.2689    -3.8561     0.2772 H       
  55 H55           -0.7133    -2.3688    -1.4836 H       
  56 H56           -1.8277    -2.9819    -0.2339 H       
  57 H57           -1.6616    -0.9259     1.0283 H       
  58 H58           -1.9836    -0.4764    -0.6622 H       
@<TRIPOS>BOND
   1    1    2 ar
   2    1    6 ar
   3    2    3 ar
   4    2   32 1
   5    3    4 ar
   6    3   28 1
   7    4    5 ar
   8    4   31 1
   9    5    6 ar
  10    5   33 1
  11    6    7 1
  12    7    8 1
  13    7   34 1
  14    8    9 ar
  15    8   13 ar
  16    9   10 ar
  17   10   11 ar
  18   10   14 1
  19   11   12 ar
  20   11   16 1
  21   12   13 ar
  22   12   35 1
  23   14   15 1
  24   14   21 1
  25   15   16 ar
  26   15   17 ar
  27   16   20 ar
  28   17   18 ar
  29   17   36 1
  30   18   19 ar
  31   19   20 ar
  32   19   37 1
  33   20   38 1
  34   21   22 1
  35   21   26 1
  36   21   39 1
  37   22   23 1
  38   22   40 1
  39   22   41 1
  40   23   24 1
  41   23   42 1
  42   23   43 1
  43   24   25 1
  44   24   27 1
  45   24   44 1
  46   25   26 1
  47   25   45 1
  48   25   46 1
  49   26   47 1
  50   26   48 1
  51   27   49 1
  52   27   50 1
  53   27   51 1
  54   28   29 1
  55   28   52 1
  56   28   53 1
  57   29   30 1
  58   29   54 1
  59   30   31 1
  60   30   55 1
  61   30   56 1
  62   31   57 1
  63   31   58 1

#	End of record

