#	Name: ASD01885751
#	Creating user name:	WinNT
#	Creation time:	15. 06. 2019 19:50

#	Modifying user name:	WinNT
#	Modification time:	15. 06. 2019 19:50

#	Program:	/corina/corina34_cracker 3.40 0067  02.08.2006

@<TRIPOS>MOLECULE
ASD01885751
  65   68    0    0    0
SMALL
NO_CHARGES


@<TRIPOS>ATOM
   1 C1            -0.0160     1.3291     0.0093 C.ar    
   2 C2            -1.2522     2.0239     0.0189 C.ar    
   3 C3            -2.4598     1.2808     0.0210 C.ar    
   4 C4            -2.3703    -0.1044     0.0135 C.ar    
   5 C5            -1.1104    -0.7137     0.0043 C.ar    
   6 N6             0.0021    -0.0041     0.0020 N.ar    
   7 C7             1.1365     3.4282     0.0092 C.ar    
   8 C8            -0.0805     4.1063     0.0248 C.ar    
   9 C9            -1.2606     3.4245     0.0266 C.ar    
  10 C10           -3.7750     1.9611     0.0313 C.ar    
  11 C11           -1.0235    -2.1940    -0.0038 C.2     
  12 C12            2.4228     4.2133     0.0076 C.3     
  13 N13            2.8509     4.4547     1.3920 N.3     
  14 C14            1.1823     2.0683     0.0019 C.ar    
  15 N15            0.1812    -2.7982    -0.0132 N.am    
  16 O16           -2.0383    -2.8621    -0.0018 O.2     
  17 C17            4.2115     5.0057     1.4336 C.3     
  18 C18            4.5608     5.3925     2.8738 C.3     
  19 C19            4.4386     4.1655     3.7700 C.3     
  20 C20            3.0451     3.5569     3.6625 C.3     
  21 C21            2.7457     3.2306     2.1964 C.3     
  22 C22           -4.7577     1.5985    -0.8903 C.ar    
  23 C23           -5.9812     2.2347    -0.8763 C.ar    
  24 C24           -6.2354     3.2328     0.0512 C.ar    
  25 C25           -5.2623     3.5968     0.9685 C.ar    
  26 C26           -4.0376     2.9626     0.9663 C.ar    
  27 F27           -7.4355     3.8531     0.0609 F       
  28 C28            5.5078     3.1224     3.3971 C.3     
  29 C29            6.3538     2.9832     4.6836 C.3     
  30 O30            5.4739     3.3986     5.7515 O.3     
  31 C31            4.7498     4.5364     5.2310 C.3     
  32 H32           -3.2662    -0.7075     0.0151 H       
  33 H33           -0.0888     5.1862     0.0355 H       
  34 H34           -2.1976     3.9615     0.0335 H       
  35 H35            3.1928     3.6481    -0.5175 H       
  36 H36            2.2656     5.1673    -0.4957 H       
  37 H37            2.1340     1.5579    -0.0092 H       
  38 H38            0.9913    -2.2648    -0.0147 H       
  39 H39            0.2380    -3.7665    -0.0184 H       
  40 H40            4.9181     4.2563     1.0770 H       
  41 H41            4.2657     5.8886     0.7968 H       
  42 H42            5.5826     5.7701     2.9113 H       
  43 H43            3.8742     6.1653     3.2195 H       
  44 H44            3.0007     2.6430     4.2549 H       
  45 H45            2.3079     4.2683     4.0347 H       
  46 H46            1.7369     2.8263     2.1127 H       
  47 H47            3.4635     2.4947     1.8339 H       
  48 H48           -4.5605     0.8212    -1.6137 H       
  49 H49           -6.7425     1.9551    -1.5896 H       
  50 H50           -5.4648     4.3756     1.6888 H       
  51 H51           -3.2799     3.2470     1.6815 H       
  52 H52            5.0413     2.1711     3.1410 H       
  53 H53            6.1224     3.4827     2.5721 H       
  54 H54            6.6601     1.9468     4.8259 H       
  55 H55            7.2266     3.6345     4.6361 H       
  56 H56            5.3695     5.4321     5.2718 H       
  57 H57            3.8260     4.6867     5.7898 H       
  58 C58           13.2284    13.0724    11.6950 C.3     
  59 C59           13.2492    11.5426    11.6866 C.3     
  60 H60           14.2510    13.4497    11.6872 H       
  61 H61           12.7012    13.4335    10.8119 H       
  62 H62           12.7182    13.4239    12.5918 H       
  63 H63           13.7764    11.1815    12.5696 H       
  64 H64           12.2266    11.1653    11.6943 H       
  65 H65           13.7594    11.1910    10.7898 H       
@<TRIPOS>BOND
   1    1    6 ar
   2    1   14 ar
   3    1    2 ar
   4    2    3 ar
   5    2    9 ar
   6    3   10 1
   7    3    4 ar
   8    4    5 ar
   9    4   32 1
  10    5   11 1
  11    5    6 ar
  12    7   12 1
  13    7    8 ar
  14    7   14 ar
  15    8    9 ar
  16    8   33 1
  17    9   34 1
  18   10   22 ar
  19   10   26 ar
  20   11   15 am
  21   11   16 2
  22   12   13 1
  23   12   35 1
  24   12   36 1
  25   13   17 1
  26   13   21 1
  27   14   37 1
  28   15   38 1
  29   15   39 1
  30   17   18 1
  31   17   40 1
  32   17   41 1
  33   18   19 1
  34   18   42 1
  35   18   43 1
  36   19   20 1
  37   19   28 1
  38   19   31 1
  39   20   21 1
  40   20   44 1
  41   20   45 1
  42   21   46 1
  43   21   47 1
  44   22   23 ar
  45   22   48 1
  46   23   24 ar
  47   23   49 1
  48   24   25 ar
  49   24   27 1
  50   25   26 ar
  51   25   50 1
  52   26   51 1
  53   28   29 1
  54   28   52 1
  55   28   53 1
  56   29   30 1
  57   29   54 1
  58   29   55 1
  59   30   31 1
  60   31   56 1
  61   31   57 1
  62   58   59 1
  63   58   60 1
  64   58   61 1
  65   58   62 1
  66   59   63 1
  67   59   64 1
  68   59   65 1

#	End of record

