#	Name: ASD01478041
#	Creating user name:	WinNT
#	Creation time:	15. 06. 2019 19:21

#	Modifying user name:	WinNT
#	Modification time:	15. 06. 2019 19:21

#	Program:	/corina/corina34_cracker 3.40 0067  02.08.2006

@<TRIPOS>MOLECULE
ASD01478041
  80   83    0    0    0
SMALL
NO_CHARGES


@<TRIPOS>ATOM
   1 C1             0.1555     1.4698     1.2761 C.3     
   2 C2            11.9146     7.3682     4.7553 C.3     
   3 C3             9.9033     7.1284     3.4931 C.2     
   4 O4            11.2229     7.3953     3.4790 O.3     
   5 N5             9.2017     7.1371     2.3424 N.am    
   6 O6             9.3450     6.8797     4.5432 O.2     
   7 C7             6.9897     8.1278     2.6695 C.3     
   8 C8             7.7659     6.8467     2.3577 C.3     
   9 C9             7.3390     6.3121     0.9892 C.3     
  10 C10            5.8687     5.8920     1.0417 C.3     
  11 N11            5.5001     5.2459    -0.2204 N.am    
  12 S12            5.5612     3.5966    -0.3550 S.o2    
  13 C13            3.9826     2.9755     0.1213 C.ar    
  14 C14            2.9900     2.8107    -0.8266 C.ar    
  15 C15            1.7514     2.3238    -0.4528 C.ar    
  16 C16            1.5056     2.0010     0.8687 C.ar    
  17 C17            2.4983     2.1659     1.8165 C.ar    
  18 C18            3.7385     2.6477     1.4419 C.ar    
  19 O19            5.7031     3.3120    -1.7400 O.2     
  20 O20            6.4827     3.1475     0.6291 O.2     
  21 C21            5.0773     6.0590    -1.3634 C.3     
  22 C22            3.7750     6.7845    -1.0192 C.3     
  23 C23            3.4129     7.7473    -2.1519 C.3     
  24 C24            2.6522     5.7605    -0.8419 C.3     
  25 O25            7.5075     7.3342     0.0048 O.3     
  26 C26           13.3942     6.9419     4.5512 C.3     
  27 C27           14.1438     7.8006     5.5740 C.3     
  28 C28           13.4258     9.1704     5.4188 C.3     
  29 C29           11.9515     8.7896     5.3706 C.3     
  30 O30           15.5172     8.0397     5.3219 O.3     
  31 C31           16.0672     8.9279     6.3123 C.3     
  32 C32           15.2759    10.2302     6.4002 C.3     
  33 O33           13.8603     9.9827     6.4921 O.3     
  34 O34            0.1547     0.0442     1.1768 O.3     
  35 C35            7.3186     8.5869     4.0667 C.ar    
  36 C36            8.3763     9.4511     4.2793 C.ar    
  37 C37            8.6780     9.8722     5.5609 C.ar    
  38 C38            7.9217     9.4295     6.6299 C.ar    
  39 C39            6.8634     8.5660     6.4172 C.ar    
  40 C40            6.5590     8.1483     5.1351 C.ar    
  41 H41           -0.0548     1.7625     2.3048 H       
  42 H42           -0.6102     1.8802     0.6178 H       
  43 H43           11.4167     6.6776     5.4359 H       
  44 H44            9.6474     7.3356     1.5040 H       
  45 H45            7.2686     8.9041     1.9569 H       
  46 H46            5.9201     7.9322     2.5937 H       
  47 H47            7.5546     6.0988     3.1220 H       
  48 H48            7.9538     5.4509     0.7276 H       
  49 H49            5.7197     5.1931     1.8648 H       
  50 H50            5.2446     6.7723     1.1951 H       
  51 H51            3.1819     3.0629    -1.8590 H       
  52 H52            0.9756     2.1957    -1.1932 H       
  53 H53            2.3062     1.9140     2.8490 H       
  54 H54            4.5141     2.7765     2.1824 H       
  55 H55            5.8510     6.7912    -1.5944 H       
  56 H56            4.9169     5.4149    -2.2279 H       
  57 H57            3.9050     7.3451    -0.0935 H       
  58 H58            3.2828     7.1868    -3.0776 H       
  59 H59            2.4851     8.2642    -1.9067 H       
  60 H60            4.2128     8.4769    -2.2782 H       
  61 H61            2.9132     5.0704    -0.0395 H       
  62 H62            1.7259     6.2768    -0.5900 H       
  63 H63            2.5175     5.2046    -1.7697 H       
  64 H64            6.9233     8.0955     0.1244 H       
  65 H65           13.5236     5.8818     4.7691 H       
  66 H66           13.7254     7.1716     3.5384 H       
  67 H67           13.9972     7.4062     6.5795 H       
  68 H68           13.7166     9.6318     4.4751 H       
  69 H69           11.4014     9.4883     4.7403 H       
  70 H70           11.5318     8.7765     6.3765 H       
  71 H71           16.0481     8.4336     7.2836 H       
  72 H72           17.1005     9.1563     6.0510 H       
  73 H73           15.5986    10.7842     7.2816 H       
  74 H74           15.4758    10.8290     5.5116 H       
  75 H75           -0.6848    -0.3668     1.4245 H       
  76 H76            8.9673     9.7971     3.4441 H       
  77 H77            9.5049    10.5469     5.7271 H       
  78 H78            8.1578     9.7579     7.6313 H       
  79 H79            6.2726     8.2198     7.2525 H       
  80 H80            5.7298     7.4766     4.9685 H       
@<TRIPOS>BOND
   1    1   34 1
   2    1   16 1
   3    1   41 1
   4    1   42 1
   5    2    4 1
   6    2   26 1
   7    2   29 1
   8    2   43 1
   9    3    4 1
  10    3    5 am
  11    3    6 2
  12    5    8 1
  13    5   44 1
  14    7    8 1
  15    7   35 1
  16    7   45 1
  17    7   46 1
  18    8    9 1
  19    8   47 1
  20    9   10 1
  21    9   25 1
  22    9   48 1
  23   10   11 1
  24   10   49 1
  25   10   50 1
  26   11   12 am
  27   11   21 1
  28   12   13 1
  29   12   19 2
  30   12   20 2
  31   13   14 ar
  32   13   18 ar
  33   14   15 ar
  34   14   51 1
  35   15   16 ar
  36   15   52 1
  37   16   17 ar
  38   17   18 ar
  39   17   53 1
  40   18   54 1
  41   21   22 1
  42   21   55 1
  43   21   56 1
  44   22   23 1
  45   22   24 1
  46   22   57 1
  47   23   58 1
  48   23   59 1
  49   23   60 1
  50   24   61 1
  51   24   62 1
  52   24   63 1
  53   25   64 1
  54   26   27 1
  55   26   65 1
  56   26   66 1
  57   27   28 1
  58   27   30 1
  59   27   67 1
  60   28   29 1
  61   28   33 1
  62   28   68 1
  63   29   69 1
  64   29   70 1
  65   30   31 1
  66   31   32 1
  67   31   71 1
  68   31   72 1
  69   32   33 1
  70   32   73 1
  71   32   74 1
  72   34   75 1
  73   35   36 ar
  74   35   40 ar
  75   36   37 ar
  76   36   76 1
  77   37   38 ar
  78   37   77 1
  79   38   39 ar
  80   38   78 1
  81   39   40 ar
  82   39   79 1
  83   40   80 1

#	End of record

