#	Name: ASD01918218
#	Creating user name:	WinNT
#	Creation time:	15. 06. 2019 20:11

#	Modifying user name:	WinNT
#	Modification time:	15. 06. 2019 20:11

#	Program:	/corina/corina34_cracker 3.40 0067  02.08.2006

@<TRIPOS>MOLECULE
ASD01918218
  40   43    0    0    0
SMALL
NO_CHARGES


@<TRIPOS>ATOM
   1 C1             0.0527     1.3231    -0.0358 C.ar    
   2 C2             0.1944    -0.0670    -0.2758 C.ar    
   3 C3             1.4739    -0.6582    -0.1388 C.ar    
   4 N4             2.5232     0.0932     0.2124 N.ar    
   5 C5             2.4066     1.3801     0.4379 C.ar    
   6 C6             1.1879     2.0377     0.3247 C.ar    
   7 C7            -1.2612     1.9923    -0.1708 C.ar    
   8 C8            -2.2533     1.7865     0.7882 C.ar    
   9 C9            -3.4753     2.4125     0.6581 C.ar    
  10 C10           -3.7187     3.2445    -0.4233 C.ar    
  11 C11           -2.7363     3.4522    -1.3786 C.ar    
  12 C12           -1.5091     2.8353    -1.2545 C.ar    
  13 C13           -0.9018    -0.8586    -0.6429 C.ar    
  14 C14           -0.7269    -2.1914    -0.8649 C.ar    
  15 C15            0.5314    -2.7784    -0.7313 C.ar    
  16 C16            1.6184    -2.0355    -0.3759 C.ar    
  17 S17            1.0827     3.7685     0.6377 S.o2    
  18 C18            0.0918     3.9785     2.0795 C.ar    
  19 O19            2.3932     4.1936     0.9861 O.2     
  20 O20            0.3454     4.3273    -0.4408 O.2     
  21 C21           -1.2524     4.2773     1.9560 C.ar    
  22 C22            0.6579     3.8387     3.3326 C.ar    
  23 C23           -0.1177     4.0026     4.4653 C.ar    
  24 C24           -1.4621     4.3069     4.3452 C.ar    
  25 C25           -2.0314     4.4419     3.0877 C.ar    
  26 F26           -3.3449     4.7344     2.9678 F       
  27 F27            0.6755    -4.1025    -0.9578 F       
  28 F28           -2.2207     4.4671     5.4516 F       
  29 F29           -4.9177     3.8548    -0.5467 F       
  30 H30            3.2832     1.9449     0.7191 H       
  31 H31           -2.0648     1.1378     1.6308 H       
  32 H32           -4.2440     2.2538     1.4000 H       
  33 H33           -2.9309     4.1011    -2.2197 H       
  34 H34           -0.7428     3.0010    -1.9973 H       
  35 H35           -1.8805    -0.4146    -0.7489 H       
  36 H36           -1.5726    -2.8007    -1.1475 H       
  37 H37            2.5863    -2.5042    -0.2764 H       
  38 H38           -1.6944     4.3826     0.9762 H       
  39 H39            1.7072     3.6009     3.4270 H       
  40 H40            0.3258     3.8928     5.4439 H       
@<TRIPOS>BOND
   1    1    2 ar
   2    1    6 ar
   3    1    7 1
   4    2    3 ar
   5    2   13 ar
   6    3    4 ar
   7    3   16 ar
   8    4    5 ar
   9    5    6 ar
  10    5   30 1
  11    6   17 1
  12    7    8 ar
  13    7   12 ar
  14    8    9 ar
  15    8   31 1
  16    9   10 ar
  17    9   32 1
  18   10   11 ar
  19   10   29 1
  20   11   12 ar
  21   11   33 1
  22   12   34 1
  23   13   14 ar
  24   13   35 1
  25   14   15 ar
  26   14   36 1
  27   15   16 ar
  28   15   27 1
  29   16   37 1
  30   17   18 1
  31   17   19 2
  32   17   20 2
  33   18   22 ar
  34   18   21 ar
  35   21   25 ar
  36   21   38 1
  37   22   23 ar
  38   22   39 1
  39   23   24 ar
  40   23   40 1
  41   24   25 ar
  42   24   28 1
  43   25   26 1

#	End of record

