#	Name: ASD01916794
#	Creating user name:	WinNT
#	Creation time:	15. 06. 2019 20:08

#	Modifying user name:	WinNT
#	Modification time:	15. 06. 2019 20:08

#	Program:	/corina/corina34_cracker 3.40 0067  02.08.2006

@<TRIPOS>MOLECULE
ASD01916794
  67   71    0    0    0
SMALL
NO_CHARGES


@<TRIPOS>ATOM
   1 C1            -0.0167     1.3810     0.0096 C.ar    
   2 C2             0.0021    -0.0041     0.0020 C.ar    
   3 C3            -1.1861    -0.7171     0.0091 C.ar    
   4 C4            -2.3933    -0.0497     0.0237 C.ar    
   5 C5            -2.4168     1.3437     0.0319 C.ar    
   6 C6            -1.2198     2.0567     0.0305 C.ar    
   7 C7            -3.7131     2.0660     0.0471 C.2     
   8 N8            -4.9251     1.4950     0.0543 N.2     
   9 N9            -3.8624     3.3724     0.0616 N.2     
  10 N10           -5.2446     3.6207     0.0724 N.pl3   
  11 C11           -5.8491     2.4191     0.0674 C.2     
  12 C12           -7.3369     2.1795     0.0747 C.3     
  13 C13           -5.8994     4.9311     0.0899 C.3     
  14 C14           -6.1330     5.3949    -1.3248 C.2     
  15 O15           -5.7865     4.6994    -2.2560 O.2     
  16 N16           -6.7268     6.5827    -1.5551 N.am    
  17 C17           -6.9642     7.0543    -2.9279 C.3     
  18 C18           -8.4352     7.4649    -3.0540 C.3     
  19 N19           -8.7620     8.4336    -1.9991 N.3     
  20 C20           -8.6181     7.8369    -0.6645 C.3     
  21 C21           -7.1602     7.4388    -0.4405 C.3     
  22 C22          -10.0336     8.9503    -2.1770 C.ar    
  23 N23          -10.4956     9.8429    -1.3136 N.ar    
  24 N24          -10.7580     8.5447    -3.2095 N.ar    
  25 C25          -11.7064    10.3564    -1.4547 C.ar    
  26 C26          -12.4932     9.9498    -2.5209 C.ar    
  27 C27          -11.9768     9.0187    -3.4083 C.ar    
  28 C28           -7.7334     1.3953    -1.1778 C.3     
  29 F29            1.1822    -0.6616    -0.0128 F       
  30 C30           -9.2439     1.1521    -1.1704 C.3     
  31 C31           -9.6252     0.3500     0.0754 C.3     
  32 C32           -9.2288     1.1342     1.3279 C.3     
  33 C33           -7.7183     1.3774     1.3206 C.3     
  34 C34           -6.9855     0.0344     1.3065 C.3     
  35 C35            1.2786     2.1512     0.0014 C.3     
  36 H36           -1.1669    -1.7969     0.0027 H       
  37 H37           -3.3189    -0.6062     0.0285 H       
  38 H38           -1.2336     3.1365     0.0372 H       
  39 H39           -7.8590     3.1363     0.0847 H       
  40 H40           -6.8547     4.8530     0.6091 H       
  41 H41           -5.2625     5.6487     0.6071 H       
  42 H42           -6.3254     7.9126    -3.1358 H       
  43 H43           -6.7461     6.2525    -3.6334 H       
  44 H44           -8.6035     7.9196    -4.0302 H       
  45 H45           -9.0689     6.5844    -2.9483 H       
  46 H46           -8.9191     8.5614     0.0922 H       
  47 H47           -9.2493     6.9512    -0.5921 H       
  48 H48           -7.0698     6.8934     0.4989 H       
  49 H49           -6.5371     8.3327    -0.4095 H       
  50 H50          -12.0776    11.0833    -0.7474 H       
  51 H51          -13.4856    10.3528    -2.6594 H       
  52 H52          -12.5641     8.6811    -4.2494 H       
  53 H53           -7.4617     1.9668    -2.0654 H       
  54 H54           -7.2113     0.4385    -1.1878 H       
  55 H55           -9.7659     2.1089    -1.1604 H       
  56 H56           -9.5263     0.5934    -2.0628 H       
  57 H57          -10.7014     0.1767     0.0807 H       
  58 H58           -9.1032    -0.6068     0.0654 H       
  59 H59           -9.7508     2.0910     1.3379 H       
  60 H60           -9.5005     0.5628     2.2155 H       
  61 H61           -7.4359     1.9361     2.2129 H       
  62 H62           -7.2679    -0.5243     0.4142 H       
  63 H63           -5.9094     0.2077     1.3013 H       
  64 H64           -7.2572    -0.5370     2.1941 H       
  65 H65            1.5811     2.3424    -1.0282 H       
  66 H66            1.1411     3.0991     0.5217 H       
  67 H67            2.0506     1.5691     0.5048 H       
@<TRIPOS>BOND
   1    1    2 ar
   2    1   35 1
   3    1    6 ar
   4    2    3 ar
   5    2   29 1
   6    3    4 ar
   7    3   36 1
   8    4    5 ar
   9    4   37 1
  10    5    6 ar
  11    5    7 1
  12    6   38 1
  13    7    8 1
  14    7    9 2
  15    8   11 2
  16    9   10 1
  17   10   11 1
  18   10   13 1
  19   11   12 1
  20   12   28 1
  21   12   33 1
  22   12   39 1
  23   13   14 1
  24   13   40 1
  25   13   41 1
  26   14   15 2
  27   14   16 am
  28   16   17 1
  29   16   21 1
  30   17   18 1
  31   17   42 1
  32   17   43 1
  33   18   19 1
  34   18   44 1
  35   18   45 1
  36   19   20 1
  37   19   22 1
  38   20   21 1
  39   20   46 1
  40   20   47 1
  41   21   48 1
  42   21   49 1
  43   22   23 ar
  44   22   24 ar
  45   23   25 ar
  46   24   27 ar
  47   25   26 ar
  48   25   50 1
  49   26   27 ar
  50   26   51 1
  51   27   52 1
  52   28   30 1
  53   28   53 1
  54   28   54 1
  55   30   31 1
  56   30   55 1
  57   30   56 1
  58   31   32 1
  59   31   57 1
  60   31   58 1
  61   32   33 1
  62   32   59 1
  63   32   60 1
  64   33   34 1
  65   33   61 1
  66   34   62 1
  67   34   63 1
  68   34   64 1
  69   35   65 1
  70   35   66 1
  71   35   67 1

#	End of record

