#	Name: ASD09116254
#	Creating user name:	WinNT
#	Creation time:	15. 06. 2019 21:21

#	Modifying user name:	WinNT
#	Modification time:	15. 06. 2019 21:21

#	Program:	/corina/corina34_cracker 3.40 0067  02.08.2006

@<TRIPOS>MOLECULE
ASD09116254
  70   75    0    0    0
SMALL
NO_CHARGES


@<TRIPOS>ATOM
   1 N1            -0.0297     1.4183     0.1449 N.2     
   2 N2            -0.0209     0.0193     0.2659 N.pl3   
   3 C3             1.2224     1.8078     0.1156 C.2     
   4 N4             2.0155     0.7342     0.2112 N.2     
   5 C5             1.2801    -0.3531     0.3026 C.2     
   6 N6             1.6572     3.1282     0.0023 N.pl3   
   7 C7             3.0221     3.4264     0.0967 C.ar    
   8 C8             3.5417     4.5213    -0.5806 C.ar    
   9 C9             5.7225     4.0188     0.2822 C.ar    
  10 C10            3.8549     2.6300     0.8725 C.ar    
  11 C11           -1.1336    -0.8210     0.3350 C.ar    
  12 N12           -1.0319    -2.0870    -0.0414 N.ar    
  13 N13           -2.0277    -2.8993    -0.0069 N.ar    
  14 C14           -3.2233    -2.5139     0.4094 C.ar    
  15 C15           -3.4199    -1.2008     0.8465 C.ar    
  16 C16           -2.3530    -0.3282     0.8066 C.ar    
  17 C17           -4.3851    -3.4327     0.3991 C.ar    
  18 C18           -5.5816    -3.0008    -0.1753 C.ar    
  19 C19           -5.6440    -1.6414    -0.8160 C.3     
  20 C20           -5.7427    -0.5360     0.2318 C.3     
  21 C21           -4.7619    -0.7849     1.3746 C.3     
  22 C22           -4.2989    -4.7051     0.9532 C.ar    
  23 C23           -5.4074    -5.5295     0.9484 C.ar    
  24 C24           -6.5971    -5.0899     0.3968 C.ar    
  25 C25           -6.6847    -3.8272    -0.1635 C.ar    
  26 N26            1.7524    -1.6469     0.4161 N.pl3   
  27 C27            4.8883     4.8166    -0.4877 C.ar    
  28 N28            7.0881     4.3189     0.3765 N.3     
  29 C29            7.7485     4.1809    -0.9279 C.3     
  30 C30            5.2019     2.9250     0.9657 C.ar    
  31 C31            9.2575     4.3729    -0.7600 C.3     
  32 C32            7.2947     5.6603     0.9370 C.3     
  33 C33            8.7901     5.8965     1.1606 C.3     
  34 C34            9.5283     5.7614    -0.1741 C.3     
  35 N35           10.9713     5.9294     0.0438 N.3     
  36 F36            6.0137     2.1475     1.7152 F       
  37 C37           11.7123     5.8056    -1.2186 C.3     
  38 C38           11.2589     7.2121     0.6995 C.3     
  39 H39            1.0141     3.8400    -0.1418 H       
  40 H40            2.8931     5.1424    -1.1806 H       
  41 H41            3.4499     1.7809     1.4029 H       
  42 H42           -2.4581     0.6999     1.1201 H       
  43 H43           -4.7454    -1.4872    -1.4134 H       
  44 H44           -6.5164    -1.5939    -1.4676 H       
  45 H45           -5.5142     0.4222    -0.2348 H       
  46 H46           -6.7572    -0.5079     0.6293 H       
  47 H47           -5.1538    -1.5726     2.0180 H       
  48 H48           -4.6502     0.1299     1.9567 H       
  49 H49           -3.3701    -5.0470     1.3855 H       
  50 H50           -5.3448    -6.5193     1.3759 H       
  51 H51           -7.4628    -5.7357     0.4032 H       
  52 H52           -7.6170    -3.4897    -0.5915 H       
  53 H53            2.7076    -1.8147     0.4336 H       
  54 H54            1.1287    -2.3872     0.4783 H       
  55 H55            5.2917     5.6685    -1.0148 H       
  56 H56            7.5515     3.1878    -1.3315 H       
  57 H57            7.3605     4.9347    -1.6129 H       
  58 H58            9.6485     3.6109    -0.0858 H       
  59 H59            9.7456     4.2860    -1.7307 H       
  60 H60            6.9088     6.4072     0.2432 H       
  61 H61            6.7680     5.7417     1.8879 H       
  62 H62            8.9443     6.8981     1.5620 H       
  63 H63            9.1738     5.1584     1.8649 H       
  64 H64            9.1723     6.5246    -0.8662 H       
  65 H65           11.3727     6.5715    -1.9158 H       
  66 H66           12.7779     5.9341    -1.0285 H       
  67 H67           11.5362     4.8194    -1.6481 H       
  68 H68           10.7532     7.2483     1.6644 H       
  69 H69           12.3341     7.3107     0.8489 H       
  70 H70           10.9029     8.0289     0.0717 H       
@<TRIPOS>BOND
   1    1    2 1
   2    1    3 2
   3    2   11 1
   4    2    5 1
   5    3    4 1
   6    3    6 1
   7    4    5 2
   8    5   26 1
   9    6    7 1
  10    6   39 1
  11    7    8 ar
  12    7   10 ar
  13    8   27 ar
  14    8   40 1
  15    9   30 ar
  16    9   28 1
  17    9   27 ar
  18   10   30 ar
  19   10   41 1
  20   11   12 ar
  21   11   16 ar
  22   12   13 ar
  23   13   14 ar
  24   14   15 ar
  25   14   17 1
  26   15   16 ar
  27   15   21 1
  28   16   42 1
  29   17   18 ar
  30   17   22 ar
  31   18   19 1
  32   18   25 ar
  33   19   20 1
  34   19   43 1
  35   19   44 1
  36   20   21 1
  37   20   45 1
  38   20   46 1
  39   21   47 1
  40   21   48 1
  41   22   23 ar
  42   22   49 1
  43   23   24 ar
  44   23   50 1
  45   24   25 ar
  46   24   51 1
  47   25   52 1
  48   26   53 1
  49   26   54 1
  50   27   55 1
  51   28   32 1
  52   28   29 1
  53   29   31 1
  54   29   56 1
  55   29   57 1
  56   30   36 1
  57   31   34 1
  58   31   58 1
  59   31   59 1
  60   32   33 1
  61   32   60 1
  62   32   61 1
  63   33   34 1
  64   33   62 1
  65   33   63 1
  66   34   35 1
  67   34   64 1
  68   35   37 1
  69   35   38 1
  70   37   65 1
  71   37   66 1
  72   37   67 1
  73   38   68 1
  74   38   69 1
  75   38   70 1

#	End of record

