#	Name: ASD08150944
#	Creating user name:	WinNT
#	Creation time:	15. 06. 2019 21:16

#	Modifying user name:	WinNT
#	Modification time:	15. 06. 2019 21:16

#	Program:	/corina/corina34_cracker 3.40 0067  02.08.2006

@<TRIPOS>MOLECULE
ASD08150944
  66   71    0    0    0
SMALL
NO_CHARGES


@<TRIPOS>ATOM
   1 N1            -0.2423     1.3979     0.1595 N.2     
   2 C2            -0.6394     0.2754     0.6847 C.2     
   3 N3            -0.3120     0.2385     2.0075 N.pl3   
   4 C4             0.3260     1.4158     2.3062 C.ar    
   5 N5             0.8622     1.9405     3.4031 N.ar    
   6 C6             1.4215     3.1318     3.3727 C.ar    
   7 N7             1.4802     3.8594     2.2724 N.ar    
   8 C8             0.9708     3.4175     1.1270 C.ar    
   9 C9             0.3634     2.1507     1.1090 C.ar    
  10 N10            1.0367     4.1875    -0.0210 N.pl3   
  11 C11            1.6735     5.5064     0.0171 C.3     
  12 C12            2.1340     5.8912    -1.3903 C.3     
  13 N13            0.6265     9.7888     2.1241 N.ar    
  14 C14           -0.2295    10.6801     2.5617 C.ar    
  15 C15           -1.6054    10.4837     2.4643 C.ar    
  16 C16           -2.0922     9.3389     1.9008 C.ar    
  17 C17           -1.1695     8.3847     1.4319 C.ar    
  18 C18           -1.5976     7.1843     0.8406 C.ar    
  19 C19           -0.6791     6.2803     0.3968 C.ar    
  20 C20            0.6850     6.5272     0.5189 C.ar    
  21 C21            1.1433     7.6928     1.0931 C.ar    
  22 C22            0.2160     8.6484     1.5628 C.ar    
  23 Cl23          -3.2937     6.8521     0.6770 Cl      
  24 N24            6.3677     9.4453     2.0011 N.3     
  25 C25            6.8524     9.6374     3.3738 C.3     
  26 C26            8.3813     9.5718     3.3902 C.3     
  27 C27            8.9439    10.6613     2.4732 C.3     
  28 C28            8.3857    10.4670     1.0607 C.3     
  29 C29            6.8567    10.5067     1.1118 C.3     
  30 N30            2.5138     7.9270     1.2100 N.3     
  31 C31            2.9034     9.1438     0.4860 C.3     
  32 C32            4.4265     9.2895     0.5133 C.3     
  33 C33            4.9013     9.3641     1.9671 C.3     
  34 C34            4.4411     8.1075     2.7111 C.3     
  35 C35            2.9175     7.9960     2.6202 C.3     
  36 H36           -1.1530    -0.5109     0.1514 H       
  37 H37           -0.4965    -0.4869     2.6244 H       
  38 H38            1.8480     3.5292     4.2819 H       
  39 H39            0.6613     3.8540    -0.8509 H       
  40 H40            2.5342     5.4751     0.6852 H       
  41 H41            1.2733     5.9225    -2.0583 H       
  42 H42            2.6078     6.8724    -1.3619 H       
  43 H43            2.8490     5.1528    -1.7532 H       
  44 H44            0.1415    11.5901     3.0096 H       
  45 H45           -2.2863    11.2360     2.8345 H       
  46 H46           -3.1557     9.1700     1.8176 H       
  47 H47           -1.0148     5.3595    -0.0568 H       
  48 H48            6.5267    10.6107     3.7411 H       
  49 H49            6.4484     8.8538     4.0147 H       
  50 H50            8.7414     9.7300     4.4068 H       
  51 H51            8.7074     8.5939     3.0361 H       
  52 H52            8.6504    11.6414     2.8493 H       
  53 H53           10.0314    10.5905     2.4481 H       
  54 H54            8.7490    11.2648     0.4129 H       
  55 H55            8.7119     9.5032     0.6699 H       
  56 H56            6.4557    10.3544     0.1098 H       
  57 H57            6.5310    11.4758     1.4897 H       
  58 H58            2.5634     9.0760    -0.5474 H       
  59 H59            2.4469    10.0115     0.9622 H       
  60 H60            4.8833     8.4287     0.0250 H       
  61 H61            4.7143    10.2009    -0.0108 H       
  62 H62            4.4764    10.2472     2.4442 H       
  63 H63            4.8980     7.2280     2.2574 H       
  64 H64            4.7392     8.1744     3.7574 H       
  65 H65            2.4610     8.8691     3.0864 H       
  66 H66            2.5878     7.0946     3.1368 H       
@<TRIPOS>BOND
   1    1    2 2
   2    1    9 1
   3    2    3 1
   4    2   36 1
   5    3    4 1
   6    3   37 1
   7    4    5 ar
   8    4    9 ar
   9    5    6 ar
  10    6    7 ar
  11    6   38 1
  12    7    8 ar
  13    8    9 ar
  14    8   10 1
  15   10   11 1
  16   10   39 1
  17   11   12 1
  18   11   20 1
  19   11   40 1
  20   12   41 1
  21   12   42 1
  22   12   43 1
  23   13   14 ar
  24   13   22 ar
  25   14   15 ar
  26   14   44 1
  27   15   16 ar
  28   15   45 1
  29   16   17 ar
  30   16   46 1
  31   17   18 ar
  32   17   22 ar
  33   18   19 ar
  34   18   23 1
  35   19   20 ar
  36   19   47 1
  37   20   21 ar
  38   21   22 ar
  39   21   30 1
  40   24   25 1
  41   24   29 1
  42   24   33 1
  43   25   26 1
  44   25   48 1
  45   25   49 1
  46   26   27 1
  47   26   50 1
  48   26   51 1
  49   27   28 1
  50   27   52 1
  51   27   53 1
  52   28   29 1
  53   28   54 1
  54   28   55 1
  55   29   56 1
  56   29   57 1
  57   30   31 1
  58   30   35 1
  59   31   32 1
  60   31   58 1
  61   31   59 1
  62   32   33 1
  63   32   60 1
  64   32   61 1
  65   33   34 1
  66   33   62 1
  67   34   35 1
  68   34   63 1
  69   34   64 1
  70   35   65 1
  71   35   66 1

#	End of record

