#	Name: ASD03730377
#	Creating user name:	WinNT
#	Creation time:	15. 06. 2019 20:44

#	Modifying user name:	WinNT
#	Modification time:	15. 06. 2019 20:44

#	Program:	/corina/corina34_cracker 3.40 0067  02.08.2006

@<TRIPOS>MOLECULE
ASD03730377
  60   66    0    0    0
SMALL
NO_CHARGES


@<TRIPOS>ATOM
   1 O1             0.3340     1.3708     0.2346 O.3     
   2 C2             0.4382    -0.0647     0.2750 C.3     
   3 O3             1.6885    -0.3361    -0.3852 O.3     
   4 C4             2.4533     0.7788    -0.1926 C.ar    
   5 C5             1.6198     1.8282     0.1874 C.ar    
   6 C6             3.8158     0.9859    -0.3120 C.ar    
   7 C7             4.3633     2.2395    -0.0563 C.ar    
   8 C8             3.5197     3.2822     0.3145 C.ar    
   9 C9             2.1615     3.0772     0.4405 C.ar    
  10 O10            5.6640     2.6475    -0.0981 O.3     
  11 C11            4.3910     4.4971     0.4900 C.3     
  12 C12            5.7085     4.0851    -0.1809 C.3     
  13 N13            3.6737     6.6405     0.8295 N.am    
  14 C14            3.7966     5.7198    -0.1474 C.2     
  15 C15            4.5860     4.8557     1.9333 C.ar    
  16 C16            5.0848     4.1774     3.0230 C.ar    
  17 C17            5.1373     4.7958     4.2595 C.ar    
  18 C18            4.6877     6.0963     4.3981 C.ar    
  19 C19            4.1864     6.7796     3.3099 C.ar    
  20 C20            4.1300     6.1652     2.0613 C.ar    
  21 O21            3.4879     5.8531    -1.3127 O.2     
  22 C22            3.1262     7.9836     0.6233 C.3     
  23 C23            1.6361     7.9584     0.8472 C.ar    
  24 C24            1.1252     8.1939     2.1071 C.ar    
  25 C25           -0.2549     8.1703     2.3127 C.ar    
  26 C26           -1.1097     7.9081     1.2406 C.ar    
  27 C27           -0.5860     7.6743    -0.0139 C.ar    
  28 C28            0.7832     7.7048    -0.2121 C.ar    
  29 C29           -0.8092     8.4212     3.6601 C.2     
  30 O30           -0.2448     7.9790     4.6416 O.2     
  31 N31           -1.9405     9.1404     3.8001 N.am    
  32 C32           -2.5795     9.2986     5.1162 C.3     
  33 C33           -2.8425    10.7906     5.3498 C.3     
  34 O34           -3.5540    11.3240     4.2304 O.3     
  35 C35           -2.8361    11.2591     2.9958 C.3     
  36 C36           -2.5696     9.7958     2.6426 C.3     
  37 H37            0.4650    -0.4178     1.3059 H       
  38 H38           -0.3885    -0.5240    -0.2668 H       
  39 H39            4.4589     0.1693    -0.6052 H       
  40 H40            1.5188     3.8931     0.7367 H       
  41 H41            6.5630     4.4784     0.3699 H       
  42 H42            5.7326     4.4125    -1.2203 H       
  43 H43            5.4350     3.1617     2.9124 H       
  44 H44            5.5282     4.2641     5.1144 H       
  45 H45            4.7290     6.5790     5.3633 H       
  46 H46            3.8364     7.7947     3.4265 H       
  47 H47            3.5877     8.6762     1.3271 H       
  48 H48            3.3350     8.3085    -0.3960 H       
  49 H49            1.7920     8.3958     2.9324 H       
  50 H50           -2.1787     7.8880     1.3932 H       
  51 H51           -1.2462     7.4714    -0.8441 H       
  52 H52            1.1879     7.5258    -1.1972 H       
  53 H53           -3.5225     8.7523     5.1344 H       
  54 H54           -1.9181     8.9162     5.8937 H       
  55 H55           -3.4378    10.9182     6.2539 H       
  56 H56           -1.8932    11.3146     5.4611 H       
  57 H57           -3.4268    11.7238     2.2063 H       
  58 H58           -1.8868    11.7848     3.0985 H       
  59 H59           -1.9018     9.7426     1.7828 H       
  60 H60           -3.5117     9.3004     2.4075 H       
@<TRIPOS>BOND
   1    1    2 1
   2    1    5 1
   3    2    3 1
   4    2   37 1
   5    2   38 1
   6    3    4 1
   7    4    5 ar
   8    4    6 ar
   9    5    9 ar
  10    6    7 ar
  11    6   39 1
  12    7    8 ar
  13    7   10 1
  14    8    9 ar
  15    8   11 1
  16    9   40 1
  17   10   12 1
  18   11   12 1
  19   11   14 1
  20   11   15 1
  21   12   41 1
  22   12   42 1
  23   13   14 am
  24   13   20 1
  25   13   22 1
  26   14   21 2
  27   15   16 ar
  28   15   20 ar
  29   16   17 ar
  30   16   43 1
  31   17   18 ar
  32   17   44 1
  33   18   19 ar
  34   18   45 1
  35   19   20 ar
  36   19   46 1
  37   22   23 1
  38   22   47 1
  39   22   48 1
  40   23   24 ar
  41   23   28 ar
  42   24   25 ar
  43   24   49 1
  44   25   26 ar
  45   25   29 1
  46   26   27 ar
  47   26   50 1
  48   27   28 ar
  49   27   51 1
  50   28   52 1
  51   29   30 2
  52   29   31 am
  53   31   32 1
  54   31   36 1
  55   32   33 1
  56   32   53 1
  57   32   54 1
  58   33   34 1
  59   33   55 1
  60   33   56 1
  61   34   35 1
  62   35   36 1
  63   35   57 1
  64   35   58 1
  65   36   59 1
  66   36   60 1

#	End of record

