#	Name: ASD01840157
#	Creating user name:	WinNT
#	Creation time:	15. 06. 2019 19:37

#	Modifying user name:	WinNT
#	Modification time:	15. 06. 2019 19:37

#	Program:	/corina/corina34_cracker 3.40 0067  02.08.2006

@<TRIPOS>MOLECULE
ASD01840157
  49   52    0    0    0
SMALL
NO_CHARGES


@<TRIPOS>ATOM
   1 C1             0.0340     1.1366     0.5406 C.ar    
   2 C2             0.0916    -0.2542     0.5832 C.ar    
   3 N3             1.2322    -0.8998     0.5376 N.ar    
   4 C4             2.3965    -0.2503     0.4475 C.ar    
   5 C5             2.4100     1.1667     0.3993 C.ar    
   6 C6             1.1869     1.8636     0.4485 C.ar    
   7 C7             1.1511     3.3694     0.3999 C.3     
   8 C8            -1.1912    -1.0385     0.6848 C.3     
   9 C9             3.6141    -0.9550     0.3999 C.ar    
  10 C10            4.7880    -0.2805     0.3092 C.ar    
  11 C11            4.8123     1.1248     0.2612 C.ar    
  12 C12            3.6315     1.8482     0.3057 C.ar    
  13 C13            6.1048     1.8341     0.1629 C.2     
  14 N14            7.2559     1.1344     0.1194 N.am    
  15 O15            6.1300     3.0488     0.1212 O.2     
  16 C16            8.5374     1.8376     0.0219 C.3     
  17 C17            9.7282     1.0351     0.5764 C.3     
  18 C18            9.2146     1.7034    -1.3539 C.3     
  19 N19           10.4769     1.5192    -0.6044 N.3     
  20 C20           11.2440     0.4993    -1.1616 C.ar    
  21 C21           11.6093    -0.6119    -0.4075 C.ar    
  22 C22           12.3730    -1.6055    -1.0000 C.ar    
  23 N23           12.7521    -1.5040    -2.2639 N.ar    
  24 C24           12.4233    -0.4635    -3.0086 C.ar    
  25 C25           11.6613     0.5629    -2.4935 C.ar    
  26 O26           12.7365    -2.6941    -0.2758 O.3     
  27 C27           13.5234    -3.6835    -0.9422 C.3     
  28 Cl28          11.2361     1.9241    -3.4835 Cl      
  29 H29           -0.9211     1.6396     0.5759 H       
  30 H30            1.0816     3.6979    -0.6371 H       
  31 H31            0.2848     3.7303     0.9542 H       
  32 H32            2.0611     3.7691     0.8474 H       
  33 H33           -1.5611    -1.2614    -0.3160 H       
  34 H34           -1.0062    -1.9700     1.2196 H       
  35 H35           -1.9344    -0.4512     1.2242 H       
  36 H36            3.6140    -2.0344     0.4360 H       
  37 H37            5.7168    -0.8305     0.2737 H       
  38 H38            3.6519     2.9274     0.2686 H       
  39 H39            7.2358     0.1652     0.1527 H       
  40 H40            8.4889     2.8621     0.3909 H       
  41 H41           10.1101     1.4143     1.5243 H       
  42 H42            9.5667    -0.0429     0.5823 H       
  43 H43            8.9029     0.8209    -1.9127 H       
  44 H44            9.1861     2.6166    -1.9484 H       
  45 H45           11.3025    -0.6987     0.6244 H       
  46 H46           12.7526    -0.4186    -4.0362 H       
  47 H47           13.7440    -4.4977    -0.2520 H       
  48 H48           12.9704    -4.0719    -1.7975 H       
  49 H49           14.4558    -3.2354    -1.2855 H       
@<TRIPOS>BOND
   1    1    2 ar
   2    1    6 ar
   3    1   29 1
   4    2    3 ar
   5    2    8 1
   6    3    4 ar
   7    4    5 ar
   8    4    9 ar
   9    5    6 ar
  10    5   12 ar
  11    6    7 1
  12    7   30 1
  13    7   31 1
  14    7   32 1
  15    8   33 1
  16    8   34 1
  17    8   35 1
  18    9   10 ar
  19    9   36 1
  20   10   11 ar
  21   10   37 1
  22   11   12 ar
  23   11   13 1
  24   12   38 1
  25   13   14 am
  26   13   15 2
  27   14   16 1
  28   14   39 1
  29   16   17 1
  30   16   18 1
  31   16   40 1
  32   17   19 1
  33   17   41 1
  34   17   42 1
  35   18   19 1
  36   18   43 1
  37   18   44 1
  38   19   20 1
  39   20   21 ar
  40   20   25 ar
  41   21   22 ar
  42   21   45 1
  43   22   23 ar
  44   22   26 1
  45   23   24 ar
  46   24   25 ar
  47   24   46 1
  48   25   28 1
  49   26   27 1
  50   27   47 1
  51   27   48 1
  52   27   49 1

#	End of record

