#	Name: ASD08070017
#	Creating user name:	WinNT
#	Creation time:	15. 06. 2019 21:14

#	Modifying user name:	WinNT
#	Modification time:	15. 06. 2019 21:14

#	Program:	/corina/corina34_cracker 3.40 0067  02.08.2006

@<TRIPOS>MOLECULE
ASD08070017
  42   43    0    0    0
SMALL
NO_CHARGES


@<TRIPOS>ATOM
   1 C1            -0.0168     1.3882     0.0097 C.ar    
   2 C2             0.0021    -0.0041     0.0020 C.ar    
   3 C3            -1.1728    -0.7233     0.0089 C.ar    
   4 C4            -2.3946    -0.0611     0.0237 C.ar    
   5 C5            -2.4165     1.3459     0.0319 C.ar    
   6 C6            -1.2196     2.0662     0.0305 C.ar    
   7 O7            -3.6735    -0.4880     0.0327 O.3     
   8 C8            -4.5283     0.5558     0.0464 C.2     
   9 C9            -3.8301     1.7207     0.0468 C.2     
  10 C10           -5.9941     0.4484     0.0582 C.2     
  11 O11           -6.6777     1.4547     0.0697 O.2     
  12 N12           -6.5809    -0.7649     0.0563 N.am    
  13 O13            1.1525     2.0822     0.0022 O.3     
  14 C14            2.3601     1.3183    -0.0134 C.3     
  15 C15           -8.0420    -0.8719     0.0680 C.3     
  16 C16           -8.4603    -2.2095    -0.5457 C.3     
  17 C17           -8.5400    -0.7931     1.4882 C.2     
  18 O18           -9.8556    -0.8696     1.7433 O.3     
  19 C19           -8.0642    -2.2388    -2.0232 C.3     
  20 S20           -8.5602    -3.8248    -2.7508 S.3     
  21 C21           -8.0155    -3.6711    -4.4743 C.3     
  22 C22          -10.2633    -0.7866     3.1344 C.3     
  23 O23           -7.7550    -0.6611     2.3972 O.2     
  24 H24            0.9477    -0.5256    -0.0098 H       
  25 H25           -1.1445    -1.8029     0.0025 H       
  26 H26           -1.2349     3.1460     0.0372 H       
  27 H27           -4.2365     2.7213     0.0564 H       
  28 H28           -6.0359    -1.5672     0.0471 H       
  29 H29            2.3840     0.6946    -0.9070 H       
  30 H30            3.2165     1.9926    -0.0180 H       
  31 H31            2.4010     0.6850     0.8728 H       
  32 H32           -8.4708    -0.0555    -0.5132 H       
  33 H33           -7.9607    -3.0228    -0.0194 H       
  34 H34           -9.5401    -2.3283    -0.4566 H       
  35 H35           -8.5638    -1.4255    -2.5495 H       
  36 H36           -6.9844    -2.1201    -2.1123 H       
  37 H37           -8.2661    -4.5825    -5.0172 H       
  38 H38           -8.5164    -2.8219    -4.9393 H       
  39 H39           -6.9369    -3.5165    -4.5021 H       
  40 H40           -9.9390     0.1667     3.5517 H       
  41 H41          -11.3487    -0.8615     3.2000 H       
  42 H42           -9.8082    -1.6026     3.6957 H       
@<TRIPOS>BOND
   1    1    2 ar
   2    1   13 1
   3    1    6 ar
   4    2    3 ar
   5    2   24 1
   6    3    4 ar
   7    3   25 1
   8    4    5 ar
   9    4    7 1
  10    5    6 ar
  11    5    9 1
  12    6   26 1
  13    7    8 1
  14    8    9 2
  15    8   10 1
  16    9   27 1
  17   10   11 2
  18   10   12 am
  19   12   15 1
  20   12   28 1
  21   13   14 1
  22   14   29 1
  23   14   30 1
  24   14   31 1
  25   15   16 1
  26   15   17 1
  27   15   32 1
  28   16   19 1
  29   16   33 1
  30   16   34 1
  31   17   18 1
  32   17   23 2
  33   18   22 1
  34   19   20 1
  35   19   35 1
  36   19   36 1
  37   20   21 1
  38   21   37 1
  39   21   38 1
  40   21   39 1
  41   22   40 1
  42   22   41 1
  43   22   42 1

#	End of record

