#	Name: ASD02030314
#	Creating user name:	WinNT
#	Creation time:	15. 06. 2019 20:15

#	Modifying user name:	WinNT
#	Modification time:	15. 06. 2019 20:15

#	Program:	/corina/corina34_cracker 3.40 0067  02.08.2006

@<TRIPOS>MOLECULE
ASD02030314
  52   55    0    0    0
SMALL
NO_CHARGES


@<TRIPOS>ATOM
   1 N1            -0.1137     1.6872    -0.1980 N.am    
   2 C2            -0.2070     0.2236    -0.2933 C.3     
   3 C3            -1.0358    -0.2927     0.8894 C.3     
   4 N4            -2.2755     0.4922     0.9723 N.am    
   5 C5            -2.1822     1.9558     1.0676 C.3     
   6 C6            -1.3533     2.4717    -0.1094 C.3     
   7 C7             1.0874     2.2986    -0.1863 C.2     
   8 C8             2.3260     1.4937    -0.1287 C.2     
   9 N9             3.5464     1.9615     0.0216 N.2     
  10 N10            2.4034     0.1530    -0.2148 N.2     
  11 C11            3.6680    -0.1705    -0.1209 C.2     
  12 N12            4.3709     0.9712     0.0267 N.pl3   
  13 C13            5.7626     1.0647     0.1626 C.ar    
  14 O14            1.1521     3.5119    -0.2231 O.2     
  15 C15           -3.4766    -0.1192     0.9606 C.2     
  16 C16           -3.5545    -1.5985     0.9380 C.ar    
  17 O17           -4.4955     0.5428     0.9686 O.2     
  18 C18           -4.7537    -2.2206     0.6037 C.ar    
  19 C19            6.3652     2.3066     0.3080 C.ar    
  20 C20            7.7384     2.3954     0.4418 C.ar    
  21 C21            8.5112     1.2475     0.4302 C.ar    
  22 C22            7.9127     0.0094     0.2850 C.ar    
  23 C23            6.5408    -0.0856     0.1576 C.ar    
  24 Cl24           8.4937     3.9478     0.6238 Cl      
  25 N25           -2.4778    -2.3187     1.2317 N.ar    
  26 C26           -2.5055    -3.6376     1.2225 C.ar    
  27 C27           -3.6742    -4.3232     0.9016 C.ar    
  28 C28           -4.8149    -3.6065     0.5854 C.ar    
  29 O29           -1.3823    -4.3340     1.5290 O.3     
  30 C30           -0.2151    -3.5743     1.8491 C.3     
  31 C31           -1.0142     3.9475     0.1091 C.3     
  32 H32           -0.6938    -0.0518    -1.2289 H       
  33 H33            0.7924    -0.2099    -0.2566 H       
  34 H34           -1.2781    -1.3442     0.7350 H       
  35 H35           -0.4675    -0.1775     1.8123 H       
  36 H36           -3.1816     2.3892     1.0309 H       
  37 H37           -1.6955     2.2311     2.0033 H       
  38 H38           -1.9194     2.3568    -1.0338 H       
  39 H39            4.0747    -1.1705    -0.1524 H       
  40 H40           -5.6261    -1.6317     0.3619 H       
  41 H41            5.7622     3.2025     0.3163 H       
  42 H42            9.5838     1.3188     0.5345 H       
  43 H43            8.5184    -0.8847     0.2756 H       
  44 H44            6.0744    -1.0531     0.0446 H       
  45 H45           -3.6892    -5.4031     0.8958 H       
  46 H46           -5.7336    -4.1149     0.3330 H       
  47 H47            0.6089    -4.2516     2.0737 H       
  48 H48            0.0529    -2.9450     1.0005 H       
  49 H49           -0.4167    -2.9470     2.7174 H       
  50 H50           -0.2704     4.0360     0.9010 H       
  51 H51           -0.6147     4.3690    -0.8133 H       
  52 H52           -1.9158     4.4890     0.3953 H       
@<TRIPOS>BOND
   1    1    2 1
   2    1    7 am
   3    1    6 1
   4    2    3 1
   5    2   32 1
   6    2   33 1
   7    3    4 1
   8    3   34 1
   9    3   35 1
  10    4    5 1
  11    4   15 am
  12    5    6 1
  13    5   36 1
  14    5   37 1
  15    6   31 1
  16    6   38 1
  17    7    8 1
  18    7   14 2
  19    8    9 2
  20    8   10 1
  21    9   12 1
  22   10   11 2
  23   11   12 1
  24   11   39 1
  25   12   13 1
  26   13   19 ar
  27   13   23 ar
  28   15   16 1
  29   15   17 2
  30   16   25 ar
  31   16   18 ar
  32   18   28 ar
  33   18   40 1
  34   19   20 ar
  35   19   41 1
  36   20   21 ar
  37   20   24 1
  38   21   22 ar
  39   21   42 1
  40   22   23 ar
  41   22   43 1
  42   23   44 1
  43   25   26 ar
  44   26   27 ar
  45   26   29 1
  46   27   28 ar
  47   27   45 1
  48   28   46 1
  49   29   30 1
  50   30   47 1
  51   30   48 1
  52   30   49 1
  53   31   50 1
  54   31   51 1
  55   31   52 1

#	End of record

