#	Name: ASD01811445
#	Creating user name:	WinNT
#	Creation time:	15. 06. 2019 19:26

#	Modifying user name:	WinNT
#	Modification time:	15. 06. 2019 19:26

#	Program:	/corina/corina34_cracker 3.40 0067  02.08.2006

@<TRIPOS>MOLECULE
ASD01811445
  55   57    0    0    0
SMALL
NO_CHARGES


@<TRIPOS>ATOM
   1 N1            -0.0181     1.3528     0.0301 N.am    
   2 C2            -0.0037     0.0071    -0.0421 C.2     
   3 O3             1.0554    -0.5873    -0.1002 O.2     
   4 N4            -1.1632    -0.6798    -0.0501 N.am    
   5 C5            -1.1475    -2.1427    -0.1286 C.3     
   6 C6            -0.9808    -2.7270     1.2756 C.3     
   7 C7            -2.4640    -2.6351    -0.7329 C.3     
   8 N8             1.3125     3.4156     0.1072 N.pl3   
   9 N9             2.6790     3.7222     0.0905 N.2     
  10 C10            3.3551     2.5926     0.0139 C.2     
  11 C11            2.4290     1.5298    -0.0204 C.2     
  12 C12            1.1824     2.0640     0.0383 C.2     
  13 C13            0.2149     4.3822     0.1908 C.3     
  14 C14            4.8261     2.4633    -0.0290 C.2     
  15 O15            5.3415     1.3637     0.0283 O.2     
  16 N16            5.5967     3.5642    -0.1317 N.am    
  17 C17            7.0596     3.4654    -0.0376 C.3     
  18 C18            7.5510     4.4366     1.0405 C.3     
  19 C19            7.0348     5.8430     0.7281 C.3     
  20 C20            5.5044     5.8411     0.7410 C.3     
  21 C21            4.9902     4.8851    -0.3461 C.3     
  22 C22            7.5444     6.8073     1.7680 C.ar    
  23 C23            8.3339     7.8776     1.3865 C.ar    
  24 C24            8.8038     8.7642     2.3331 C.ar    
  25 C25            8.4806     8.5798     3.6789 C.ar    
  26 C26            7.6830     7.4977     4.0568 C.ar    
  27 C27            7.2160     6.6216     3.0992 C.ar    
  28 C28            8.9653     9.4958     4.6671 C.1     
  29 N29            9.3497    10.2226     5.4510 N.1     
  30 H30           -0.8632     1.8272     0.0723 H       
  31 H31           -2.0082    -0.2057    -0.0038 H       
  32 H32           -0.3167    -2.4639    -0.7568 H       
  33 H33           -1.8116    -2.4057     1.9038 H       
  34 H34           -0.9691    -3.8154     1.2172 H       
  35 H35           -0.0429    -2.3761     1.7061 H       
  36 H36           -2.5828    -2.2188    -1.7332 H       
  37 H37           -2.4524    -3.7235    -0.7913 H       
  38 H38           -3.2948    -2.3139    -0.1046 H       
  39 H39            2.6687     0.4786    -0.0826 H       
  40 H40           -0.0835     4.6810    -0.8141 H       
  41 H41           -0.6333     3.9257     0.7010 H       
  42 H42            0.5447     5.2593     0.7477 H       
  43 H43            7.3405     2.4474     0.2322 H       
  44 H44            7.5060     3.7279    -0.9967 H       
  45 H45            7.1765     4.1194     2.0138 H       
  46 H46            8.6409     4.4438     1.0542 H       
  47 H47            7.3892     6.1497    -0.2560 H       
  48 H48            5.1492     5.5107     1.7171 H       
  49 H49            5.1377     6.8480     0.5415 H       
  50 H50            5.2713     5.2610    -1.3298 H       
  51 H51            3.9052     4.8041    -0.2799 H       
  52 H52            8.5831     8.0191     0.3452 H       
  53 H53            9.4206     9.5988     2.0340 H       
  54 H54            7.4293     7.3493     5.0961 H       
  55 H55            6.5956     5.7866     3.3896 H       
@<TRIPOS>BOND
   1    1    2 am
   2    1   12 1
   3    1   30 1
   4    2    3 2
   5    2    4 am
   6    4    5 1
   7    4   31 1
   8    5    6 1
   9    5    7 1
  10    5   32 1
  11    6   33 1
  12    6   34 1
  13    6   35 1
  14    7   36 1
  15    7   37 1
  16    7   38 1
  17    8    9 1
  18    8   12 1
  19    8   13 1
  20    9   10 2
  21   10   11 1
  22   10   14 1
  23   11   12 2
  24   11   39 1
  25   13   40 1
  26   13   41 1
  27   13   42 1
  28   14   15 2
  29   14   16 am
  30   16   17 1
  31   16   21 1
  32   17   18 1
  33   17   43 1
  34   17   44 1
  35   18   19 1
  36   18   45 1
  37   18   46 1
  38   19   20 1
  39   19   22 1
  40   19   47 1
  41   20   21 1
  42   20   48 1
  43   20   49 1
  44   21   50 1
  45   21   51 1
  46   22   23 ar
  47   22   27 ar
  48   23   24 ar
  49   23   52 1
  50   24   25 ar
  51   24   53 1
  52   25   26 ar
  53   25   28 1
  54   26   27 ar
  55   26   54 1
  56   27   55 1
  57   28   29 3

#	End of record

