#	Name: ASD03091117
#	Creating user name:	WinNT
#	Creation time:	15. 06. 2019 20:30

#	Modifying user name:	WinNT
#	Modification time:	15. 06. 2019 20:30

#	Program:	/corina/corina34_cracker 3.40 0067  02.08.2006

@<TRIPOS>MOLECULE
ASD03091117
  42   44    0    0    0
SMALL
NO_CHARGES


@<TRIPOS>ATOM
   1 C1            -0.0964     1.4643    -0.0619 C.2     
   2 C2            -0.0350    -0.0055    -0.0353 C.ar    
   3 C3             0.7835    -0.6610     0.9015 C.ar    
   4 C4             0.8331    -2.0460     0.9167 C.ar    
   5 C5             0.0761    -2.7752     0.0091 C.ar    
   6 C6            -0.7331    -2.1197    -0.9176 C.ar    
   7 C7            -0.7950    -0.7565    -0.9382 C.ar    
   8 O8             0.4725     2.1124     0.7961 O.2     
   9 N9            -0.7784     2.0927    -1.0399 N.am    
  10 C10           -0.8396     3.5562    -1.0663 C.3     
  11 N11            0.1010    -6.8769     1.2141 N.3     
  12 C12            1.3390    -6.1464     0.9021 C.3     
  13 C13            1.1153    -4.6452     0.9966 C.3     
  14 N14            0.1259    -4.1650     0.0245 N.3     
  15 C15           -1.1981    -4.7363     0.3076 C.3     
  16 C16           -1.4211    -5.9943    -0.5183 C.3     
  17 C17           -0.6258    -7.1864    -0.0256 C.3     
  18 C18           -0.7459    -6.2957     2.2335 C.3     
  19 C19           -1.3335    -4.9619     1.8024 C.3     
  20 N20            1.5381     0.0752     1.8059 N.pl3   
  21 H21            1.4595    -2.5571     1.6328 H       
  22 H22           -1.3184    -2.6943    -1.6202 H       
  23 H23           -1.4284    -0.2565    -1.6559 H       
  24 H24           -1.2287     1.5760    -1.7262 H       
  25 H25            0.1694     3.9606    -1.1471 H       
  26 H26           -1.4304     3.8797    -1.9232 H       
  27 H27           -1.3032     3.9171    -0.1482 H       
  28 H28            2.1160    -6.4388     1.6084 H       
  29 H29            1.6598    -6.3988    -0.1085 H       
  30 H30            0.7696    -4.4023     2.0014 H       
  31 H31            2.0620    -4.1353     0.8180 H       
  32 H32           -1.9507    -4.0031     0.0176 H       
  33 H33           -2.4812    -6.2464    -0.4918 H       
  34 H34           -1.1392    -5.7889    -1.5510 H       
  35 H35            0.0898    -7.4790    -0.7940 H       
  36 H36           -1.3071    -8.0169     0.1593 H       
  37 H37           -1.5602    -6.9864     2.4527 H       
  38 H38           -0.1577    -6.1467     3.1390 H       
  39 H39           -0.8169    -4.1601     2.3300 H       
  40 H40           -2.3898    -4.9370     2.0702 H       
  41 H41            1.5704     1.0422     1.7368 H       
  42 H42            2.0328    -0.3777     2.5067 H       
@<TRIPOS>BOND
   1    1    2 1
   2    1    8 2
   3    1    9 am
   4    2    3 ar
   5    2    7 ar
   6    3    4 ar
   7    3   20 1
   8    4    5 ar
   9    4   21 1
  10    5    6 ar
  11    5   14 1
  12    6    7 ar
  13    6   22 1
  14    7   23 1
  15    9   10 1
  16    9   24 1
  17   10   25 1
  18   10   26 1
  19   10   27 1
  20   11   12 1
  21   11   17 1
  22   11   18 1
  23   12   13 1
  24   12   28 1
  25   12   29 1
  26   13   14 1
  27   13   30 1
  28   13   31 1
  29   14   15 1
  30   15   16 1
  31   15   19 1
  32   15   32 1
  33   16   17 1
  34   16   33 1
  35   16   34 1
  36   17   35 1
  37   17   36 1
  38   18   19 1
  39   18   37 1
  40   18   38 1
  41   19   39 1
  42   19   40 1
  43   20   41 1
  44   20   42 1

#	End of record

