#	Name: ASD01209250
#	Creating user name:	WinNT
#	Creation time:	15. 06. 2019 19:11

#	Modifying user name:	WinNT
#	Modification time:	15. 06. 2019 19:11

#	Program:	/corina/corina34_cracker 3.40 0067  02.08.2006

@<TRIPOS>MOLECULE
ASD01209250
  69   71    0    0    0
SMALL
NO_CHARGES


@<TRIPOS>ATOM
   1 C1             4.5353     2.5171    -3.1631 C.3     
   2 O2             2.2142     1.0627    -2.5553 O.3     
   3 C3             4.5506    -8.8627     0.8329 C.ar    
   4 C4             5.8406    -8.6465     1.2946 C.ar    
   5 C5             6.5119    -7.4766     0.9678 C.ar    
   6 C6             5.8955    -6.5195     0.1788 C.ar    
   7 C7             4.5978    -6.7331    -0.2877 C.ar    
   8 C8             3.9286    -7.9130     0.0389 C.ar    
   9 O9             7.7756    -7.2698     1.4227 O.3     
  10 C10            3.9359    -5.7145    -1.1301 C.2     
  11 N11            4.5859    -4.5777    -1.4487 N.am    
  12 O12            2.8054    -5.9023    -1.5355 O.2     
  13 C13            3.9641    -3.6206    -2.2402 C.2     
  14 P14            3.8161     0.9255    -2.6407 P.3     
  15 O15            4.3511     0.5550    -1.3114 O.2     
  16 C16            4.2517    -0.3650    -3.8523 C.3     
  17 N17            4.4981    -2.4966    -2.6038 N.2     
  18 S18            2.3857    -3.7566    -2.8830 S.3     
  19 C19            2.5505    -2.1789    -3.6494 C.2     
  20 C20            3.7628    -1.7025    -3.3593 C.2     
  21 O21            3.8978   -10.0103     1.1555 O.3     
  22 C22            2.5390   -10.1257     0.7285 C.3     
  23 C23            1.8012   -11.1118     1.6364 C.3     
  24 O24            2.3601   -12.4171     1.4757 O.3     
  25 C25            1.7392   -13.4188     2.2839 C.3     
  26 C26            2.4991   -10.6331    -0.7144 C.3     
  27 C27            7.9449    -6.4266     2.4748 C.ar    
  28 C28            9.2202    -6.1550     2.9494 C.ar    
  29 C29            9.3896    -5.2971     4.0188 C.ar    
  30 C30            8.2898    -4.7093     4.6161 C.ar    
  31 C31            7.0179    -4.9784     4.1451 C.ar    
  32 C32            6.8433    -5.8314     3.0726 C.ar    
  33 S33            8.5093    -3.6160     5.9804 S.o2    
  34 O34            7.2861    -3.7016     6.6984 O.2     
  35 O35            9.7346    -4.0310     6.5684 O.2     
  36 C36            8.6896    -1.9776     5.2229 C.3     
  37 C37            1.5551     1.9176    -1.6190 C.3     
  38 C38            0.0406     1.8089    -1.8074 C.3     
  39 H39            5.6198     2.4243    -3.2209 H       
  40 H40            4.1413     2.7900    -4.1421 H       
  41 H41            4.2748     3.2888    -2.4386 H       
  42 H42            6.3239    -9.3906     1.9103 H       
  43 H43            6.4183    -5.6090    -0.0745 H       
  44 H44            2.9243    -8.0824    -0.3204 H       
  45 H45            5.4880    -4.4278    -1.1251 H       
  46 H46            3.7833    -0.1374    -4.8099 H       
  47 H47            5.3342    -0.3969    -3.9758 H       
  48 H48            1.8024    -1.6851    -4.2518 H       
  49 H49            2.0566    -9.1499     0.7840 H       
  50 H50            1.9053   -10.7973     2.6749 H       
  51 H51            0.7451   -11.1331     1.3674 H       
  52 H52            1.8420   -13.1521     3.3358 H       
  53 H53            0.6819   -13.4879     2.0283 H       
  54 H54            2.2202   -14.3803     2.1041 H       
  55 H55            2.9815   -11.6089    -0.7698 H       
  56 H56            1.4626   -10.7211    -1.0400 H       
  57 H57            3.0247    -9.9306    -1.3611 H       
  58 H58           10.0795    -6.6141     2.4835 H       
  59 H59           10.3819    -5.0856     4.3889 H       
  60 H60            6.1605    -4.5182     4.6136 H       
  61 H61            5.8497    -6.0412     2.7051 H       
  62 H62            7.7919    -1.7406     4.6519 H       
  63 H63            8.8316    -1.2301     6.0034 H       
  64 H64            9.5535    -1.9776     4.5583 H       
  65 H65            1.8176     1.6166    -0.6048 H       
  66 H66            1.8687     2.9483    -1.7848 H       
  67 H67           -0.4621     2.4610    -1.0932 H       
  68 H68           -0.2219     2.1099    -2.8216 H       
  69 H69           -0.2730     0.7782    -1.6416 H       
@<TRIPOS>BOND
   1    1   14 1
   2    1   39 1
   3    1   40 1
   4    1   41 1
   5    2   37 1
   6    2   14 1
   7    3    4 ar
   8    3   21 1
   9    3    8 ar
  10    4    5 ar
  11    4   42 1
  12    5    6 ar
  13    5    9 1
  14    6    7 ar
  15    6   43 1
  16    7    8 ar
  17    7   10 1
  18    8   44 1
  19    9   27 1
  20   10   11 am
  21   10   12 2
  22   11   13 1
  23   11   45 1
  24   13   17 2
  25   13   18 1
  26   14   15 2
  27   14   16 1
  28   16   20 1
  29   16   46 1
  30   16   47 1
  31   17   20 1
  32   18   19 1
  33   19   20 2
  34   19   48 1
  35   21   22 1
  36   22   23 1
  37   22   26 1
  38   22   49 1
  39   23   24 1
  40   23   50 1
  41   23   51 1
  42   24   25 1
  43   25   52 1
  44   25   53 1
  45   25   54 1
  46   26   55 1
  47   26   56 1
  48   26   57 1
  49   27   28 ar
  50   27   32 ar
  51   28   29 ar
  52   28   58 1
  53   29   30 ar
  54   29   59 1
  55   30   31 ar
  56   30   33 1
  57   31   32 ar
  58   31   60 1
  59   32   61 1
  60   33   34 2
  61   33   35 2
  62   33   36 1
  63   36   62 1
  64   36   63 1
  65   36   64 1
  66   37   38 1
  67   37   65 1
  68   37   66 1
  69   38   67 1
  70   38   68 1
  71   38   69 1

#	End of record

