#	Name: ASD08070347
#	Creating user name:	WinNT
#	Creation time:	15. 06. 2019 21:14

#	Modifying user name:	WinNT
#	Modification time:	15. 06. 2019 21:14

#	Program:	/corina/corina34_cracker 3.40 0067  02.08.2006

@<TRIPOS>MOLECULE
ASD08070347
  41   43    0    0    0
SMALL
NO_CHARGES


@<TRIPOS>ATOM
   1 C1            -0.0179     1.4712     0.0101 C.2     
   2 C2             0.0021    -0.0041     0.0020 C.ar    
   3 C3             1.2228    -0.6921    -0.0133 C.ar    
   4 C4             1.2297    -2.0798    -0.0204 C.ar    
   5 C5             0.0372    -2.7780    -0.0127 C.ar    
   6 C6            -1.1709    -2.1007     0.0025 C.ar    
   7 C7            -1.1956    -0.7228     0.0154 C.ar    
   8 O8             1.0267     2.0934     0.0035 O.2     
   9 N9            -1.1942     2.1291     0.0193 N.am    
  10 C10           -1.2140     3.5940     0.0273 C.3     
  11 C11           -2.5304     4.0831    -0.5731 C.3     
  12 C12           -2.6259     5.5983    -0.3587 C.3     
  13 C13           -2.8352     5.8613     1.1312 C.3     
  14 C14           -1.8042     5.1280     1.9486 C.ar    
  15 C15           -1.6100     5.5370     3.2670 C.ar    
  16 C16           -0.6798     4.8988     4.0693 C.ar    
  17 C17            0.0598     3.8494     3.5586 C.ar    
  18 C18           -0.1317     3.4462     2.2532 C.ar    
  19 C19           -1.0628     4.0850     1.4434 C.ar    
  20 O20           -2.3383     6.5694     3.7677 O.3     
  21 C21           -2.0910     6.9391     5.1258 C.3     
  22 O22            2.3926    -0.0047    -0.0217 O.3     
  23 Cl23           2.7378    -2.9395    -0.0394 Cl      
  24 H24            0.0473    -3.8579    -0.0189 H       
  25 H25           -2.0977    -2.6551     0.0083 H       
  26 H26           -2.1401    -0.1992     0.0318 H       
  27 H27           -2.0275     1.6328     0.0205 H       
  28 H28           -0.3844     3.9679    -0.5726 H       
  29 H29           -2.5522     3.8611    -1.6401 H       
  30 H30           -3.3661     3.5888    -0.0777 H       
  31 H31           -1.7031     6.0748    -0.6896 H       
  32 H32           -3.4685     5.9967    -0.9238 H       
  33 H33           -2.7511     6.9311     1.3226 H       
  34 H34           -3.8302     5.5223     1.4197 H       
  35 H35           -0.5326     5.2200     5.0899 H       
  36 H36            0.7862     3.3462     4.1796 H       
  37 H37            0.4480     2.6258     1.8566 H       
  38 H38           -2.2997     6.0904     5.7771 H       
  39 H39           -1.0480     7.2351     5.2376 H       
  40 H40           -2.7368     7.7738     5.3984 H       
  41 H41            2.7404     0.1904     0.8592 H       
@<TRIPOS>BOND
   1    1    2 1
   2    1    8 2
   3    1    9 am
   4    2    3 ar
   5    2    7 ar
   6    3    4 ar
   7    3   22 1
   8    4    5 ar
   9    4   23 1
  10    5    6 ar
  11    5   24 1
  12    6    7 ar
  13    6   25 1
  14    7   26 1
  15    9   10 1
  16    9   27 1
  17   10   11 1
  18   10   19 1
  19   10   28 1
  20   11   12 1
  21   11   29 1
  22   11   30 1
  23   12   13 1
  24   12   31 1
  25   12   32 1
  26   13   14 1
  27   13   33 1
  28   13   34 1
  29   14   15 ar
  30   14   19 ar
  31   15   16 ar
  32   15   20 1
  33   16   17 ar
  34   16   35 1
  35   17   18 ar
  36   17   36 1
  37   18   19 ar
  38   18   37 1
  39   20   21 1
  40   21   38 1
  41   21   39 1
  42   21   40 1
  43   22   41 1

#	End of record

