#	Name: ASD00844453
#	Creating user name:	WinNT
#	Creation time:	15. 06. 2019 18:50

#	Modifying user name:	WinNT
#	Modification time:	15. 06. 2019 18:50

#	Program:	/corina/corina34_cracker 3.40 0067  02.08.2006

@<TRIPOS>MOLECULE
ASD00844453
  85   90    0    0    0
SMALL
NO_CHARGES


@<TRIPOS>ATOM
   1 F1            -0.0795    -3.1473     4.7185 F       
   2 C2            -0.0052     1.3862     0.0369 C.ar    
   3 C3             0.0093    -0.0007     0.0189 C.ar    
   4 C4             1.2193    -0.6794    -0.0011 C.ar    
   5 C5             2.4062     0.0272    -0.0032 C.ar    
   6 C6             2.3891     1.4098     0.0152 C.ar    
   7 C7             1.1848     2.0884     0.0347 C.ar    
   8 C8             1.2387    -2.1862    -0.0202 C.3     
   9 C9             0.4942    -2.7107    -1.2292 C.2     
  10 N10            2.6178    -2.6804    -0.0126 N.am    
  11 C11            3.4633    -2.3341    -1.0034 C.2     
  12 N12            4.7589    -2.7002    -0.9424 N.am    
  13 O13            3.0572    -1.6913    -1.9522 O.2     
  14 C14            5.2906    -3.3760     0.2490 C.3     
  15 C15            6.5170    -2.6050     0.7471 C.3     
  16 C16            7.5240    -2.4623    -0.3965 C.3     
  17 C17            6.8886    -1.6712    -1.5422 C.3     
  18 C18            5.6651    -2.4366    -2.0685 C.3     
  19 C19            8.7653    -1.7227     0.1066 C.3     
  20 C20            9.4032    -2.5140     1.2519 C.3     
  21 C21           10.6775    -1.8011     1.7101 C.3     
  22 N22           11.6132    -1.6960     0.5833 N.3     
  23 C23           11.0406    -0.9002    -0.5100 C.3     
  24 C24            9.7771    -1.5861    -1.0345 C.3     
  25 C25           12.9019    -1.1416     1.0191 C.3     
  26 O26            0.7741    -2.5063    -2.3916 O.2     
  27 N27           -0.5343    -3.4453    -0.7739 N.am    
  28 C28            0.4679    -2.7406     1.1565 C.ar    
  29 C29           -0.5794    -3.4839     0.6218 C.ar    
  30 C30            0.6362    -2.6266     2.5189 C.ar    
  31 C31           -0.2432    -3.2570     3.3819 C.ar    
  32 C32           -1.3020    -4.0086     2.8624 C.ar    
  33 C33           -1.4665    -4.1202     1.4820 C.ar    
  34 C34           -0.9901    -5.8308    -2.0686 C.ar    
  35 C35           -1.3174    -6.8775    -1.2270 C.ar    
  36 C36           -0.1706    -6.0515    -3.1597 C.ar    
  37 C37            0.3215    -7.3189    -3.4093 C.ar    
  38 C38           -0.0055    -8.3656    -2.5676 C.ar    
  39 C39           -0.8249    -8.1448    -1.4764 C.ar    
  40 H40            0.3790    -9.3558    -2.7626 H       
  41 H41           -1.9577    -6.7050    -0.3745 H       
  42 C42           -2.2168    -4.6642     3.7477 C.1     
  43 N43           -2.9425    -5.1843     4.4501 N.1     
  44 O44           -1.1598    -0.6937     0.0215 O.3     
  45 C45           -2.3670     0.0707     0.0431 C.3     
  46 C46           -3.5696    -0.8751     0.0427 C.3     
  47 F47           -3.5396    -1.6671    -1.1102 F       
  48 F48           -3.5173    -1.6964     1.1741 F       
  49 S49           -1.6232    -4.2167    -1.7545 S.o2    
  50 O50           -2.8038    -4.3919    -0.9833 O.2     
  51 O51           -1.6018    -3.5284    -2.9975 O.2     
  52 H52           -0.9458     1.9168     0.0480 H       
  53 H53            3.3483    -0.5006    -0.0188 H       
  54 H54            3.3181     1.9605     0.0142 H       
  55 H55            1.1741     3.1682     0.0491 H       
  56 H56            2.9224    -3.2570     0.7055 H       
  57 H57            4.5292    -3.3947     1.0288 H       
  58 H58            5.5791    -4.3954    -0.0074 H       
  59 H59            6.2112    -1.6159     1.0880 H       
  60 H60            6.9780    -3.1482     1.5720 H       
  61 H61            7.8107    -3.4515    -0.7535 H       
  62 H62            6.5792    -0.6909    -1.1797 H       
  63 H63            7.6140    -1.5498    -2.3467 H       
  64 H64            5.9868    -3.3781    -2.5137 H       
  65 H65            5.1506    -1.8334    -2.8165 H       
  66 H66            8.4802    -0.7327     0.4624 H       
  67 H67            8.7025    -2.5779     2.0844 H       
  68 H68            9.6516    -3.5175     0.9067 H       
  69 H69           10.4264    -0.8026     2.0680 H       
  70 H70           11.1418    -2.3695     2.5160 H       
  71 H71           10.7879     0.0940    -0.1416 H       
  72 H72           11.7687    -0.8143    -1.3166 H       
  73 H73           10.0315    -2.5751    -1.4156 H       
  74 H74            9.3437    -0.9872    -1.8354 H       
  75 H75           13.3393    -1.7913     1.7771 H       
  76 H76           13.5760    -1.0745     0.1652 H       
  77 H77           12.7466    -0.1475     1.4383 H       
  78 H78            1.4558    -2.0448     2.9142 H       
  79 H79           -2.2843    -4.7007     1.0812 H       
  80 H80            0.0849    -5.2338    -3.8173 H       
  81 H81            0.9612    -7.4915    -4.2622 H       
  82 H82           -1.0807    -8.9626    -0.8190 H       
  83 H83           -2.3903     0.6877     0.9413 H       
  84 H84           -2.4077     0.7106    -0.8384 H       
  85 H85           -4.4904    -0.2921     0.0592 H       
@<TRIPOS>BOND
   1    1   31 1
   2    2    3 ar
   3    2    7 ar
   4    2   52 1
   5    3    4 ar
   6    3   44 1
   7    4    5 ar
   8    4    8 1
   9    5    6 ar
  10    5   53 1
  11    6    7 ar
  12    6   54 1
  13    7   55 1
  14    8    9 1
  15    8   10 1
  16    8   28 1
  17    9   26 2
  18    9   27 am
  19   10   11 am
  20   10   56 1
  21   11   12 am
  22   11   13 2
  23   12   14 1
  24   12   18 1
  25   14   15 1
  26   14   57 1
  27   14   58 1
  28   15   16 1
  29   15   59 1
  30   15   60 1
  31   16   17 1
  32   16   19 1
  33   16   61 1
  34   17   18 1
  35   17   62 1
  36   17   63 1
  37   18   64 1
  38   18   65 1
  39   19   20 1
  40   19   24 1
  41   19   66 1
  42   20   21 1
  43   20   67 1
  44   20   68 1
  45   21   22 1
  46   21   69 1
  47   21   70 1
  48   22   23 1
  49   22   25 1
  50   23   24 1
  51   23   71 1
  52   23   72 1
  53   24   73 1
  54   24   74 1
  55   25   75 1
  56   25   76 1
  57   25   77 1
  58   27   49 am
  59   27   29 1
  60   28   29 ar
  61   28   30 ar
  62   29   33 ar
  63   30   31 ar
  64   30   78 1
  65   31   32 ar
  66   32   33 ar
  67   32   42 1
  68   33   79 1
  69   34   35 ar
  70   34   36 ar
  71   34   49 1
  72   35   41 1
  73   35   39 ar
  74   36   37 ar
  75   36   80 1
  76   37   38 ar
  77   37   81 1
  78   38   39 ar
  79   38   40 1
  80   39   82 1
  81   42   43 3
  82   44   45 1
  83   45   46 1
  84   45   83 1
  85   45   84 1
  86   46   47 1
  87   46   48 1
  88   46   85 1
  89   49   50 2
  90   49   51 2

#	End of record

