#	Name: ASD05300024
#	Creating user name:	WinNT
#	Creation time:	15. 06. 2019 20:58

#	Modifying user name:	WinNT
#	Modification time:	15. 06. 2019 20:58

#	Program:	/corina/corina34_cracker 3.40 0067  02.08.2006

@<TRIPOS>MOLECULE
ASD05300024
  36   39    0    0    0
SMALL
NO_CHARGES


@<TRIPOS>ATOM
   1 N1            -0.0162     1.3436     0.0094 N.am    
   2 C2             0.0021    -0.0041     0.0020 C.2     
   3 O3             1.0605    -0.5961    -0.0113 O.2     
   4 C4            -1.2926    -0.7753     0.0102 C.3     
   5 C5            -2.0627    -0.3832    -1.2259 C.2     
   6 C6            -2.4419    -1.3241    -2.1207 C.2     
   7 N7            -3.1211    -0.7558    -3.1560 N.2     
   8 C8            -3.6531    -1.3339    -4.2247 C.2     
   9 C9            -4.2813    -0.4029    -5.0802 C.2     
  10 C10           -4.8764    -0.8368    -6.2219 C.2     
  11 C11           -4.8866    -2.1859    -6.5784 C.2     
  12 C12           -4.3010    -3.1348    -5.8002 C.2     
  13 C13           -3.6650    -2.7550    -4.6021 C.2     
  14 C14           -3.1151    -3.8463    -3.9216 C.2     
  15 C15           -2.4204    -3.8366    -2.7145 C.2     
  16 C16           -2.1129    -2.7481    -1.9086 C.2     
  17 C17           -1.3628    -3.1746    -0.7142 C.ar    
  18 C18           -0.9544    -2.2281     0.2308 C.ar    
  19 C19           -0.2534    -2.6249     1.3471 C.ar    
  20 C20            0.0481    -3.9638     1.5349 C.ar    
  21 C21           -0.3520    -4.9082     0.6049 C.ar    
  22 C22           -1.0545    -4.5244    -0.5178 C.ar    
  23 H23            0.8172     1.8399     0.0041 H       
  24 H24           -0.8627     1.8171     0.0160 H       
  25 H25           -1.8646    -0.4372     0.8743 H       
  26 H26           -2.3121     0.6535    -1.3975 H       
  27 H27           -4.2891     0.6473    -4.8285 H       
  28 H28           -5.3548    -0.1182    -6.8710 H       
  29 H29           -5.3725    -2.4841    -7.4957 H       
  30 H30           -4.3233    -4.1725    -6.0987 H       
  31 H31           -3.2450    -4.8118    -4.3878 H       
  32 H32           -2.0778    -4.7975    -2.3599 H       
  33 H33            0.0617    -1.8927     2.0758 H       
  34 H34            0.5985    -4.2726     2.4113 H       
  35 H35           -0.1127    -5.9500     0.7593 H       
  36 H36           -1.3658    -5.2629    -1.2418 H       
@<TRIPOS>BOND
   1    1    2 am
   2    1   23 1
   3    1   24 1
   4    2    3 2
   5    2    4 1
   6    4    5 1
   7    4   18 1
   8    4   25 1
   9    5    6 2
  10    5   26 1
  11    6    7 1
  12    6   16 1
  13    7    8 2
  14    8    9 1
  15    8   13 1
  16    9   10 2
  17    9   27 1
  18   10   11 1
  19   10   28 1
  20   11   12 2
  21   11   29 1
  22   12   13 1
  23   12   30 1
  24   13   14 2
  25   14   15 1
  26   14   31 1
  27   15   16 2
  28   15   32 1
  29   16   17 1
  30   17   18 ar
  31   17   22 ar
  32   18   19 ar
  33   19   20 ar
  34   19   33 1
  35   20   21 ar
  36   20   34 1
  37   21   22 ar
  38   21   35 1
  39   22   36 1

#	End of record

