#	Name: ASD02030029
#	Creating user name:	WinNT
#	Creation time:	15. 06. 2019 20:14

#	Modifying user name:	WinNT
#	Modification time:	15. 06. 2019 20:14

#	Program:	/corina/corina34_cracker 3.40 0067  02.08.2006

@<TRIPOS>MOLECULE
ASD02030029
  40   43    0    0    0
SMALL
NO_CHARGES


@<TRIPOS>ATOM
   1 C1            -0.0170     1.4060     0.0098 C.ar    
   2 C2             0.0021    -0.0041     0.0020 C.ar    
   3 C3            -1.2620    -0.7334     0.0097 C.ar    
   4 C4            -2.4667     0.0046     0.0247 C.ar    
   5 C5            -2.4192     1.4004     0.0318 C.ar    
   6 C6            -1.2122     2.0802     0.0192 C.ar    
   7 C7             1.3040     2.1327     0.0011 C.3     
   8 C8             2.4095     1.4429    -0.0132 C.2     
   9 C9             2.4220     0.1007    -0.0210 C.2     
  10 C10            1.2448    -0.6585    -0.0134 C.2     
  11 C11           -1.2798    -2.1492     0.0018 C.2     
  12 C12           -2.5807    -2.8591     0.0099 C.2     
  13 C13           -3.8143    -2.0734     0.0259 C.2     
  14 C14           -3.7631    -0.6846     0.0324 C.2     
  15 C15           -5.2365    -2.4213     0.0364 C.2     
  16 C16           -5.9029    -1.2543     0.0489 C.2     
  17 O17           -5.0303    -0.2339     0.0463 O.3     
  18 O18           -0.2352    -2.7781    -0.0120 O.2     
  19 O19           -2.6219    -4.0763     0.0029 O.2     
  20 C20           -5.8318    -3.8058     0.0333 C.3     
  21 C21           -5.9050    -4.3326     1.4679 C.3     
  22 C22            1.3173     3.0475    -1.2253 C.3     
  23 C23            1.3408     3.0343     1.2367 C.3     
  24 H24           -3.3421     1.9612     0.0429 H       
  25 H25           -1.2118     3.1602     0.0252 H       
  26 H26            3.3514     1.9712    -0.0194 H       
  27 H27            3.3727    -0.4117    -0.0331 H       
  28 H28            1.2924    -1.7374    -0.0196 H       
  29 H29           -6.9780    -1.1526     0.0589 H       
  30 H30           -6.8347    -3.7691    -0.3919 H       
  31 H31           -5.2072    -4.4685    -0.5657 H       
  32 H32           -6.3355    -5.3340     1.4656 H       
  33 H33           -4.9020    -4.3693     1.8931 H       
  34 H34           -6.5296    -3.6699     2.0669 H       
  35 H35            0.4926     3.7571    -1.1582 H       
  36 H36            2.2616     3.5906    -1.2633 H       
  37 H37            1.2071     2.4466    -2.1280 H       
  38 H38            1.2478     2.4237     2.1348 H       
  39 H39            2.2857     3.5770     1.2625 H       
  40 H40            0.5150     3.7444     1.1930 H       
@<TRIPOS>BOND
   1    1    2 ar
   2    1    7 1
   3    1    6 ar
   4    2    3 ar
   5    2   10 1
   6    3    4 ar
   7    3   11 1
   8    4    5 ar
   9    4   14 1
  10    5    6 ar
  11    5   24 1
  12    6   25 1
  13    7    8 2
  14    7   22 1
  15    7   23 1
  16    8    9 1
  17    8   26 1
  18    9   10 2
  19    9   27 1
  20   10   28 1
  21   11   12 1
  22   11   18 2
  23   12   13 1
  24   12   19 2
  25   13   14 2
  26   13   15 1
  27   14   17 1
  28   15   16 2
  29   15   20 1
  30   16   17 1
  31   16   29 1
  32   20   21 1
  33   20   30 1
  34   20   31 1
  35   21   32 1
  36   21   33 1
  37   21   34 1
  38   22   35 1
  39   22   36 1
  40   22   37 1
  41   23   38 1
  42   23   39 1
  43   23   40 1

#	End of record

