#	Name: ASD00230006
#	Creating user name:	WinNT
#	Creation time:	15. 06. 2019 18:33

#	Modifying user name:	WinNT
#	Modification time:	15. 06. 2019 18:33

#	Program:	/corina/corina34_cracker 3.40 0067  02.08.2006

@<TRIPOS>MOLECULE
ASD00230006
  21   20    0    0    0
SMALL
NO_CHARGES


@<TRIPOS>ATOM
   1 N1            -0.0178     1.4648     0.0101 N.4     
   2 C2             0.0021    -0.0041     0.0020 C.3     
   3 C3             1.3603     1.9732    -0.0003 C.3     
   4 C4            -0.7283     1.9514    -1.1800 C.3     
   5 C5            -0.7054     1.9385     1.2187 C.3     
   6 C6             2.0764     1.4798    -1.2591 C.3     
   7 S7             3.7783     2.1077    -1.2720 S.3     
   8 H8             0.5293    -0.3651     0.8851 H       
   9 H9            -1.0205    -0.3814     0.0098 H       
  10 H10            0.5123    -0.3556    -0.8948 H       
  11 H11            1.3455     3.0631     0.0057 H       
  12 H12            1.8875     1.6122     0.8827 H       
  13 H13           -1.7509     1.5741    -1.1723 H       
  14 H14           -0.7431     3.0413    -1.1740 H       
  15 H15           -0.2181     1.5999    -2.0768 H       
  16 H16           -0.1782     1.5774     2.1018 H       
  17 H17           -0.7202     3.0284     1.2247 H       
  18 H18           -1.7280     1.5612     1.2264 H       
  19 H19            2.0912     0.3899    -1.2651 H       
  20 H20            1.5493     1.8409    -2.1422 H       
  21 H21            4.2780     1.6038    -2.4145 H       
@<TRIPOS>BOND
   1    1    2 1
   2    1    3 1
   3    1    4 1
   4    1    5 1
   5    2    8 1
   6    2    9 1
   7    2   10 1
   8    3    6 1
   9    3   11 1
  10    3   12 1
  11    4   13 1
  12    4   14 1
  13    4   15 1
  14    5   16 1
  15    5   17 1
  16    5   18 1
  17    6    7 1
  18    6   19 1
  19    6   20 1
  20    7   21 1

#	End of record

