#	Name: ASD03730280
#	Creating user name:	WinNT
#	Creation time:	15. 06. 2019 20:44

#	Modifying user name:	WinNT
#	Modification time:	15. 06. 2019 20:44

#	Program:	/corina/corina34_cracker 3.40 0067  02.08.2006

@<TRIPOS>MOLECULE
ASD03730280
  58   63    0    0    0
SMALL
NO_CHARGES


@<TRIPOS>ATOM
   1 O1            -0.3593     1.2211     0.9043 O.3     
   2 C2            -0.3070    -0.2169     0.9543 C.3     
   3 O3             0.8287    -0.5468     0.1332 O.3     
   4 C4             1.6564     0.5372     0.2017 C.ar    
   5 C5             0.9249     1.6245     0.6744 C.ar    
   6 C6             2.9972     0.6862    -0.1045 C.ar    
   7 C7             3.6239     1.9185     0.0544 C.ar    
   8 C8             2.8806     2.9997     0.5181 C.ar    
   9 C9             1.5451     2.8528     0.8298 C.ar    
  10 O10            4.9225     2.2710    -0.1684 O.3     
  11 C11            3.8154     4.1790     0.5539 C.3     
  12 C12            5.0129     3.7044    -0.2807 C.3     
  13 N13            3.2396     6.3550     0.9482 N.am    
  14 C14            3.1899     5.4179    -0.0196 C.2     
  15 C15            4.2179     4.5474     1.9508 C.ar    
  16 C16            4.8366     3.8577     2.9843 C.ar    
  17 C17            5.0794     4.4994     4.1984 C.ar    
  18 C18            4.7017     5.8174     4.3632 C.ar    
  19 C19            4.0867     6.5027     3.3352 C.ar    
  20 C20            3.8381     5.8747     2.1159 C.ar    
  21 O21            2.7307     5.5496    -1.1344 O.2     
  22 C22            2.7260     7.7182     0.7936 C.3     
  23 C23            1.2583     7.7621     1.2238 C.3     
  24 C24            0.7219     9.1859     1.0623 C.3     
  25 C25           -0.7457     9.2297     1.4925 C.3     
  26 C26           -1.2822    10.6535     1.3311 C.3     
  27 N27            6.1964     0.6139     2.0264 N.pl3   
  28 C28            6.0980     1.9615     1.8594 C.2     
  29 C29            5.2381     2.4412     2.7980 C.2     
  30 C30            4.7984     1.3326     3.5655 C.2     
  31 C31            5.4013     0.2364     3.0687 C.2     
  32 C32            7.0186    -0.2862     1.2140 C.3     
  33 H33           -0.1521    -0.5592     1.9775 H       
  34 H34           -1.2179    -0.6479     0.5390 H       
  35 H35            3.5613    -0.1595    -0.4690 H       
  36 H36            0.9814     3.6981     1.1961 H       
  37 H37            5.9489     4.0677     0.1437 H       
  38 H38            4.9097     4.0186    -1.3193 H       
  39 H39            5.5603     3.9679     5.0062 H       
  40 H40            4.8886     6.3152     5.3032 H       
  41 H41            3.7959     7.5331     3.4766 H       
  42 H42            3.3075     8.3984     1.4160 H       
  43 H43            2.8078     8.0212    -0.2502 H       
  44 H44            0.6768     7.0820     0.6014 H       
  45 H45            1.1765     7.4592     2.2676 H       
  46 H46            1.3034     9.8660     1.6847 H       
  47 H47            0.8038     9.4888     0.0185 H       
  48 H48           -1.3272     8.5496     0.8701 H       
  49 H49           -0.8276     8.9268     2.5364 H       
  50 H50           -2.3277    10.6848     1.6375 H       
  51 H51           -0.7006    11.3336     1.9534 H       
  52 H52           -1.2003    10.9564     0.2872 H       
  53 H53            6.6129     2.5474     1.1125 H       
  54 H54            4.1073     1.3624     4.3949 H       
  55 H55            5.2765    -0.7723     3.4339 H       
  56 H56            8.0105    -0.3719     1.6576 H       
  57 H57            6.5512    -1.2702     1.1761 H       
  58 H58            7.1057     0.1138     0.2038 H       
@<TRIPOS>BOND
   1    1    2 1
   2    1    5 1
   3    2    3 1
   4    2   33 1
   5    2   34 1
   6    3    4 1
   7    4    5 ar
   8    4    6 ar
   9    5    9 ar
  10    6    7 ar
  11    6   35 1
  12    7    8 ar
  13    7   10 1
  14    8    9 ar
  15    8   11 1
  16    9   36 1
  17   10   12 1
  18   11   12 1
  19   11   14 1
  20   11   15 1
  21   12   37 1
  22   12   38 1
  23   13   14 am
  24   13   20 1
  25   13   22 1
  26   14   21 2
  27   15   16 ar
  28   15   20 ar
  29   16   17 ar
  30   16   29 1
  31   17   18 ar
  32   17   39 1
  33   18   19 ar
  34   18   40 1
  35   19   20 ar
  36   19   41 1
  37   22   23 1
  38   22   42 1
  39   22   43 1
  40   23   24 1
  41   23   44 1
  42   23   45 1
  43   24   25 1
  44   24   46 1
  45   24   47 1
  46   25   26 1
  47   25   48 1
  48   25   49 1
  49   26   50 1
  50   26   51 1
  51   26   52 1
  52   27   28 1
  53   27   31 1
  54   27   32 1
  55   28   29 2
  56   28   53 1
  57   29   30 1
  58   30   31 2
  59   30   54 1
  60   31   55 1
  61   32   56 1
  62   32   57 1
  63   32   58 1

#	End of record

