#	Name: ASD03331388
#	Creating user name:	WinNT
#	Creation time:	15. 06. 2019 20:39

#	Modifying user name:	WinNT
#	Modification time:	15. 06. 2019 20:39

#	Program:	/corina/corina34_cracker 3.40 0067  02.08.2006

@<TRIPOS>MOLECULE
ASD03331388
  63   66    0    0    0
SMALL
NO_CHARGES


@<TRIPOS>ATOM
   1 O1            -0.3298     2.9753    -1.9646 O.3     
   2 C2             0.0352     1.7689    -1.2890 C.3     
   3 C3             0.5063     0.7259    -2.3133 C.3     
   4 C4             1.4884     1.4018    -3.2382 C.2     
   5 C5             1.6106     2.7492    -3.3247 C.2     
   6 C6             0.7772     3.7063    -2.5098 C.3     
   7 N7             2.3739     0.8465    -4.0978 N.am    
   8 N8             3.0668     1.8888    -4.7339 N.2     
   9 C9             2.6082     3.0337    -4.2690 C.2     
  10 C10            2.5584    -0.4723    -4.3057 C.2     
  11 O11            1.8945    -1.2830    -3.6906 O.2     
  12 N12            3.4793    -0.8919    -5.1959 N.am    
  13 C13            3.6798    -2.3254    -5.4219 C.3     
  14 C14            2.6676    -2.8254    -6.4545 C.3     
  15 C15            5.0775    -2.5627    -5.9327 C.2     
  16 C16            3.0662     4.3858    -4.6737 C.ar    
  17 C17            4.4055     4.6040    -4.9898 C.ar    
  18 C18            4.8273     5.8648    -5.3666 C.ar    
  19 C19            3.9186     6.9113    -5.4300 C.ar    
  20 C20            2.5867     6.6968    -5.1161 C.ar    
  21 C21            2.1568     5.4395    -4.7441 C.ar    
  22 F22            4.3340     8.1430    -5.7983 F       
  23 F23            6.1255     6.0787    -5.6731 F       
  24 N24            5.7499    -3.6717    -5.5658 N.am    
  25 O25            5.5974    -1.7558    -6.6741 O.2     
  26 C26            2.7857    -1.9896    -7.7306 C.3     
  27 C27            2.9521    -4.2934    -6.7783 C.3     
  28 C28            1.2527    -2.6931    -5.8874 C.3     
  29 C29            7.1471    -3.8394    -5.9691 C.3     
  30 C30            8.0403    -3.8548    -4.7247 C.3     
  31 S31            7.5072    -5.2049    -3.6324 S.o2    
  32 C32            5.7513    -4.8031    -3.3962 C.3     
  33 C33            5.0781    -4.6947    -4.7626 C.3     
  34 O34            7.6009    -6.4304    -4.3456 O.2     
  35 O35            8.1756    -5.0717    -2.3856 O.2     
  36 H36            0.8415     1.9766    -0.5856 H       
  37 H37           -0.8275     1.3813    -0.7471 H       
  38 H38            0.9931    -0.1029    -1.7993 H       
  39 H39           -0.3460     0.3579    -2.8845 H       
  40 H40            0.4096     4.5101    -3.1477 H       
  41 H41            1.3783     4.1221    -1.7012 H       
  42 H42            4.0093    -0.2447    -5.6869 H       
  43 H43            3.5391    -2.8641    -4.4848 H       
  44 H44            5.1127     3.7893    -4.9401 H       
  45 H45            1.8826     7.5141    -5.1667 H       
  46 H46            1.1179     5.2739    -4.4997 H       
  47 H47            3.7937    -2.0838    -8.1347 H       
  48 H48            2.0646    -2.3458    -8.4663 H       
  49 H49            2.5830    -0.9437    -7.5000 H       
  50 H50            2.8702    -4.8885    -5.8687 H       
  51 H51            2.2295    -4.6503    -7.5122 H       
  52 H52            3.9592    -4.3873    -7.1845 H       
  53 H53            1.0500    -1.6473    -5.6568 H       
  54 H54            0.5316    -3.0493    -6.6231 H       
  55 H55            1.1686    -3.2886    -4.9783 H       
  56 H56            7.2591    -4.7801    -6.5082 H       
  57 H57            7.4401    -3.0128    -6.6163 H       
  58 H58            9.0770    -4.0135    -5.0217 H       
  59 H59            7.9510    -2.9038    -4.1997 H       
  60 H60            5.2721    -5.5897    -2.8134 H       
  61 H61            5.6621    -3.8520    -2.8712 H       
  62 H62            4.0307    -4.4234    -4.6310 H       
  63 H63            5.1430    -5.6537    -5.2766 H       
@<TRIPOS>BOND
   1    1    2 1
   2    1    6 1
   3    2    3 1
   4    2   36 1
   5    2   37 1
   6    3    4 1
   7    3   38 1
   8    3   39 1
   9    4    5 2
  10    4    7 1
  11    5    6 1
  12    5    9 1
  13    6   40 1
  14    6   41 1
  15    7    8 1
  16    7   10 am
  17    8    9 2
  18    9   16 1
  19   10   11 2
  20   10   12 am
  21   12   13 1
  22   12   42 1
  23   13   14 1
  24   13   15 1
  25   13   43 1
  26   14   26 1
  27   14   27 1
  28   14   28 1
  29   15   24 am
  30   15   25 2
  31   16   17 ar
  32   16   21 ar
  33   17   18 ar
  34   17   44 1
  35   18   19 ar
  36   18   23 1
  37   19   20 ar
  38   19   22 1
  39   20   21 ar
  40   20   45 1
  41   21   46 1
  42   24   29 1
  43   24   33 1
  44   26   47 1
  45   26   48 1
  46   26   49 1
  47   27   50 1
  48   27   51 1
  49   27   52 1
  50   28   53 1
  51   28   54 1
  52   28   55 1
  53   29   30 1
  54   29   56 1
  55   29   57 1
  56   30   31 1
  57   30   58 1
  58   30   59 1
  59   31   32 1
  60   31   34 2
  61   31   35 2
  62   32   33 1
  63   32   60 1
  64   32   61 1
  65   33   62 1
  66   33   63 1

#	End of record

