#	Name: ASD01810918
#	Creating user name:	WinNT
#	Creation time:	15. 06. 2019 19:25

#	Modifying user name:	WinNT
#	Modification time:	15. 06. 2019 19:25

#	Program:	/corina/corina34_cracker 3.40 0067  02.08.2006

@<TRIPOS>MOLECULE
ASD01810918
  62   65    0    0    0
SMALL
NO_CHARGES


@<TRIPOS>ATOM
   1 C1            -7.3310     2.2154    -3.9992 C.1     
   2 C2            -6.3525     3.0088    -3.3182 C.ar    
   3 C3            -5.1821     2.4185    -2.8374 C.ar    
   4 C4            -4.2438     3.1888    -2.1822 C.ar    
   5 C5            -4.4606     4.5432    -2.0008 C.ar    
   6 C6            -5.6184     5.1346    -2.4743 C.ar    
   7 C7            -6.5620     4.3774    -3.1371 C.ar    
   8 N8            -8.1071     1.5859    -4.5394 N.1     
   9 N9            -2.4130     7.7965    -0.2276 N.am    
  10 C10           -1.8585     7.3071    -1.4971 C.3     
  11 C11           -2.9296     6.4820    -2.2175 C.3     
  12 C12           -3.4312     5.3782    -1.2837 C.3     
  13 C13           -4.0620     6.0077    -0.0396 C.3     
  14 C14           -3.0038     6.8274     0.7055 C.3     
  15 C15           -2.3753     9.1086     0.0778 C.2     
  16 C16           -3.0197     9.5984     1.3146 C.ar    
  17 C17           -3.9802    10.6110     1.2497 C.ar    
  18 C18           -4.5825    11.0699     2.4031 C.ar    
  19 C19           -4.2403    10.5316     3.6300 C.ar    
  20 C20           -3.2815     9.5181     3.7083 C.ar    
  21 C21           -2.6745     9.0471     2.5470 C.ar    
  22 O22           -1.8114     9.8893    -0.6639 O.2     
  23 N23           -2.9053     8.5383     7.1087 N.2     
  24 N24           -3.4733     9.2206     6.1791 N.2     
  25 C25           -2.9158     8.9433     5.0215 C.2     
  26 N26           -1.9328     8.0218     5.2617 N.pl3   
  27 C27           -1.9603     7.7920     6.6030 C.2     
  28 C28           -1.0646     6.8494     7.3647 C.3     
  29 C29           -0.3652     7.6103     8.4929 C.3     
  30 O30            0.4842     6.7165     9.2152 O.3     
  31 C31            1.1882     7.3303    10.2967 C.3     
  32 C32           -4.3588    11.2037    -0.0831 C.3     
  33 C33           -5.3463    10.2749    -0.7923 C.3     
  34 Cl34          -5.0029    11.1165     5.0757 Cl      
  35 H35           -5.0119     1.3613    -2.9777 H       
  36 H36           -3.3380     2.7335    -1.8098 H       
  37 H37           -5.7815     6.1922    -2.3290 H       
  38 H38           -7.4631     4.8411    -3.5105 H       
  39 H39           -1.5692     8.1536    -2.1199 H       
  40 H40           -0.9878     6.6822    -1.2989 H       
  41 H41           -3.7614     7.1292    -2.4956 H       
  42 H42           -2.5015     6.0335    -3.1140 H       
  43 H43           -2.5944     4.7462    -0.9861 H       
  44 H44           -4.8832     6.6593    -0.3381 H       
  45 H45           -4.4399     5.2215     0.6141 H       
  46 H46           -2.2265     6.1633     1.0834 H       
  47 H47           -3.4701     7.3574     1.5360 H       
  48 H48           -5.3240    11.8531     2.3474 H       
  49 H49           -1.9359     8.2611     2.6017 H       
  50 H50           -1.3394     7.6160     4.6106 H       
  51 H51           -1.6624     6.0419     7.7873 H       
  52 H52           -0.3171     6.4331     6.6894 H       
  53 H53            0.2327     8.4179     8.0704 H       
  54 H54           -1.1127     8.0267     9.1682 H       
  55 H55            1.8183     8.1320     9.9116 H       
  56 H56            0.4730     7.7408    11.0094 H       
  57 H57            1.8104     6.5862    10.7940 H       
  58 H58           -4.8229    12.1778     0.0711 H       
  59 H59           -3.4650    11.3200    -0.6962 H       
  60 H60           -4.8822     9.3007    -0.9465 H       
  61 H61           -6.2401    10.1586    -0.1793 H       
  62 H62           -5.6202    10.7035    -1.7563 H       
@<TRIPOS>BOND
   1    1    2 1
   2    1    8 3
   3    2    3 ar
   4    2    7 ar
   5    3    4 ar
   6    3   35 1
   7    4    5 ar
   8    4   36 1
   9    5    6 ar
  10    5   12 1
  11    6    7 ar
  12    6   37 1
  13    7   38 1
  14    9   10 1
  15    9   14 1
  16    9   15 am
  17   10   11 1
  18   10   39 1
  19   10   40 1
  20   11   12 1
  21   11   41 1
  22   11   42 1
  23   12   13 1
  24   12   43 1
  25   13   14 1
  26   13   44 1
  27   13   45 1
  28   14   46 1
  29   14   47 1
  30   15   16 1
  31   15   22 2
  32   16   17 ar
  33   16   21 ar
  34   17   18 ar
  35   17   32 1
  36   18   19 ar
  37   18   48 1
  38   19   20 ar
  39   19   34 1
  40   20   21 ar
  41   20   25 1
  42   21   49 1
  43   23   24 1
  44   23   27 2
  45   24   25 2
  46   25   26 1
  47   26   27 1
  48   26   50 1
  49   27   28 1
  50   28   29 1
  51   28   51 1
  52   28   52 1
  53   29   30 1
  54   29   53 1
  55   29   54 1
  56   30   31 1
  57   31   55 1
  58   31   56 1
  59   31   57 1
  60   32   33 1
  61   32   58 1
  62   32   59 1
  63   33   60 1
  64   33   61 1
  65   33   62 1

#	End of record

