#	Name: ASD01910121
#	Creating user name:	WinNT
#	Creation time:	15. 06. 2019 19:55

#	Modifying user name:	WinNT
#	Modification time:	15. 06. 2019 19:55

#	Program:	/corina/corina34_cracker 3.40 0067  02.08.2006

@<TRIPOS>MOLECULE
ASD01910121
  50   53    0    0    0
SMALL
NO_CHARGES


@<TRIPOS>ATOM
   1 C1            -0.1220     0.5409    -0.3961 C.ar    
   2 C2            -0.3107    -0.8381    -0.4557 C.ar    
   3 C3            -1.5915    -1.3737    -0.3957 C.ar    
   4 C4            -2.6847    -0.5304    -0.2757 C.ar    
   5 C5            -2.4934     0.8669    -0.2149 C.ar    
   6 C6            -1.2125     1.3930    -0.2704 C.ar    
   7 C7            -4.1430    -0.7422    -0.1864 C.2     
   8 N8            -4.7447     0.4562    -0.0814 N.am    
   9 C9            -3.8424     1.4537    -0.0908 C.2     
  10 C10           -6.1927     0.6496     0.0291 C.3     
  11 C11           -6.6120     0.4932     1.4682 C.ar    
  12 C12           -6.4946     1.5625     2.3464 C.ar    
  13 C13           -6.8819     1.4148     3.6722 C.ar    
  14 C14           -7.3825     0.2059     4.1134 C.ar    
  15 C15           -7.4984    -0.8582     3.2359 C.ar    
  16 C16           -7.1186    -0.7122     1.9134 C.ar    
  17 N17           -5.9867     2.7858     1.8969 N.am    
  18 C18           -5.4669     3.6640     2.7773 C.2     
  19 C19           -5.0367     5.0054     2.3191 C.ar    
  20 O20           -5.3511     3.3554     3.9470 O.2     
  21 O21           -4.0952     2.6392    -0.0109 O.2     
  22 O22           -4.7054    -1.8188    -0.2050 O.2     
  23 Cl23          -8.1276    -2.3768     3.7940 Cl      
  24 C24           -4.5003     5.9084     3.2339 C.ar    
  25 C25           -4.1018     7.1598     2.7901 C.ar    
  26 C26           -4.2538     7.4640     1.4466 C.ar    
  27 C27           -4.7955     6.5164     0.5924 C.ar    
  28 N28           -5.1607     5.3348     1.0390 N.ar    
  29 O29            1.1340     1.0545    -0.4555 O.3     
  30 C30            1.2571     2.4766    -0.3892 C.3     
  31 O31            0.7621    -1.6628    -0.5733 O.3     
  32 C32            0.4986    -3.0662    -0.6290 C.3     
  33 H33           -1.7346    -2.4432    -0.4429 H       
  34 H34           -1.0628     2.4615    -0.2238 H       
  35 H35           -6.4533     1.6492    -0.3186 H       
  36 H36           -6.7061    -0.0930    -0.5817 H       
  37 H37           -6.7914     2.2447     4.3574 H       
  38 H38           -7.6835     0.0905     5.1441 H       
  39 H39           -7.2101    -1.5441     1.2308 H       
  40 H40           -6.0087     3.0022     0.9516 H       
  41 H41           -4.3966     5.6377     4.2742 H       
  42 H42           -3.6826     7.8813     3.4757 H       
  43 H43           -3.9535     8.4303     1.0689 H       
  44 H44           -4.9154     6.7502    -0.4552 H       
  45 H45            2.3099     2.7533    -0.4470 H       
  46 H46            0.7167     2.9274    -1.2216 H       
  47 H47            0.8388     2.8341     0.5517 H       
  48 H48           -0.0108    -3.3767     0.2832 H       
  49 H49           -0.1335    -3.2833    -1.4900 H       
  50 H50            1.4391    -3.6090    -0.7227 H       
@<TRIPOS>BOND
   1    1    2 ar
   2    1   29 1
   3    1    6 ar
   4    2    3 ar
   5    2   31 1
   6    3    4 ar
   7    3   33 1
   8    4    5 ar
   9    4    7 1
  10    5    6 ar
  11    5    9 1
  12    6   34 1
  13    7    8 am
  14    7   22 2
  15    8    9 am
  16    8   10 1
  17    9   21 2
  18   10   11 1
  19   10   35 1
  20   10   36 1
  21   11   12 ar
  22   11   16 ar
  23   12   13 ar
  24   12   17 1
  25   13   14 ar
  26   13   37 1
  27   14   15 ar
  28   14   38 1
  29   15   16 ar
  30   15   23 1
  31   16   39 1
  32   17   18 am
  33   17   40 1
  34   18   19 1
  35   18   20 2
  36   19   24 ar
  37   19   28 ar
  38   24   25 ar
  39   24   41 1
  40   25   26 ar
  41   25   42 1
  42   26   27 ar
  43   26   43 1
  44   27   28 ar
  45   27   44 1
  46   29   30 1
  47   30   45 1
  48   30   46 1
  49   30   47 1
  50   31   32 1
  51   32   48 1
  52   32   49 1
  53   32   50 1

#	End of record

