#	Name: ASD05313070
#	Creating user name:	WinNT
#	Creation time:	15. 06. 2019 20:58

#	Modifying user name:	WinNT
#	Modification time:	15. 06. 2019 20:58

#	Program:	/corina/corina34_cracker 3.40 0067  02.08.2006

@<TRIPOS>MOLECULE
ASD05313070
  35   38    0    0    0
SMALL
NO_CHARGES


@<TRIPOS>ATOM
   1 C1            -0.0732     0.8190     1.0186 C.2     
   2 C2             0.1129    -0.6176     0.5927 C.3     
   3 N3             0.9377     1.7366     1.0447 N.pl3   
   4 N4             1.4568    -0.7166    -0.0078 N.am    
   5 C5             2.5716    -0.0375     0.6694 C.3     
   6 C6             2.3235     1.4757     0.6603 C.3     
   7 N7            -0.8984     2.6456     1.6986 N.2     
   8 N8            -1.1542     1.4137     1.4192 N.2     
   9 C9             0.3784     2.8962     1.4868 C.2     
  10 S10            1.6311     6.5909     2.2326 S.3     
  11 C11            2.8497     5.5305     1.6744 C.2     
  12 N12            2.3642     4.3583     1.4573 N.2     
  13 C13            1.0699     4.1865     1.6924 C.2     
  14 C14            0.4402     5.2963     2.1357 C.2     
  15 C15            1.6574    -1.4108    -1.1455 C.2     
  16 O16            2.7494    -1.4001    -1.6795 O.2     
  17 C17            0.5499    -2.1849    -1.7437 C.ar    
  18 C18            0.3183    -2.1292    -3.1204 C.ar    
  19 C19           -0.7197    -2.8562    -3.6724 C.ar    
  20 C20           -1.5276    -3.6368    -2.8638 C.ar    
  21 C21           -1.3024    -3.6949    -1.4999 C.ar    
  22 C22           -0.2660    -2.9797    -0.9367 C.ar    
  23 Cl23          -1.0109    -2.7896    -5.3825 Cl      
  24 Cl24           1.3307    -1.1493    -4.1346 Cl      
  25 H25            0.0433    -1.2748     1.4595 H       
  26 H26           -0.6443    -0.8888    -0.1429 H       
  27 H27            2.6402    -0.3887     1.6990 H       
  28 H28            3.5027    -0.2567     0.1468 H       
  29 H29            2.5041     1.8683    -0.3404 H       
  30 H30            2.9954     1.9595     1.3692 H       
  31 H31            3.8832     5.8057     1.5244 H       
  32 H32           -0.6072     5.3757     2.3867 H       
  33 H33           -2.3376    -4.2028    -3.2995 H       
  34 H34           -1.9370    -4.3058    -0.8749 H       
  35 H35           -0.0893    -3.0305     0.1275 H       
@<TRIPOS>BOND
   1    1    2 1
   2    1    3 1
   3    1    8 2
   4    2    4 1
   5    2   25 1
   6    2   26 1
   7    3    6 1
   8    3    9 1
   9    4    5 1
  10    4   15 am
  11    5    6 1
  12    5   27 1
  13    5   28 1
  14    6   29 1
  15    6   30 1
  16    7    8 1
  17    7    9 2
  18    9   13 1
  19   10   11 1
  20   10   14 1
  21   11   12 2
  22   11   31 1
  23   12   13 1
  24   13   14 2
  25   14   32 1
  26   15   16 2
  27   15   17 1
  28   17   18 ar
  29   17   22 ar
  30   18   19 ar
  31   18   24 1
  32   19   20 ar
  33   19   23 1
  34   20   21 ar
  35   20   33 1
  36   21   22 ar
  37   21   34 1
  38   22   35 1

#	End of record

