#	Name: ASD01913297
#	Creating user name:	WinNT
#	Creation time:	15. 06. 2019 20:01

#	Modifying user name:	WinNT
#	Modification time:	15. 06. 2019 20:01

#	Program:	/corina/corina34_cracker 3.40 0067  02.08.2006

@<TRIPOS>MOLECULE
ASD01913297
  49   52    0    0    0
SMALL
NO_CHARGES


@<TRIPOS>ATOM
   1 C1            -0.0187     1.5258     0.0104 C.3     
   2 C2             0.0021    -0.0041     0.0020 C.3     
   3 C3            -1.4331    -0.5346     0.0013 C.3     
   4 C4            -2.1553    -0.0506     1.2612 C.3     
   5 C5            -2.1590     1.4737     1.2945 C.3     
   6 C6            -0.7351     2.0182     1.2705 C.3     
   7 C7            -2.8924     1.9716     2.5562 C.3     
   8 C8            -3.6154     3.2289     2.0217 C.3     
   9 N9            -3.7753     3.0059     0.5794 N.am    
  10 C10           -2.9596     2.0286     0.1431 C.2     
  11 C11           -4.6621     3.7173    -0.2362 C.ar    
  12 C12           -5.4646     4.7098     0.3094 C.ar    
  13 N13            1.3557     2.0331     0.0000 N.am    
  14 C14            2.0119     2.1773    -1.1683 C.2     
  15 O15            1.4637     1.8865    -2.2130 O.2     
  16 C16            3.4019     2.6903    -1.1788 C.ar    
  17 C17            4.0747     2.8370    -2.3894 C.ar    
  18 O18           -2.8794     1.6505    -1.0066 O.2     
  19 C19            5.3746     3.3187    -2.3833 C.ar    
  20 C20            5.9560     3.6368    -1.1662 C.ar    
  21 C21            5.2272     3.4656     0.0003 C.ar    
  22 N22            3.9936     3.0115    -0.0347 N.ar    
  23 C23           -6.3400     5.4116    -0.5001 C.ar    
  24 C24           -6.4151     5.1238    -1.8527 C.ar    
  25 C25           -5.6162     4.1352    -2.3969 C.ar    
  26 C26           -4.7369     3.4354    -1.5943 C.ar    
  27 F27           -7.1222     6.3777     0.0292 F       
  28 F28           -2.1044    -0.0625    -1.1317 F       
  29 F29           -1.4134    -1.9333    -0.0170 F       
  30 H30           -0.5462     1.8870    -0.8724 H       
  31 H31            0.5196    -0.3554    -0.8906 H       
  32 H32            0.5223    -0.3651     0.8892 H       
  33 H33           -3.1822    -0.4160     1.2540 H       
  34 H34           -1.6410    -0.4317     2.1435 H       
  35 H35           -0.1983     1.6697     2.1528 H       
  36 H36           -0.7631     3.1078     1.2698 H       
  37 H37           -3.6087     1.2299     2.9096 H       
  38 H38           -2.1838     2.2331     3.3420 H       
  39 H39           -4.5905     3.3340     2.4974 H       
  40 H40           -3.0097     4.1171     2.2011 H       
  41 H41           -5.4059     4.9337     1.3643 H       
  42 H42            1.7933     2.2652     0.8340 H       
  43 H43            3.5906     2.5788    -3.3197 H       
  44 H44            5.9219     3.4429    -3.3060 H       
  45 H45            6.9672     4.0140    -1.1269 H       
  46 H46            5.6771     3.7125     0.9505 H       
  47 H47           -7.0992     5.6721    -2.4833 H       
  48 H48           -5.6769     3.9129    -3.4521 H       
  49 H49           -4.1134     2.6635    -2.0209 H       
@<TRIPOS>BOND
   1    1    2 1
   2    1   13 1
   3    1    6 1
   4    1   30 1
   5    2    3 1
   6    2   31 1
   7    2   32 1
   8    3    4 1
   9    3   28 1
  10    3   29 1
  11    4    5 1
  12    4   33 1
  13    4   34 1
  14    5    6 1
  15    5    7 1
  16    5   10 1
  17    6   35 1
  18    6   36 1
  19    7    8 1
  20    7   37 1
  21    7   38 1
  22    8    9 1
  23    8   39 1
  24    8   40 1
  25    9   10 am
  26    9   11 1
  27   10   18 2
  28   11   12 ar
  29   11   26 ar
  30   12   23 ar
  31   12   41 1
  32   13   14 am
  33   13   42 1
  34   14   15 2
  35   14   16 1
  36   16   17 ar
  37   16   22 ar
  38   17   19 ar
  39   17   43 1
  40   19   20 ar
  41   19   44 1
  42   20   21 ar
  43   20   45 1
  44   21   22 ar
  45   21   46 1
  46   23   24 ar
  47   23   27 1
  48   24   25 ar
  49   24   47 1
  50   25   26 ar
  51   25   48 1
  52   26   49 1

#	End of record

