#	Name: ASD00840562
#	Creating user name:	WinNT
#	Creation time:	15. 06. 2019 18:39

#	Modifying user name:	WinNT
#	Modification time:	15. 06. 2019 18:39

#	Program:	/corina/corina34_cracker 3.40 0067  02.08.2006

@<TRIPOS>MOLECULE
ASD00840562
  97  102    0    0    0
SMALL
NO_CHARGES


@<TRIPOS>ATOM
   1 N1             0.9733     1.4203    -0.8184 N.ar    
   2 C2             1.2506     0.1301    -0.9052 C.ar    
   3 C3             1.1947    -0.6830     0.2198 C.ar    
   4 C4             0.8441    -0.1255     1.4368 C.ar    
   5 C5             0.5605     1.2327     1.4857 C.ar    
   6 C6             0.6360     1.9805     0.3278 C.ar    
   7 C7             1.5110    -2.1528     0.1161 C.3     
   8 C8             1.2551    -2.8450     1.4379 C.2     
   9 C9             0.6847    -2.8003    -0.9970 C.3     
  10 C10           -0.7773    -2.5158    -0.7676 C.2     
  11 N11           -1.7045    -3.0504    -1.5868 N.am    
  12 O12           -1.1196    -1.8057     0.1541 O.2     
  13 C13           -3.1222    -2.6900    -1.4490 C.3     
  14 C14           -3.9461    -3.9740    -1.3107 C.3     
  15 C15           -3.6446    -4.8986    -2.4924 C.3     
  16 C16           -2.1609    -5.2735    -2.4833 C.3     
  17 C17           -1.3159    -3.9999    -2.6385 C.3     
  18 N18           -4.4579    -6.1168    -2.3805 N.3     
  19 C19           -4.2836    -6.9766    -3.5595 C.3     
  20 C20           -5.0829    -8.2677    -3.3687 C.3     
  21 N21           -6.5005    -7.9378    -3.1661 N.3     
  22 C22           -6.6748    -7.0781    -1.9871 C.3     
  23 C23           -5.8755    -5.7869    -2.1778 C.3     
  24 C24           -7.3138    -9.1560    -3.0542 C.3     
  25 O25            0.1916    -2.9239     2.0156 O.2     
  26 N26            2.4274    -3.3552     1.8510 N.am    
  27 C27            2.9881    -2.3606    -0.1278 C.ar    
  28 C28            3.4645    -3.0888     0.9554 C.ar    
  29 C29            3.8308    -1.9786    -1.1473 C.ar    
  30 C30            5.1719    -2.3206    -1.1000 C.ar    
  31 C31            5.6596    -3.0468    -0.0251 C.ar    
  32 C32            4.8142    -3.4304     0.9983 C.ar    
  33 Cl33           6.2385    -1.8418    -2.3833 Cl      
  34 F34            6.9677    -3.3812     0.0223 F       
  35 C35            2.3450    -5.9028     2.8888 C.ar    
  36 C36            1.0905    -6.3279     2.4756 C.ar    
  37 C37            3.3804    -6.8109     3.0035 C.ar    
  38 C38            3.1696    -8.1436     2.7068 C.ar    
  39 C39            1.9165    -8.5738     2.2931 C.ar    
  40 C40            0.8762    -7.6651     2.1777 C.ar    
  41 O41            1.7096    -9.8849     2.0017 O.3     
  42 O42            0.0725    -5.4346     2.3634 O.3     
  43 C43            2.8265   -10.7651     2.1433 C.3     
  44 C44           -1.1918    -5.9425     1.9327 C.3     
  45 C45           -2.2054    -4.7984     1.8669 C.3     
  46 C46           -8.7268    -8.7858    -2.5991 C.3     
  47 S47            2.6199    -4.2026     3.2606 S.o2    
  48 O48            3.9911    -4.0860     3.6149 O.2     
  49 O49            1.5591    -3.8026     4.1173 O.2     
  50 O50            1.5925    -0.4045    -2.1044 O.3     
  51 C51            2.0540    -0.2802    -4.4733 C.3     
  52 C52            1.5236     0.4572    -3.2422 C.3     
  53 H53            0.7920    -0.7330     2.3281 H       
  54 H54            0.2833     1.6991     2.4195 H       
  55 H55            0.4167     3.0375     0.3605 H       
  56 H56            0.9880    -2.3901    -1.9602 H       
  57 H57            0.8502    -3.8777    -0.9925 H       
  58 H58           -3.2574    -2.0716    -0.5616 H       
  59 H59           -3.4471    -2.1407    -2.3327 H       
  60 H60           -3.6836    -4.4762    -0.3796 H       
  61 H61           -5.0076    -3.7262    -1.3043 H       
  62 H62           -3.8841    -4.3867    -3.4244 H       
  63 H63           -1.9152    -5.7635    -1.5411 H       
  64 H64           -1.9517    -5.9507    -3.3114 H       
  65 H65           -1.4948    -3.5601    -3.6196 H       
  66 H66           -0.2595    -4.2472    -2.5337 H       
  67 H67           -4.6423    -6.4545    -4.4465 H       
  68 H68           -3.2274    -7.2173    -3.6811 H       
  69 H69           -4.9783    -8.8944    -4.2544 H       
  70 H70           -4.7060    -8.8033    -2.4974 H       
  71 H71           -7.7310    -6.8374    -1.8655 H       
  72 H72           -6.3161    -7.6002    -1.1000 H       
  73 H73           -5.9801    -5.1602    -1.2921 H       
  74 H74           -6.2524    -5.2513    -3.0492 H       
  75 H75           -7.3624    -9.6508    -4.0242 H       
  76 H76           -6.8619    -9.8289    -2.3254 H       
  77 H77            3.4463    -1.4131    -1.9832 H       
  78 H78            5.2007    -3.9959     1.8333 H       
  79 H79            4.3562    -6.4780     3.3253 H       
  80 H80            3.9805    -8.8512     2.7965 H       
  81 H81           -0.0996    -7.9980     1.8562 H       
  82 H82            3.6302   -10.4414     1.4820 H       
  83 H83            3.1756   -10.7460     3.1757 H       
  84 H84            2.5256   -11.7791     1.8802 H       
  85 H85           -1.0857    -6.3912     0.9450 H       
  86 H86           -1.5402    -6.6964     2.6387 H       
  87 H87           -2.3115    -4.3497     2.8546 H       
  88 H88           -1.8571    -4.0445     1.1609 H       
  89 H89           -3.1698    -5.1858     1.5383 H       
  90 H90           -8.6782    -8.2911    -1.6291 H       
  91 H91           -9.1787    -8.1130    -3.3279 H       
  92 H92           -9.3303    -9.6898    -2.5161 H       
  93 H93            2.0834     0.4035    -5.3217 H       
  94 H94            3.0588    -0.6505    -4.2702 H       
  95 H95            1.3977    -1.1190    -4.7052 H       
  96 H96            0.4881     0.7514    -3.4130 H       
  97 H97            2.1287     1.3458    -3.0622 H       
@<TRIPOS>BOND
   1    1    2 ar
   2    1    6 ar
   3    2    3 ar
   4    2   50 1
   5    3    4 ar
   6    3    7 1
   7    4    5 ar
   8    4   53 1
   9    5    6 ar
  10    5   54 1
  11    6   55 1
  12    7    8 1
  13    7    9 1
  14    7   27 1
  15    8   25 2
  16    8   26 am
  17    9   10 1
  18    9   56 1
  19    9   57 1
  20   10   11 am
  21   10   12 2
  22   11   13 1
  23   11   17 1
  24   13   14 1
  25   13   58 1
  26   13   59 1
  27   14   15 1
  28   14   60 1
  29   14   61 1
  30   15   16 1
  31   15   18 1
  32   15   62 1
  33   16   17 1
  34   16   63 1
  35   16   64 1
  36   17   65 1
  37   17   66 1
  38   18   19 1
  39   18   23 1
  40   19   20 1
  41   19   67 1
  42   19   68 1
  43   20   21 1
  44   20   69 1
  45   20   70 1
  46   21   22 1
  47   21   24 1
  48   22   23 1
  49   22   71 1
  50   22   72 1
  51   23   73 1
  52   23   74 1
  53   24   46 1
  54   24   75 1
  55   24   76 1
  56   26   47 am
  57   26   28 1
  58   27   28 ar
  59   27   29 ar
  60   28   32 ar
  61   29   30 ar
  62   29   77 1
  63   30   31 ar
  64   30   33 1
  65   31   32 ar
  66   31   34 1
  67   32   78 1
  68   35   36 ar
  69   35   37 ar
  70   35   47 1
  71   36   42 1
  72   36   40 ar
  73   37   38 ar
  74   37   79 1
  75   38   39 ar
  76   38   80 1
  77   39   40 ar
  78   39   41 1
  79   40   81 1
  80   41   43 1
  81   42   44 1
  82   43   82 1
  83   43   83 1
  84   43   84 1
  85   44   45 1
  86   44   85 1
  87   44   86 1
  88   45   87 1
  89   45   88 1
  90   45   89 1
  91   46   90 1
  92   46   91 1
  93   46   92 1
  94   47   48 2
  95   47   49 2
  96   50   52 1
  97   51   52 1
  98   51   93 1
  99   51   94 1
 100   51   95 1
 101   52   96 1
 102   52   97 1

#	End of record

