#	Name: ASD01150808
#	Creating user name:	WinNT
#	Creation time:	15. 06. 2019 19:05

#	Modifying user name:	WinNT
#	Modification time:	15. 06. 2019 19:05

#	Program:	/corina/corina34_cracker 3.40 0067  02.08.2006

@<TRIPOS>MOLECULE
ASD01150808
  60   62    0    0    0
SMALL
NO_CHARGES


@<TRIPOS>ATOM
   1 C1             0.0475     1.5388     0.0723 C.3     
   2 N2            -0.0053     0.0879    -0.1528 N.3     
   3 C3             0.5280    -0.2689    -1.4732 C.3     
   4 C4             1.9966     0.1535    -1.5681 C.3     
   5 C5             2.0986     1.6633    -1.3420 C.3     
   6 C6             3.5638     2.0991    -1.3782 C.3     
   7 C7             3.6467     3.6111    -1.1546 C.3     
   8 C8             3.0387     3.9642     0.2038 C.3     
   9 C9             1.5753     3.5173     0.2447 C.3     
  10 C10            1.5031     2.0055     0.0267 C.3     
  11 C11           -1.3723    -0.4220     0.0182 C.3     
  12 C12           -0.6271    -4.0249    -0.0395 C.ar    
  13 N13           -0.5998    -2.7427     0.2644 N.ar    
  14 C14           -1.4102    -1.8862    -0.3361 C.ar    
  15 C15           -2.2950    -2.3542    -1.2951 C.ar    
  16 C16           -2.2942    -3.7088    -1.5875 C.ar    
  17 N17           -1.4545    -4.5054    -0.9457 N.ar    
  18 C18           -3.2372    -4.2673    -2.6219 C.3     
  19 S19           -1.8875    -0.2038     1.7438 S.3     
  20 C20           -4.3044     0.7498     0.8887 C.3     
  21 C21           -3.0506     1.1851     1.6498 C.3     
  22 C22           -3.4383     1.6221     3.0639 C.3     
  23 C23           -2.2059     2.1741     3.7831 C.3     
  24 C24           -2.5936     2.6111     5.1971 C.3     
  25 C25           -1.3612     3.1632     5.9163 C.3     
  26 H26           -0.5224     2.0484    -0.7047 H       
  27 H27           -0.3786     1.7713     1.0482 H       
  28 H28            0.4507    -1.3467    -1.6164 H       
  29 H29           -0.0467     0.2411    -2.2463 H       
  30 H30            2.5760    -0.3690    -0.8069 H       
  31 H31            2.3839    -0.0940    -2.5564 H       
  32 H32            1.5444     2.1860    -2.1216 H       
  33 H33            4.1162     1.5842    -0.5921 H       
  34 H34            3.9936     1.8506    -2.3485 H       
  35 H35            4.6904     3.9246    -1.1775 H       
  36 H36            3.0966     4.1251    -1.9429 H       
  37 H37            3.5948     3.4579     0.9928 H       
  38 H38            3.0932     5.0420     0.3566 H       
  39 H39            1.1457     3.7659     1.2151 H       
  40 H40            1.0174     4.0254    -0.5419 H       
  41 H41            2.0714     1.4991     0.8069 H       
  42 H42           -2.0495     0.1277    -0.6355 H       
  43 H43            0.0497    -4.6991     0.4643 H       
  44 H44           -2.9689    -1.6794    -1.8020 H       
  45 H45           -2.7580    -4.2442    -3.6006 H       
  46 H46           -3.4900    -5.2961    -2.3653 H       
  47 H47           -4.1457    -3.6656    -2.6478 H       
  48 H48           -4.9666     1.6059     0.7596 H       
  49 H49           -4.0193     0.3603    -0.0886 H       
  50 H50           -4.8206    -0.0270     1.4529 H       
  51 H51           -2.5799     2.0185     1.1282 H       
  52 H52           -4.2035     2.3963     3.0079 H       
  53 H53           -3.8274     0.7659     3.6149 H       
  54 H54           -1.4407     1.3999     3.8391 H       
  55 H55           -1.8168     3.0303     3.2321 H       
  56 H56           -3.3588     3.3854     5.1412 H       
  57 H57           -2.9827     1.7549     5.7482 H       
  58 H58           -0.5960     2.3889     5.9723 H       
  59 H59           -0.9721     4.0194     5.3653 H       
  60 H60           -1.6374     3.4745     6.9237 H       
@<TRIPOS>BOND
   1    1    2 1
   2    1   10 1
   3    1   26 1
   4    1   27 1
   5    2    3 1
   6    2   11 1
   7    3    4 1
   8    3   28 1
   9    3   29 1
  10    4    5 1
  11    4   30 1
  12    4   31 1
  13    5    6 1
  14    5   10 1
  15    5   32 1
  16    6    7 1
  17    6   33 1
  18    6   34 1
  19    7    8 1
  20    7   35 1
  21    7   36 1
  22    8    9 1
  23    8   37 1
  24    8   38 1
  25    9   10 1
  26    9   39 1
  27    9   40 1
  28   10   41 1
  29   11   14 1
  30   11   19 1
  31   11   42 1
  32   12   13 ar
  33   12   17 ar
  34   12   43 1
  35   13   14 ar
  36   14   15 ar
  37   15   16 ar
  38   15   44 1
  39   16   17 ar
  40   16   18 1
  41   18   45 1
  42   18   46 1
  43   18   47 1
  44   19   21 1
  45   20   21 1
  46   20   48 1
  47   20   49 1
  48   20   50 1
  49   21   22 1
  50   21   51 1
  51   22   23 1
  52   22   52 1
  53   22   53 1
  54   23   24 1
  55   23   54 1
  56   23   55 1
  57   24   25 1
  58   24   56 1
  59   24   57 1
  60   25   58 1
  61   25   59 1
  62   25   60 1

#	End of record

