#	Name: ASD01901579
#	Creating user name:	WinNT
#	Creation time:	15. 06. 2019 19:54

#	Modifying user name:	WinNT
#	Modification time:	15. 06. 2019 19:54

#	Program:	/corina/corina34_cracker 3.40 0067  02.08.2006

@<TRIPOS>MOLECULE
ASD01901579
  53   57    0    0    0
SMALL
NO_CHARGES


@<TRIPOS>ATOM
   1 C1            -0.0178     1.4627     0.0101 C.3     
   2 N2             0.0021    -0.0041     0.0020 N.am    
   3 C3             0.0146    -0.6184    -1.1966 C.2     
   4 O4             0.0378     0.0696    -2.2007 O.2     
   5 N5            -0.0020    -1.9532    -1.3245 N.am    
   6 C6            -0.1941    -2.7381    -0.2470 C.2     
   7 O7             0.0043    -3.9296    -0.3114 O.2     
   8 C8            -0.6872    -2.1099     1.0289 C.3     
   9 C9             0.0242    -0.7617     1.2506 C.3     
  10 C10           -0.7334    -0.0399     2.3614 C.3     
  11 C11            0.1874     0.8437     3.1980 C.3     
  12 O12            1.2097     0.0223     3.7716 O.3     
  13 C13            1.9696    -0.6657     2.8786 C.ar    
  14 N14            3.2130    -0.9762     3.2156 N.ar    
  15 C15            4.0207    -1.6129     2.3918 C.ar    
  16 C16            3.5881    -1.9820     1.1345 C.ar    
  17 C17            2.2856    -1.6921     0.7538 C.ar    
  18 C18            1.4500    -1.0416     1.6504 C.ar    
  19 C19            0.1757    -2.5373    -2.5871 C.ar    
  20 C20           -0.9273    -2.7889    -3.3968 C.ar    
  21 F21           -2.1673    -2.4698    -2.9659 F       
  22 C22           -0.7562    -3.3635    -4.6397 C.ar    
  23 C23            0.5273    -3.6929    -5.0848 C.ar    
  24 C24            1.6332    -3.4387    -4.2686 C.ar    
  25 C25            1.4551    -2.8586    -3.0292 C.ar    
  26 F26            2.5239    -2.6075    -2.2419 F       
  27 C27            0.7086    -4.2898    -6.3738 C.1     
  28 C28            0.8574    -4.7791    -7.4306 C.1     
  29 C29            1.0387    -5.3760    -8.7195 C.ar    
  30 C30           -0.0652    -5.6261    -9.5391 C.ar    
  31 C31            0.1173    -6.2012   -10.7793 C.ar    
  32 C32            1.3896    -6.5306   -11.2126 C.ar    
  33 C33            2.4874    -6.2863   -10.4064 C.ar    
  34 C34            2.3211    -5.7060    -9.1663 C.ar    
  35 H35            1.0048     1.8400     0.0023 H       
  36 H36           -0.5450     1.8238    -0.8730 H       
  37 H37           -0.5280     1.8142     0.9069 H       
  38 H38           -1.7607    -1.9370     0.9644 H       
  39 H39           -0.4705    -2.7663     1.8709 H       
  40 H40           -1.5523     0.5510     1.9473 H       
  41 H41           -1.1878    -0.7972     3.0216 H       
  42 H42            0.6482     1.6184     2.5902 H       
  43 H43           -0.3830     1.3140     4.0037 H       
  44 H44            5.0274    -1.8463     2.7026 H       
  45 H45            4.2553    -2.4911     0.4541 H       
  46 H46            1.9395    -1.9634    -0.2313 H       
  47 H47           -1.6130    -3.5588    -5.2676 H       
  48 H48            2.6262    -3.6923    -4.6092 H       
  49 H49           -1.0587    -5.3699    -9.2021 H       
  50 H50           -0.7349    -6.3954   -11.4137 H       
  51 H51            1.5264    -6.9807   -12.1847 H       
  52 H52            3.4774    -6.5463   -10.7510 H       
  53 H53            3.1793    -5.5112    -8.5402 H       
@<TRIPOS>BOND
   1    1    2 1
   2    1   35 1
   3    1   36 1
   4    1   37 1
   5    2    9 1
   6    2    3 am
   7    3    4 2
   8    3    5 am
   9    5    6 am
  10    5   19 1
  11    6    7 2
  12    6    8 1
  13    8    9 1
  14    8   38 1
  15    8   39 1
  16    9   18 1
  17    9   10 1
  18   10   11 1
  19   10   40 1
  20   10   41 1
  21   11   12 1
  22   11   42 1
  23   11   43 1
  24   12   13 1
  25   13   18 ar
  26   13   14 ar
  27   14   15 ar
  28   15   16 ar
  29   15   44 1
  30   16   17 ar
  31   16   45 1
  32   17   18 ar
  33   17   46 1
  34   19   25 ar
  35   19   20 ar
  36   20   21 1
  37   20   22 ar
  38   22   23 ar
  39   22   47 1
  40   23   24 ar
  41   23   27 1
  42   24   25 ar
  43   24   48 1
  44   25   26 1
  45   27   28 3
  46   28   29 1
  47   29   34 ar
  48   29   30 ar
  49   30   31 ar
  50   30   49 1
  51   31   32 ar
  52   31   50 1
  53   32   33 ar
  54   32   51 1
  55   33   34 ar
  56   33   52 1
  57   34   53 1

#	End of record

