#	Name: ASD03091640
#	Creating user name:	WinNT
#	Creation time:	15. 06. 2019 20:31

#	Modifying user name:	WinNT
#	Modification time:	15. 06. 2019 20:31

#	Program:	/corina/corina34_cracker 3.40 0067  02.08.2006

@<TRIPOS>MOLECULE
ASD03091640
  18   19    0    0    0
SMALL
NO_CHARGES


@<TRIPOS>ATOM
   1 C1            -0.0161     1.3337     0.0094 C.2     
   2 C2             0.0021    -0.0041     0.0020 C.2     
   3 C3             1.2765    -0.5925    -0.0133 C.ar    
   4 C4             2.3065     0.3557    -0.0181 C.ar    
   5 S5             1.6173     1.9750    -0.0028 S.3     
   6 C6             3.6423    -0.0652    -0.0327 C.ar    
   7 C7             3.9445    -1.4075    -0.0423 C.ar    
   8 C8             2.9243    -2.3533    -0.0381 C.ar    
   9 C9             1.6194    -1.9666    -0.0240 C.ar    
  10 C10           -1.2349     2.1525     0.0198 C.2     
  11 O11           -2.3266     1.6176     0.0223 O.2     
  12 O12           -1.1434     3.4978     0.0267 O.3     
  13 F13            4.6367     0.8493    -0.0377 F       
  14 F14            3.2318    -3.6688    -0.0486 F       
  15 H15           -0.9037    -0.5923     0.0078 H       
  16 H16            4.9760    -1.7275    -0.0536 H       
  17 H17            0.8393    -2.7135    -0.0205 H       
  18 H18           -1.9732     3.9943     0.0334 H       
@<TRIPOS>BOND
   1    1    2 2
   2    1    5 1
   3    1   10 1
   4    2    3 1
   5    2   15 1
   6    3    4 ar
   7    3    9 ar
   8    4    5 1
   9    4    6 ar
  10    6    7 ar
  11    6   13 1
  12    7    8 ar
  13    7   16 1
  14    8    9 ar
  15    8   14 1
  16    9   17 1
  17   10   11 2
  18   10   12 1
  19   12   18 1

#	End of record

