#	Name: ASD03091209
#	Creating user name:	WinNT
#	Creation time:	15. 06. 2019 20:30

#	Modifying user name:	WinNT
#	Modification time:	15. 06. 2019 20:30

#	Program:	/corina/corina34_cracker 3.40 0067  02.08.2006

@<TRIPOS>MOLECULE
ASD03091209
  48   52    0    0    0
SMALL
NO_CHARGES


@<TRIPOS>ATOM
   1 N1            -0.0157     1.3034     0.0083 N.2     
   2 C2             0.0021    -0.0038     0.0375 C.2     
   3 N3             1.1591    -0.7348     0.0632 N.am    
   4 C4             2.3617    -0.1137     0.0588 C.2     
   5 C5             2.3659     1.3564     0.0256 C.ar    
   6 C6             3.5519     2.0869     0.0185 C.ar    
   7 C7             3.4971     3.4702    -0.0132 C.ar    
   8 C8             2.2670     4.1278    -0.0374 C.ar    
   9 C9             1.0964     3.4254    -0.0304 C.ar    
  10 C10            1.1219     2.0276     0.0010 C.ar    
  11 O11            3.4003    -0.7481     0.0817 O.2     
  12 N12            7.4091     4.9770    -0.8834 N.3     
  13 C13            7.1450     4.1122     0.2766 C.3     
  14 C14            5.8528     3.3339     0.0834 C.3     
  15 N15            4.6813     4.2121    -0.0206 N.3     
  16 C16            4.7690     5.0523    -1.2231 C.3     
  17 C17            5.3906     6.3992    -0.8855 C.3     
  18 C18            6.8832     6.3268    -0.6340 C.3     
  19 C19            7.0224     4.4515    -2.1752 C.3     
  20 C20            5.5162     4.2954    -2.3059 C.3     
  21 C21           -1.2876    -0.7258     0.0436 C.ar    
  22 C22           -2.4889    -0.0152     0.0184 C.ar    
  23 C23           -3.6899    -0.6959     0.0238 C.ar    
  24 C24           -3.7039    -2.0804     0.0545 C.ar    
  25 C25           -2.5166    -2.7895     0.0799 C.ar    
  26 C26           -1.3095    -2.1211     0.0686 C.ar    
  27 Cl27          -5.1854     0.1852    -0.0074 Cl      
  28 H28            1.1169    -1.7036     0.0851 H       
  29 H29            4.5050     1.5793     0.0379 H       
  30 H30            2.2404     5.2072    -0.0617 H       
  31 H31            0.1518     3.9486    -0.0486 H       
  32 H32            7.9713     3.4118     0.3978 H       
  33 H33            7.0628     4.7279     1.1723 H       
  34 H34            5.9311     2.7403    -0.8274 H       
  35 H35            5.7158     2.6614     0.9302 H       
  36 H36            3.7563     5.2283    -1.5860 H       
  37 H37            5.2084     7.0854    -1.7126 H       
  38 H38            4.9047     6.7946     0.0065 H       
  39 H39            7.0833     6.6009     0.4018 H       
  40 H40            7.3896     7.0332    -1.2918 H       
  41 H41            7.3763     5.1286    -2.9526 H       
  42 H42            7.4922     3.4781    -2.3159 H       
  43 H43            5.2625     3.2375    -2.2380 H       
  44 H44            5.2043     4.6710    -3.2804 H       
  45 H45           -2.4787     1.0645    -0.0048 H       
  46 H46           -4.6459    -2.6087     0.0589 H       
  47 H47           -2.5343    -3.8691     0.1042 H       
  48 H48           -0.3834    -2.6765     0.0837 H       
@<TRIPOS>BOND
   1    1    2 2
   2    1   10 1
   3    2    3 1
   4    2   21 1
   5    3    4 am
   6    3   28 1
   7    4    5 1
   8    4   11 2
   9    5    6 ar
  10    5   10 ar
  11    6    7 ar
  12    6   29 1
  13    7    8 ar
  14    7   15 1
  15    8    9 ar
  16    8   30 1
  17    9   10 ar
  18    9   31 1
  19   12   13 1
  20   12   18 1
  21   12   19 1
  22   13   14 1
  23   13   32 1
  24   13   33 1
  25   14   15 1
  26   14   34 1
  27   14   35 1
  28   15   16 1
  29   16   17 1
  30   16   20 1
  31   16   36 1
  32   17   18 1
  33   17   37 1
  34   17   38 1
  35   18   39 1
  36   18   40 1
  37   19   20 1
  38   19   41 1
  39   19   42 1
  40   20   43 1
  41   20   44 1
  42   21   22 ar
  43   21   26 ar
  44   22   23 ar
  45   22   45 1
  46   23   24 ar
  47   23   27 1
  48   24   25 ar
  49   24   46 1
  50   25   26 ar
  51   25   47 1
  52   26   48 1

#	End of record

