#	Name: ASD05740050
#	Creating user name:	WinNT
#	Creation time:	15. 06. 2019 21:02

#	Modifying user name:	WinNT
#	Modification time:	15. 06. 2019 21:02

#	Program:	/corina/corina34_cracker 3.40 0067  02.08.2006

@<TRIPOS>MOLECULE
ASD05740050
  48   49    0    0    0
SMALL
NO_CHARGES


@<TRIPOS>ATOM
   1 C1            -0.0225     1.8097     0.0120 C.3     
   2 C2            -0.4836    -1.1929     6.0995 C.3     
   3 N3            -4.4884    -5.7928     5.3292 N.ar    
   4 C4            -5.5725    -5.1496     5.7428 C.ar    
   5 C5            -3.3031    -5.2199     5.2971 C.ar    
   6 C6            -3.1559    -3.8931     5.7064 C.ar    
   7 C7            -4.2873    -3.1787     6.1522 C.ar    
   8 C8            -5.5123    -3.8303     6.1659 C.ar    
   9 C9            -1.8563    -3.2208     5.6862 C.2     
  10 C10           -1.7990    -1.9282     6.1013 C.2     
  11 C11           -2.9720    -1.2756     6.5344 C.2     
  12 O12           -4.1623    -1.8986     6.5511 O.3     
  13 C13           -0.3472    -0.4106     4.8187 C.2     
  14 C14           -0.7754     0.8452     4.6977 C.2     
  15 O15           -2.9039    -0.1172     6.9038 O.2     
  16 O16           -6.7644    -5.7956     5.7517 O.3     
  17 C17           -0.6176    -3.9409     5.2191 C.3     
  18 C18            0.2382    -0.9416     3.6803 C.2     
  19 C19            0.2830    -0.1073     2.6315 C.2     
  20 S20           -0.4498     1.4299     3.0714 S.3     
  21 N21            0.8226    -0.4138     1.3808 N.am    
  22 S22            0.0021    -0.0041     0.0020 S.o2    
  23 O23           -1.3056    -0.5216     0.2056 O.2     
  24 O24            0.8248    -0.4858    -1.0517 O.2     
  25 C25           -6.7699    -7.1531     5.3054 C.3     
  26 H26            1.0001     2.1870     0.0043 H       
  27 H27           -0.5497     2.1708    -0.8711 H       
  28 H28           -0.5327     2.1613     0.9088 H       
  29 H29           -0.4480    -0.5097     6.9481 H       
  30 H30            0.3337    -1.9101     6.1759 H       
  31 H31           -2.4439    -5.7769     4.9538 H       
  32 H32           -6.4031    -3.3190     6.4997 H       
  33 H33           -1.2511     1.4177     5.4803 H       
  34 H34           -0.8764    -4.9600     4.9318 H       
  35 H35           -0.1949    -3.4178     4.3613 H       
  36 H36            0.1144    -3.9658     6.0263 H       
  37 H37            0.6281    -1.9481     3.6412 H       
  38 H38            1.6782    -0.8667     1.3196 H       
  39 H39           -7.7833    -7.5504     5.3630 H       
  40 H40           -6.4201    -7.1979     4.2741 H       
  41 H41           -6.1104    -7.7465     5.9388 H       
  42 C42            7.2054     9.8563    13.8164 C.3     
  43 N43            7.2253     8.3915    13.8083 N.2     
  44 C44            7.7660     7.7790    12.8623 C.1     
  45 O45            8.2885     7.1870    11.9481 O.2     
  46 H46            8.2280    10.2336    13.8086 H       
  47 H47            6.6782    10.2174    12.9333 H       
  48 H48            6.6952    10.2079    14.7132 H       
@<TRIPOS>BOND
   1    1   22 1
   2    1   26 1
   3    1   27 1
   4    1   28 1
   5    2   10 1
   6    2   13 1
   7    2   29 1
   8    2   30 1
   9    3    4 ar
  10    3    5 ar
  11    4   16 1
  12    4    8 ar
  13    5    6 ar
  14    5   31 1
  15    6    7 ar
  16    6    9 1
  17    7    8 ar
  18    7   12 1
  19    8   32 1
  20    9   10 2
  21    9   17 1
  22   10   11 1
  23   11   12 1
  24   11   15 2
  25   13   14 2
  26   13   18 1
  27   14   20 1
  28   14   33 1
  29   16   25 1
  30   17   34 1
  31   17   35 1
  32   17   36 1
  33   18   19 2
  34   18   37 1
  35   19   20 1
  36   19   21 1
  37   21   22 am
  38   21   38 1
  39   22   23 2
  40   22   24 2
  41   25   39 1
  42   25   40 1
  43   25   41 1
  44   42   43 1
  45   42   46 1
  46   42   47 1
  47   42   48 1
  48   43   44 2
  49   44   45 2

#	End of record

