#	Name: ASD01813054
#	Creating user name:	WinNT
#	Creation time:	15. 06. 2019 19:29

#	Modifying user name:	WinNT
#	Modification time:	15. 06. 2019 19:29

#	Program:	/corina/corina34_cracker 3.40 0067  02.08.2006

@<TRIPOS>MOLECULE
ASD01813054
  53   57    0    0    0
SMALL
NO_CHARGES


@<TRIPOS>ATOM
   1 C1            -1.9067     1.4014     0.0375 C.2     
   2 C2            -2.0105     0.0626     0.0828 C.2     
   3 N3            -0.9003    -0.7284    -0.0086 N.pl3   
   4 C4             0.3411    -0.2442    -0.1332 C.2     
   5 C5             0.5524     1.1197    -0.1789 C.2     
   6 C6            -0.6216     1.9978    -0.0941 C.2     
   7 O7            -0.4972     3.2118    -0.1282 O.2     
   8 C8            -1.0779    -2.1820     0.0326 C.3     
   9 C9            -0.8981    -2.6702     1.4469 C.ar    
  10 C10           -3.0930     2.3253     0.1132 C.3     
  11 C11           -4.3118     1.5968     0.6754 C.3     
  12 C12           -4.4911     0.2908    -0.1086 C.3     
  13 C13           -3.3354    -0.6416     0.2450 C.3     
  14 C14           -2.0039    -2.8622     2.2554 C.ar    
  15 C15           -1.8450    -3.3087     3.5517 C.ar    
  16 C16           -0.5677    -3.5666     4.0453 C.ar    
  17 C17            0.5426    -3.3719     3.2263 C.ar    
  18 C18            0.3717    -2.9300     1.9300 C.ar    
  19 C19           -0.3906    -4.0464     5.4383 C.ar    
  20 C20           -1.5076    -4.2401     6.2572 C.ar    
  21 C21           -1.3624    -4.6810     7.5411 C.ar    
  22 C22           -0.0947    -4.9440     8.0520 C.ar    
  23 C23            1.0371    -4.7527     7.2370 C.ar    
  24 C24            0.8831    -4.3076     5.9245 C.ar    
  25 O25           -2.7744     3.4316     0.9597 O.3     
  26 N26            0.3573    -5.3867     9.2750 N.pl3   
  27 C27            1.7223    -5.4808     9.2612 C.2     
  28 C28            2.1947    -5.1124     8.0601 C.2     
  29 C29            1.9086     1.6746    -0.3126 C.2     
  30 O30            2.8658     0.9292    -0.3849 O.2     
  31 O31            2.0894     3.0096    -0.3549 O.3     
  32 H32            1.1797    -0.9217    -0.1980 H       
  33 H33           -2.0795    -2.4356    -0.3148 H       
  34 H34           -0.3386    -2.6568    -0.6124 H       
  35 H35           -3.3248     2.6941    -0.8860 H       
  36 H36           -4.1529     1.3738     1.7304 H       
  37 H37           -5.1986     2.2200     0.5599 H       
  38 H38           -5.4370    -0.1759     0.1661 H       
  39 H39           -4.4806     0.4998    -1.1783 H       
  40 H40           -3.3622    -1.5112    -0.4117 H       
  41 H41           -3.4428    -0.9701     1.2787 H       
  42 H42           -2.9934    -2.6620     1.8718 H       
  43 H43           -2.7090    -3.4576     4.1823 H       
  44 H44            1.5348    -3.5699     3.6040 H       
  45 H45            1.2316    -2.7791     1.2942 H       
  46 H46           -2.4954    -4.0385     5.8700 H       
  47 H47           -2.2338    -4.8259     8.1623 H       
  48 H48            1.7477    -4.1594     5.2945 H       
  49 H49           -3.4925     4.0718     1.0573 H       
  50 H50           -0.2080    -5.6002    10.0338 H       
  51 H51            2.3298    -5.8034    10.0938 H       
  52 H52            3.2312    -5.0863     7.7577 H       
  53 H53            2.9985     3.3269    -0.4435 H       
@<TRIPOS>BOND
   1    1    2 2
   2    1   10 1
   3    1    6 1
   4    2    3 1
   5    2   13 1
   6    3    4 1
   7    3    8 1
   8    4    5 2
   9    4   32 1
  10    5    6 1
  11    5   29 1
  12    6    7 2
  13    8    9 1
  14    8   33 1
  15    8   34 1
  16    9   14 ar
  17    9   18 ar
  18   10   11 1
  19   10   25 1
  20   10   35 1
  21   11   12 1
  22   11   36 1
  23   11   37 1
  24   12   13 1
  25   12   38 1
  26   12   39 1
  27   13   40 1
  28   13   41 1
  29   14   15 ar
  30   14   42 1
  31   15   16 ar
  32   15   43 1
  33   16   17 ar
  34   16   19 1
  35   17   18 ar
  36   17   44 1
  37   18   45 1
  38   19   20 ar
  39   19   24 ar
  40   20   21 ar
  41   20   46 1
  42   21   22 ar
  43   21   47 1
  44   22   23 ar
  45   22   26 1
  46   23   24 ar
  47   23   28 1
  48   24   48 1
  49   25   49 1
  50   26   27 1
  51   26   50 1
  52   27   28 2
  53   27   51 1
  54   28   52 1
  55   29   30 2
  56   29   31 1
  57   31   53 1

#	End of record

