#	Name: ASD00122008
#	Creating user name:	WinNT
#	Creation time:	15. 06. 2019 18:31

#	Modifying user name:	WinNT
#	Modification time:	15. 06. 2019 18:31

#	Program:	/corina/corina34_cracker 3.40 0067  02.08.2006

@<TRIPOS>MOLECULE
ASD00122008
  35   35    0    0    0
SMALL
NO_CHARGES


@<TRIPOS>ATOM
   1 C1            -0.0167     1.3839     0.0097 C.ar    
   2 C2             0.0021    -0.0041     0.0020 C.ar    
   3 C3            -1.1830    -0.7167     0.0100 C.ar    
   4 C4            -2.3922    -0.0526     0.0255 C.ar    
   5 C5            -2.4212     1.3431     0.0333 C.ar    
   6 C6            -1.2249     2.0606     0.0306 C.ar    
   7 C7            -3.7152     2.0583     0.0500 C.2     
   8 N8            -4.8695     1.3627     0.0578 N.am    
   9 O9            -3.7379     3.2736     0.0568 O.2     
  10 C10           -6.1517     2.0712     0.0743 C.3     
  11 C11           -7.2364     1.1770    -0.5293 C.3     
  12 C12           -6.5229     2.4202     1.5170 C.3     
  13 C13           -5.5042     3.4135     2.0797 C.3     
  14 C14           -6.9295     0.9301    -2.0077 C.3     
  15 O15            1.1511     2.0791     0.0022 O.3     
  16 C16            2.3597     1.3169    -0.0134 C.3     
  17 H17            0.9457    -0.5293    -0.0105 H       
  18 H18           -1.1619    -1.7964     0.0036 H       
  19 H19           -3.3159    -0.6122     0.0313 H       
  20 H20           -1.2409     3.1404     0.0370 H       
  21 H21           -4.8514     0.3928     0.0524 H       
  22 H22           -6.0683     2.9869    -0.5110 H       
  23 H23           -7.2591     0.2249     0.0010 H       
  24 H24           -8.2052     1.6678    -0.4364 H       
  25 H25           -7.5166     2.8676     1.5384 H       
  26 H26           -6.5194     1.5139     2.1225 H       
  27 H27           -4.5105     2.9661     2.0583 H       
  28 H28           -5.5077     4.3198     1.4742 H       
  29 H29           -5.7687     3.6621     3.1075 H       
  30 H30           -6.9068     1.8821    -2.5380 H       
  31 H31           -5.9607     0.4392    -2.1006 H       
  32 H32           -7.7023     0.2930    -2.4378 H       
  33 H33            2.4014     0.6837     0.8728 H       
  34 H34            2.3845     0.6932    -0.9070 H       
  35 H35            3.2152     1.9923    -0.0179 H       
@<TRIPOS>BOND
   1    1    2 ar
   2    1   15 1
   3    1    6 ar
   4    2    3 ar
   5    2   17 1
   6    3    4 ar
   7    3   18 1
   8    4    5 ar
   9    4   19 1
  10    5    6 ar
  11    5    7 1
  12    6   20 1
  13    7    8 am
  14    7    9 2
  15    8   10 1
  16    8   21 1
  17   10   11 1
  18   10   12 1
  19   10   22 1
  20   11   14 1
  21   11   23 1
  22   11   24 1
  23   12   13 1
  24   12   25 1
  25   12   26 1
  26   13   27 1
  27   13   28 1
  28   13   29 1
  29   14   30 1
  30   14   31 1
  31   14   32 1
  32   15   16 1
  33   16   33 1
  34   16   34 1
  35   16   35 1

#	End of record

