#	Name: ASD03091184
#	Creating user name:	WinNT
#	Creation time:	15. 06. 2019 20:30

#	Modifying user name:	WinNT
#	Modification time:	15. 06. 2019 20:30

#	Program:	/corina/corina34_cracker 3.40 0067  02.08.2006

@<TRIPOS>MOLECULE
ASD03091184
  55   56    0    0    0
SMALL
NO_CHARGES


@<TRIPOS>ATOM
   1 C1            -0.0167     1.3823     0.0096 C.ar    
   2 C2             0.0021    -0.0041     0.0020 C.ar    
   3 C3             1.2179    -0.6610    -0.0131 C.ar    
   4 N4             2.3500     0.0153    -0.0203 N.ar    
   5 C5             2.3701     1.3338    -0.0130 C.ar    
   6 C6             1.1936     2.0587     0.0017 C.ar    
   7 C7             6.5364    -1.0732    -3.4954 C.ar    
   8 N8             5.7807    -1.9668    -2.8876 N.ar    
   9 C9             5.3845    -3.0682    -3.4950 C.ar    
  10 C10            5.7516    -3.3257    -4.8022 C.ar    
  11 C11            6.5458    -2.4091    -5.4741 C.ar    
  12 C12            6.9427    -1.2627    -4.8027 C.ar    
  13 C13            5.3711    -1.7300    -1.5011 C.3     
  14 C14            4.0463    -0.9648    -1.4843 C.3     
  15 C15            3.6185    -0.7174    -0.0363 C.3     
  16 C16           -1.2869    -0.7847     0.0106 C.3     
  17 C17           -2.4703     0.1850     0.0276 C.3     
  18 C18           -1.3620    -1.6591    -1.2426 C.3     
  19 C19           -1.3372    -1.6725     1.2557 C.3     
  20 C20            5.2948    -4.5871    -5.4887 C.3     
  21 C21            3.7656    -4.6220    -5.5266 C.3     
  22 C22            5.8412    -4.6168    -6.9175 C.3     
  23 C23            5.8137    -5.8033    -4.7188 C.3     
  24 H24           -0.9519     1.9224     0.0170 H       
  25 H25            1.2411    -1.7408    -0.0188 H       
  26 H26            3.3170     1.8532    -0.0189 H       
  27 H27            1.2166     3.1384     0.0077 H       
  28 H28            6.8376    -0.1808    -2.9669 H       
  29 H29            4.7663    -3.7774    -2.9646 H       
  30 H30            6.8484    -2.5840    -6.4960 H       
  31 H31            7.5612    -0.5270    -5.2952 H       
  32 H32            5.2455    -2.6851    -0.9912 H       
  33 H33            6.1357    -1.1438    -0.9914 H       
  34 H34            4.1719    -0.0096    -1.9943 H       
  35 H35            3.2817    -1.5510    -1.9941 H       
  36 H36            4.3831    -0.1313     0.4734 H       
  37 H37            3.4928    -1.6726     0.4736 H       
  38 H38           -2.4345     0.8175    -0.8594 H       
  39 H39           -3.4027    -0.3797     0.0338 H       
  40 H40           -2.4168     0.8079     0.9204 H       
  41 H41           -0.5190    -2.3499    -1.2547 H       
  42 H42           -2.2944    -2.2237    -1.2364 H       
  43 H43           -1.3262    -1.0266    -2.1296 H       
  44 H44           -1.2837    -1.0496     2.1485 H       
  45 H45           -2.2696    -2.2371     1.2619 H       
  46 H46           -0.4942    -2.3633     1.2436 H       
  47 H47            3.3959    -3.7557    -6.0750 H       
  48 H48            3.4352    -5.5344    -6.0231 H       
  49 H49            3.3764    -4.6009    -4.5087 H       
  50 H50            6.9306    -4.5919    -6.8905 H       
  51 H51            5.5108    -5.5292    -7.4140 H       
  52 H52            5.4715    -3.7504    -7.4659 H       
  53 H53            5.4245    -5.7821    -3.7009 H       
  54 H54            5.4833    -6.7157    -5.2153 H       
  55 H55            6.9031    -5.7784    -4.6918 H       
@<TRIPOS>BOND
   1    1    2 ar
   2    1    6 ar
   3    1   24 1
   4    2    3 ar
   5    2   16 1
   6    3    4 ar
   7    3   25 1
   8    4    5 ar
   9    4   15 1
  10    5    6 ar
  11    5   26 1
  12    6   27 1
  13    7    8 ar
  14    7   12 ar
  15    7   28 1
  16    8    9 ar
  17    8   13 1
  18    9   10 ar
  19    9   29 1
  20   10   11 ar
  21   10   20 1
  22   11   12 ar
  23   11   30 1
  24   12   31 1
  25   13   14 1
  26   13   32 1
  27   13   33 1
  28   14   15 1
  29   14   34 1
  30   14   35 1
  31   15   36 1
  32   15   37 1
  33   16   17 1
  34   16   18 1
  35   16   19 1
  36   17   38 1
  37   17   39 1
  38   17   40 1
  39   18   41 1
  40   18   42 1
  41   18   43 1
  42   19   44 1
  43   19   45 1
  44   19   46 1
  45   20   21 1
  46   20   22 1
  47   20   23 1
  48   21   47 1
  49   21   48 1
  50   21   49 1
  51   22   50 1
  52   22   51 1
  53   22   52 1
  54   23   53 1
  55   23   54 1
  56   23   55 1

#	End of record

