#	Name: ASD01881177
#	Creating user name:	WinNT
#	Creation time:	15. 06. 2019 19:42

#	Modifying user name:	WinNT
#	Modification time:	15. 06. 2019 19:42

#	Program:	/corina/corina34_cracker 3.40 0067  02.08.2006

@<TRIPOS>MOLECULE
ASD01881177
  59   62    0    0    0
SMALL
NO_CHARGES


@<TRIPOS>ATOM
   1 Cl1            7.6637     4.3496     2.5685 Cl      
   2 N2             0.0437     1.3483    -0.5141 N.ar    
   3 C3             0.0788     0.0411    -0.6745 C.ar    
   4 N4             1.1844    -0.6524    -0.4913 N.ar    
   5 C5             2.3136    -0.0560    -0.1359 C.ar    
   6 C6             2.3248     1.3135     0.0435 C.ar    
   7 C7             1.1364     2.0180    -0.1582 C.ar    
   8 C8             3.5878     2.0292     0.4479 C.3     
   9 O9             4.3077     2.4229    -0.7221 O.3     
  10 C10            5.4776     3.0840    -0.5324 C.ar    
  11 C11            6.2288     3.4961    -1.6293 C.ar    
  12 C12            7.4117     4.1650    -1.4373 C.ar    
  13 C13            7.8696     4.4367    -0.1434 C.ar    
  14 C14            7.1108     4.0211     0.9560 C.ar    
  15 C15            5.9209     3.3535     0.7561 C.ar    
  16 C16            8.4408     4.7354    -2.3813 C.3     
  17 N17            9.4833     5.3319    -1.5385 N.am    
  18 C18            9.1494     5.1571    -0.2484 C.2     
  19 O19            9.8105     5.5393     0.6978 O.2     
  20 N20            1.0960     3.3938     0.0089 N.pl3   
  21 C21           -0.1222     4.0734    -0.0813 C.ar    
  22 C22           -1.2957     3.4567     0.3335 C.ar    
  23 C23           -2.4975     4.1310     0.2430 C.ar    
  24 C24           -2.5336     5.4185    -0.2604 C.ar    
  25 C25           -1.3672     6.0353    -0.6743 C.ar    
  26 C26           -0.1611     5.3690    -0.5807 C.ar    
  27 C27            4.3379    -0.9566    -1.2495 C.3     
  28 C28            3.5698    -0.8625     0.0703 C.3     
  29 C29           -1.2644    -0.7460    -2.6047 C.3     
  30 C30           -1.1806    -0.6813    -1.0783 C.3     
  31 C31           10.4007     7.4989    -2.2049 C.3     
  32 C32           10.6895     6.0074    -2.0234 C.3     
  33 H33            3.3333     2.9133     1.0325 H       
  34 H34            4.2069     1.3626     1.0482 H       
  35 H35            5.8813     3.2893    -2.6308 H       
  36 H36            5.3350     3.0326     1.6047 H       
  37 H37            8.8650     3.9422    -2.9969 H       
  38 H38            7.9872     5.4990    -3.0131 H       
  39 H39            1.9132     3.8847     0.1885 H       
  40 H40           -1.2683     2.4510     0.7261 H       
  41 H41           -3.4103     3.6521     0.5653 H       
  42 H42           -3.4749     5.9433    -0.3308 H       
  43 H43           -1.3988     7.0408    -1.0673 H       
  44 H44            0.7495     5.8513    -0.9040 H       
  45 H45            3.7135    -1.4422    -1.9995 H       
  46 H46            4.6009     0.0452    -1.5891 H       
  47 H47            5.2465    -1.5399    -1.1003 H       
  48 H48            4.1942    -0.3770     0.8203 H       
  49 H49            3.3068    -1.8643     0.4099 H       
  50 H50           -1.2795     0.2653    -3.0109 H       
  51 H51           -0.3980    -1.2809    -2.9937 H       
  52 H52           -2.1753    -1.2686    -2.8967 H       
  53 H53           -1.1655    -1.6927    -0.6721 H       
  54 H54           -2.0470    -0.1464    -0.6893 H       
  55 H55           10.1021     7.9301    -1.2494 H       
  56 H56           11.2981     8.0015    -2.5657 H       
  57 H57            9.5961     7.6277    -2.9289 H       
  58 H58           11.4941     5.8786    -1.2994 H       
  59 H59           10.9881     5.5762    -2.9789 H       
@<TRIPOS>BOND
   1    1   14 1
   2    2    3 ar
   3    2    7 ar
   4    3    4 ar
   5    3   30 1
   6    4    5 ar
   7    5    6 ar
   8    5   28 1
   9    6    7 ar
  10    6    8 1
  11    7   20 1
  12    8    9 1
  13    8   33 1
  14    8   34 1
  15    9   10 1
  16   10   11 ar
  17   10   15 ar
  18   11   12 ar
  19   11   35 1
  20   12   13 ar
  21   12   16 1
  22   13   14 ar
  23   13   18 1
  24   14   15 ar
  25   15   36 1
  26   16   17 1
  27   16   37 1
  28   16   38 1
  29   17   18 am
  30   17   32 1
  31   18   19 2
  32   20   21 1
  33   20   39 1
  34   21   22 ar
  35   21   26 ar
  36   22   23 ar
  37   22   40 1
  38   23   24 ar
  39   23   41 1
  40   24   25 ar
  41   24   42 1
  42   25   26 ar
  43   25   43 1
  44   26   44 1
  45   27   28 1
  46   27   45 1
  47   27   46 1
  48   27   47 1
  49   28   48 1
  50   28   49 1
  51   29   30 1
  52   29   50 1
  53   29   51 1
  54   29   52 1
  55   30   53 1
  56   30   54 1
  57   31   32 1
  58   31   55 1
  59   31   56 1
  60   31   57 1
  61   32   58 1
  62   32   59 1

#	End of record

