#	Name: ASD01180127
#	Creating user name:	WinNT
#	Creation time:	15. 06. 2019 19:06

#	Modifying user name:	WinNT
#	Modification time:	15. 06. 2019 19:06

#	Program:	/corina/corina34_cracker 3.40 0067  02.08.2006

@<TRIPOS>MOLECULE
ASD01180127
  56   58    0    0    0
SMALL
NO_CHARGES


@<TRIPOS>ATOM
   1 C1             0.5534     1.4120     0.6572 C.2     
   2 C2             0.3956    -0.0473     0.4901 C.ar    
   3 C3             1.5167    -0.8560     0.2939 C.ar    
   4 C4             1.3622    -2.2180     0.1391 C.ar    
   5 C5             0.0997    -2.7830     0.1774 C.ar    
   6 C6            -1.0157    -1.9873     0.3710 C.ar    
   7 C7            -0.8750    -0.6247     0.5335 C.ar    
   8 O8             1.6605     1.9109     0.6241 O.2     
   9 O9            -0.5308     2.1901     0.8408 O.3     
  10 C10           -0.0614    -4.2716     0.0069 C.3     
  11 C11           -0.2436    -4.9252     1.3783 C.3     
  12 C12           -0.2925    -6.4458     1.2160 C.3     
  13 C13            1.0627    -6.9491     0.7150 C.3     
  14 N14           -1.2370    -4.5437    -0.8238 N.pl3   
  15 N15            0.2126    -4.1290    -4.1258 N.ar    
  16 C16            0.0930    -4.2142    -2.8244 C.ar    
  17 C17           -1.1440    -4.4586    -2.2149 C.ar    
  18 C18           -2.2718    -4.6155    -2.9975 C.ar    
  19 C19           -2.1258    -4.5214    -4.3935 C.ar    
  20 C20           -3.2263    -4.6698    -5.2533 C.ar    
  21 C21           -3.0466    -4.5723    -6.5995 C.ar    
  22 C22           -1.7844    -4.3271    -7.1357 C.ar    
  23 C23           -0.6962    -4.1781    -6.3319 C.ar    
  24 C24           -0.8407    -4.2719    -4.9367 C.ar    
  25 C25           -3.6181    -4.8800    -2.3742 C.3     
  26 C26           -0.6095    -7.0927     2.5658 C.3     
  27 C27           -0.3005     3.6151     0.9979 C.3     
  28 C28           -1.6392     4.3295     1.1942 C.3     
  29 H29            2.5026    -0.4162     0.2631 H       
  30 H30            2.2285    -2.8447    -0.0128 H       
  31 H31           -1.9983    -2.4347     0.3992 H       
  32 H32           -1.7459    -0.0054     0.6894 H       
  33 H33            0.8267    -4.6803    -0.4752 H       
  34 H34            0.5926    -4.6553     2.0233 H       
  35 H35           -1.1747    -4.5774     1.8257 H       
  36 H36           -1.0669    -6.7096     0.4958 H       
  37 H37            1.0078    -8.0228     0.5355 H       
  38 H38            1.3196    -6.4382    -0.2129 H       
  39 H39            1.8263    -6.7448     1.4656 H       
  40 H40           -2.0800    -4.7829    -0.4078 H       
  41 H41            0.9699    -4.0927    -2.2059 H       
  42 H42           -4.2095    -4.8606    -4.8491 H       
  43 H43           -3.8934    -4.6869    -7.2600 H       
  44 H44           -1.6674    -4.2543    -8.2069 H       
  45 H45            0.2749    -3.9880    -6.7644 H       
  46 H46           -4.1182    -3.9324    -2.1738 H       
  47 H47           -4.2249    -5.4735    -3.0581 H       
  48 H48           -3.4851    -5.4254    -1.4398 H       
  49 H49           -1.5750    -6.7342     2.9227 H       
  50 H50           -0.6444    -8.1760     2.4502 H       
  51 H51            0.1649    -6.8289     3.2860 H       
  52 H52            0.3339     3.7870     1.8673 H       
  53 H53            0.1915     4.0041     0.1064 H       
  54 H54           -1.4664     5.3992     1.3121 H       
  55 H55           -2.2737     4.1576     0.3247 H       
  56 H56           -2.1313     3.9405     2.0857 H       
@<TRIPOS>BOND
   1    1    2 1
   2    1    8 2
   3    1    9 1
   4    2    3 ar
   5    2    7 ar
   6    3    4 ar
   7    3   29 1
   8    4    5 ar
   9    4   30 1
  10    5    6 ar
  11    5   10 1
  12    6    7 ar
  13    6   31 1
  14    7   32 1
  15    9   27 1
  16   10   11 1
  17   10   14 1
  18   10   33 1
  19   11   12 1
  20   11   34 1
  21   11   35 1
  22   12   13 1
  23   12   26 1
  24   12   36 1
  25   13   37 1
  26   13   38 1
  27   13   39 1
  28   14   17 1
  29   14   40 1
  30   15   16 ar
  31   15   24 ar
  32   16   17 ar
  33   16   41 1
  34   17   18 ar
  35   18   19 ar
  36   18   25 1
  37   19   20 ar
  38   19   24 ar
  39   20   21 ar
  40   20   42 1
  41   21   22 ar
  42   21   43 1
  43   22   23 ar
  44   22   44 1
  45   23   24 ar
  46   23   45 1
  47   25   46 1
  48   25   47 1
  49   25   48 1
  50   26   49 1
  51   26   50 1
  52   26   51 1
  53   27   28 1
  54   27   52 1
  55   27   53 1
  56   28   54 1
  57   28   55 1
  58   28   56 1

#	End of record

