#	Name: ASD01913446
#	Creating user name:	WinNT
#	Creation time:	15. 06. 2019 20:01

#	Modifying user name:	WinNT
#	Modification time:	15. 06. 2019 20:01

#	Program:	/corina/corina34_cracker 3.40 0067  02.08.2006

@<TRIPOS>MOLECULE
ASD01913446
  34   36    0    0    0
SMALL
NO_CHARGES


@<TRIPOS>ATOM
   1 C1             0.8925     0.0807    -1.0232 C.ar    
   2 C2             0.0192    -0.0119     0.0557 C.ar    
   3 C3             0.3630     0.6329     1.2394 C.ar    
   4 N4             1.5001     1.3065     1.2966 N.ar    
   5 C5             2.3014     1.3709     0.2523 C.ar    
   6 N6             2.0109     0.7738    -0.8861 N.ar    
   7 C7            -1.0605    -2.0645    -0.1449 C.ar    
   8 C8            -2.2200    -2.8304    -0.1594 C.ar    
   9 N9            -2.1440    -4.1451    -0.2627 N.ar    
  10 C10           -0.9668    -4.7362    -0.3527 C.ar    
  11 C11            0.1977    -3.9751    -0.3383 C.ar    
  12 N12            0.1237    -2.6543    -0.2349 N.ar    
  13 N13            1.4399    -4.5988    -0.4322 N.am    
  14 C14            2.5613    -3.8568    -0.5232 C.2     
  15 O15           -1.1403    -0.7139    -0.0443 O.3     
  16 C16            3.8660    -4.5140    -0.7496 C.ar    
  17 C17            3.9382    -5.9037    -0.8695 C.ar    
  18 C18            5.1560    -6.5194    -1.0816 C.ar    
  19 C19            6.3097    -5.7672    -1.1765 C.ar    
  20 C20            6.2521    -4.3759    -1.0580 C.ar    
  21 C21            5.0257    -3.7479    -0.8496 C.ar    
  22 O22            2.5000    -2.6473    -0.4190 O.2     
  23 C23            7.4498    -3.5970    -1.1557 C.1     
  24 N24            8.4000    -2.9792    -1.2332 N.1     
  25 H25            0.6629    -0.4097    -1.9576 H       
  26 H26           -0.2890     0.5846     2.0990 H       
  27 H27            3.2226     1.9290     0.3316 H       
  28 H28           -3.1845    -2.3501    -0.0856 H       
  29 H29           -0.9077    -5.8113    -0.4371 H       
  30 H30            1.4976    -5.5671    -0.4321 H       
  31 H31            3.0396    -6.4982    -0.7959 H       
  32 H32            5.2061    -7.5943    -1.1732 H       
  33 H33            7.2589    -6.2550    -1.3424 H       
  34 H34            4.9753    -2.6730    -0.7576 H       
@<TRIPOS>BOND
   1    1    2 ar
   2    1    6 ar
   3    1   25 1
   4    2    3 ar
   5    2   15 1
   6    3    4 ar
   7    3   26 1
   8    4    5 ar
   9    5    6 ar
  10    5   27 1
  11    7    8 ar
  12    7   12 ar
  13    7   15 1
  14    8    9 ar
  15    8   28 1
  16    9   10 ar
  17   10   11 ar
  18   10   29 1
  19   11   12 ar
  20   11   13 1
  21   13   14 am
  22   13   30 1
  23   14   16 1
  24   14   22 2
  25   16   17 ar
  26   16   21 ar
  27   17   18 ar
  28   17   31 1
  29   18   19 ar
  30   18   32 1
  31   19   20 ar
  32   19   33 1
  33   20   21 ar
  34   20   23 1
  35   21   34 1
  36   23   24 3

#	End of record

