#	Name: ASD01510011
#	Creating user name:	WinNT
#	Creation time:	15. 06. 2019 19:21

#	Modifying user name:	WinNT
#	Modification time:	15. 06. 2019 19:21

#	Program:	/corina/corina34_cracker 3.40 0067  02.08.2006

@<TRIPOS>MOLECULE
ASD01510011
  54   56    0    0    0
SMALL
NO_CHARGES


@<TRIPOS>ATOM
   1 C1            -0.0173     1.4248     0.0099 C.3     
   2 O2             0.0021    -0.0041     0.0020 O.3     
   3 C3            -1.1970    -0.6358     0.0101 C.ar    
   4 C4            -1.2614    -2.0246     0.0032 C.ar    
   5 C5            -2.5130    -2.6298     0.0119 C.ar    
   6 O6            -2.6223    -3.9807     0.0061 O.3     
   7 C7            -3.9437    -4.5247     0.0157 C.3     
   8 N8            -3.6009    -1.8665     0.0263 N.ar    
   9 C9            -3.5023    -0.5456     0.0325 C.ar    
  10 N10           -2.3265     0.0643     0.0301 N.ar    
  11 N11           -4.6573     0.2166     0.0471 N.pl3   
  12 C12           -4.5698     1.6789     0.0541 C.3     
  13 C13           -4.5527     2.1880    -1.3642 C.ar    
  14 C14           -5.7408     2.4926    -2.0025 C.ar    
  15 C15           -5.7279     2.9593    -3.3026 C.ar    
  16 C16           -4.5214     3.1224    -3.9679 C.ar    
  17 C17           -3.3307     2.8160    -3.3253 C.ar    
  18 C18           -3.3487     2.3549    -2.0231 C.ar    
  19 O19           -4.5061     3.5810    -5.2471 O.3     
  20 C20           -3.2278     3.7241    -5.8696 C.3     
  21 C21           -5.9674    -0.4389     0.0555 C.3     
  22 C22           -6.4037    -0.6712     1.4792 C.ar    
  23 C23           -7.1395     0.2938     2.1418 C.ar    
  24 C24           -7.5406     0.0833     3.4468 C.ar    
  25 C25           -7.2046    -1.0977     4.0926 C.ar    
  26 C26           -6.4662    -2.0645     3.4255 C.ar    
  27 C27           -6.0724    -1.8515     2.1187 C.ar    
  28 O28           -7.5976    -1.3071     5.3765 O.3     
  29 C29           -7.2159    -2.5458     5.9781 C.3     
  30 H30            1.0053     1.8021     0.0021 H       
  31 H31           -0.5445     1.7859    -0.8732 H       
  32 H32           -0.5275     1.7763     0.9067 H       
  33 H33           -0.3600    -2.6194    -0.0089 H       
  34 H34           -4.4669    -4.1924     0.9123 H       
  35 H35           -4.4835    -4.1835    -0.8675 H       
  36 H36           -3.8885    -5.6133     0.0097 H       
  37 H37           -5.4317     2.0920     0.5780 H       
  38 H38           -3.6550     1.9858     0.5612 H       
  39 H39           -6.6798     2.3652    -1.4843 H       
  40 H40           -6.6562     3.1968    -3.8009 H       
  41 H41           -2.3902     2.9421    -3.8410 H       
  42 H42           -2.4220     2.1163    -1.5224 H       
  43 H43           -2.6225     4.4283    -5.2988 H       
  44 H44           -2.7278     2.7561    -5.8996 H       
  45 H45           -3.3582     4.0973    -6.8855 H       
  46 H46           -6.6952     0.1972    -0.4483 H       
  47 H47           -5.8989    -1.3946    -0.4640 H       
  48 H48           -7.4005     1.2132     1.6387 H       
  49 H49           -8.1150     0.8375     3.9641 H       
  50 H50           -6.2034    -2.9847     3.9261 H       
  51 H51           -5.4976    -2.6038     1.5990 H       
  52 H52           -7.5923    -2.5845     7.0003 H       
  53 H53           -7.6353    -3.3726     5.4049 H       
  54 H54           -6.1288    -2.6251     5.9879 H       
@<TRIPOS>BOND
   1    1    2 1
   2    1   30 1
   3    1   31 1
   4    1   32 1
   5    2    3 1
   6    3    4 ar
   7    3   10 ar
   8    4    5 ar
   9    4   33 1
  10    5    6 1
  11    5    8 ar
  12    6    7 1
  13    7   34 1
  14    7   35 1
  15    7   36 1
  16    8    9 ar
  17    9   10 ar
  18    9   11 1
  19   11   12 1
  20   11   21 1
  21   12   13 1
  22   12   37 1
  23   12   38 1
  24   13   14 ar
  25   13   18 ar
  26   14   15 ar
  27   14   39 1
  28   15   16 ar
  29   15   40 1
  30   16   17 ar
  31   16   19 1
  32   17   18 ar
  33   17   41 1
  34   18   42 1
  35   19   20 1
  36   20   43 1
  37   20   44 1
  38   20   45 1
  39   21   22 1
  40   21   46 1
  41   21   47 1
  42   22   23 ar
  43   22   27 ar
  44   23   24 ar
  45   23   48 1
  46   24   25 ar
  47   24   49 1
  48   25   26 ar
  49   25   28 1
  50   26   27 ar
  51   26   50 1
  52   27   51 1
  53   28   29 1
  54   29   52 1
  55   29   53 1
  56   29   54 1

#	End of record

