#	Name: ASD01815859
#	Creating user name:	WinNT
#	Creation time:	15. 06. 2019 19:34

#	Modifying user name:	WinNT
#	Modification time:	15. 06. 2019 19:34

#	Program:	/corina/corina34_cracker 3.40 0067  02.08.2006

@<TRIPOS>MOLECULE
ASD01815859
  47   52    0    0    0
SMALL
NO_CHARGES


@<TRIPOS>ATOM
   1 C1            -0.0167     1.3839     0.0097 C.ar    
   2 C2             0.0021    -0.0041     0.0020 C.ar    
   3 C3            -1.1855    -0.7101     0.0100 C.ar    
   4 C4            -2.3929    -0.0366     0.0257 C.ar    
   5 C5            -2.4172     1.3463     0.0333 C.ar    
   6 C6            -1.2328     2.0596     0.0307 C.ar    
   7 F7            -1.2563     3.4104     0.0386 F       
   8 N8             1.1853     2.1022     0.0020 N.am    
   9 C9             1.8878     2.4219    -1.1048 C.2     
  10 N10            1.8297     2.5982     1.1403 N.2     
  11 C11            2.9262     3.2212     0.7953 C.2     
  12 C12            3.0278     3.1432    -0.6778 C.2     
  13 O13            1.5954     2.1417    -2.2564 O.2     
  14 C14            3.9924     3.9296     1.5194 C.2     
  15 C15            5.0325     4.4828     0.8025 C.2     
  16 N16            5.0522     4.3592    -0.5907 N.pl3   
  17 C17            4.1065     3.7301    -1.2941 C.2     
  18 C18            6.1718     4.9587    -1.3211 C.3     
  19 C19            7.2831     3.9495    -1.4535 C.ar    
  20 C20            7.3171     3.1041    -2.5553 C.ar    
  21 C21            8.3139     2.1807    -2.6985 C.ar    
  22 C22            9.3107     2.0813    -1.7314 C.ar    
  23 C23            9.2780     2.9375    -0.6135 C.ar    
  24 C24            8.2499     3.8786    -0.4924 C.ar    
  25 S25            4.2219     4.2339     3.2364 S.3     
  26 C26            5.7174     5.0990     2.9232 C.2     
  27 C27            5.9693     5.1233     1.6206 C.2     
  28 N28           10.4159     1.2842    -1.5856 N.pl3   
  29 N29           11.0730     1.6263    -0.3991 N.2     
  30 C30           10.4382     2.5920     0.2015 C.2     
  31 C31           10.8408     0.2407    -2.5220 C.3     
  32 H32            0.9443    -0.5317    -0.0105 H       
  33 H33           -1.1707    -1.7900     0.0037 H       
  34 H34           -3.3193    -0.5917     0.0316 H       
  35 H35           -3.3620     1.8693     0.0455 H       
  36 H36            4.1941     3.6777    -2.3693 H       
  37 H37            5.8373     5.2630    -2.3128 H       
  38 H38            6.5355     5.8303    -0.7769 H       
  39 H39            6.5458     3.1774    -3.3078 H       
  40 H40            8.3285     1.5292    -3.5597 H       
  41 H41            8.2166     4.5396     0.3610 H       
  42 H42            6.3421     5.5473     3.6816 H       
  43 H43            6.8455     5.6083     1.2161 H       
  44 H44           10.7201     3.0544     1.1359 H       
  45 H45           11.5108     0.6712    -3.2661 H       
  46 H46           11.3611    -0.5468    -1.9768 H       
  47 H47            9.9664    -0.1788    -3.0197 H       
@<TRIPOS>BOND
   1    1    2 ar
   2    1    8 1
   3    1    6 ar
   4    2    3 ar
   5    2   32 1
   6    3    4 ar
   7    3   33 1
   8    4    5 ar
   9    4   34 1
  10    5    6 ar
  11    5   35 1
  12    6    7 1
  13    8    9 am
  14    8   10 1
  15    9   13 2
  16    9   12 1
  17   10   11 2
  18   11   12 1
  19   11   14 1
  20   12   17 2
  21   14   15 2
  22   14   25 1
  23   15   16 1
  24   15   27 1
  25   16   17 1
  26   16   18 1
  27   17   36 1
  28   18   19 1
  29   18   37 1
  30   18   38 1
  31   19   20 ar
  32   19   24 ar
  33   20   21 ar
  34   20   39 1
  35   21   22 ar
  36   21   40 1
  37   22   23 ar
  38   22   28 1
  39   23   24 ar
  40   23   30 1
  41   24   41 1
  42   25   26 1
  43   26   27 2
  44   26   42 1
  45   27   43 1
  46   28   29 1
  47   28   31 1
  48   29   30 2
  49   30   44 1
  50   31   45 1
  51   31   46 1
  52   31   47 1

#	End of record

