#	Name: ASD00431388
#	Creating user name:	WinNT
#	Creation time:	15. 06. 2019 18:35

#	Modifying user name:	WinNT
#	Modification time:	15. 06. 2019 18:35

#	Program:	/corina/corina34_cracker 3.40 0067  02.08.2006

@<TRIPOS>MOLECULE
ASD00431388
  49   51    0    0    0
SMALL
NO_CHARGES


@<TRIPOS>ATOM
   1 C1             0.0830     1.5005    -0.3127 C.2     
   2 N2             0.0865     0.1529    -0.2903 N.am    
   3 O3             1.1337     2.1107    -0.3238 O.2     
   4 O4            -1.0848     2.1704    -0.3285 O.3     
   5 C5             1.3572    -0.5761    -0.2792 C.3     
   6 C6             1.8633    -0.6969     1.1596 C.3     
   7 O7             0.0986    -2.7576    -0.6504 O.3     
   8 N8             0.2078    -3.8047    -1.2450 N.2     
   9 C9             1.3305    -3.8534    -1.9246 C.2     
  10 C10            1.9919    -2.6141    -1.6822 C.2     
  11 C11            1.1515    -1.9528    -0.8566 C.2     
  12 S12            3.3235    -5.0055    -3.6695 S.3     
  13 C13            2.9527    -6.5716    -4.2457 C.2     
  14 N14            1.8079    -6.9648    -3.7778 N.2     
  15 C15            1.1673    -6.1339    -2.9844 C.2     
  16 C16            1.8103    -4.9659    -2.7681 C.2     
  17 O17            3.7412    -7.2984    -5.0726 O.3     
  18 C18            3.3599    -8.5707    -5.3632 C.ar    
  19 C19            2.2006    -8.7985    -6.0902 C.ar    
  20 C20            1.8137   -10.0910    -6.3858 C.ar    
  21 C21            2.5842   -11.1612    -5.9557 C.ar    
  22 C22            3.7431   -10.9335    -5.2284 C.ar    
  23 C23            4.1333    -9.6409    -4.9376 C.ar    
  24 O24            2.2031   -12.4336    -6.2467 O.3     
  25 C25            0.9322   -12.6019    -6.8779 C.3     
  26 C26            1.1186   -12.6474    -8.3958 C.3     
  27 C27            0.2960   -13.9098    -6.4028 C.3     
  28 Cl28          -0.3733    -6.5065    -2.2763 Cl      
  29 C29           -1.0127     3.6204    -0.3524 C.3     
  30 H30           -0.7522    -0.3342    -0.2814 H       
  31 H31            2.0908    -0.0367    -0.8784 H       
  32 H32            1.1297    -1.2363     1.7587 H       
  33 H33            2.8088    -1.2394     1.1678 H       
  34 H34            2.0121     0.2988     1.5772 H       
  35 H35            2.9439    -2.2813    -2.0685 H       
  36 H36            1.6005    -7.9653    -6.4248 H       
  37 H37            0.9109   -10.2684    -6.9515 H       
  38 H38            4.3428   -11.7669    -4.8932 H       
  39 H39            5.0380    -9.4635    -4.3751 H       
  40 H40            0.2831   -11.7662    -6.6164 H       
  41 H41            0.1491   -12.7757    -8.8772 H       
  42 H42            1.5717   -11.7156    -8.7343 H       
  43 H43            1.7676   -13.4831    -8.6573 H       
  44 H44            0.1633   -13.8774    -5.3214 H       
  45 H45           -0.6734   -14.0382    -6.8842 H       
  46 H46            0.9451   -14.7455    -6.6643 H       
  47 H47           -0.4849     3.9726     0.5340 H       
  48 H48           -0.4779     3.9429    -1.2457 H       
  49 H49           -2.0210     4.0342    -0.3632 H       
@<TRIPOS>BOND
   1    1    2 am
   2    1    3 2
   3    1    4 1
   4    2    5 1
   5    2   30 1
   6    4   29 1
   7    5    6 1
   8    5   11 1
   9    5   31 1
  10    6   32 1
  11    6   33 1
  12    6   34 1
  13    7    8 1
  14    7   11 1
  15    8    9 2
  16    9   10 1
  17    9   16 1
  18   10   11 2
  19   10   35 1
  20   12   13 1
  21   12   16 1
  22   13   14 2
  23   13   17 1
  24   14   15 1
  25   15   16 2
  26   15   28 1
  27   17   18 1
  28   18   19 ar
  29   18   23 ar
  30   19   20 ar
  31   19   36 1
  32   20   21 ar
  33   20   37 1
  34   21   22 ar
  35   21   24 1
  36   22   23 ar
  37   22   38 1
  38   23   39 1
  39   24   25 1
  40   25   26 1
  41   25   27 1
  42   25   40 1
  43   26   41 1
  44   26   42 1
  45   26   43 1
  46   27   44 1
  47   27   45 1
  48   27   46 1
  49   29   47 1
  50   29   48 1
  51   29   49 1

#	End of record

