#	Name: ASD00431242
#	Creating user name:	WinNT
#	Creation time:	15. 06. 2019 18:35

#	Modifying user name:	WinNT
#	Modification time:	15. 06. 2019 18:35

#	Program:	/corina/corina34_cracker 3.40 0067  02.08.2006

@<TRIPOS>MOLECULE
ASD00431242
  56   60    0    0    0
SMALL
NO_CHARGES


@<TRIPOS>ATOM
   1 C1            -0.1530     1.5097     0.3015 C.2     
   2 N2            -0.1286     0.1653     0.2623 N.am    
   3 C3             1.1350    -0.2948     0.2238 C.2     
   4 C4             2.0574     0.8601     0.2385 C.ar    
   5 C5             3.4359     0.9981     0.2153 C.ar    
   6 C6             4.0004     2.2638     0.2408 C.ar    
   7 C7             3.1979     3.3882     0.2893 C.ar    
   8 C8             1.8174     3.2656     0.3130 C.ar    
   9 C9             1.2390     2.0067     0.2879 C.ar    
  10 O10           -1.1517     2.1998     0.3368 O.2     
  11 O11            1.4629    -1.4635     0.1842 O.2     
  12 C12           -1.3210    -0.6858     0.2622 C.3     
  13 C13           -1.3429    -1.5329    -1.0118 C.3     
  14 C14           -1.2924    -1.5909     1.4667 C.2     
  15 C15           -2.3520    -1.9054     2.2162 C.2     
  16 C16           -2.0903    -2.7540     3.2729 C.2     
  17 C17           -0.7994    -3.1341     3.3832 C.2     
  18 S18            0.1401    -2.3972     2.0916 S.3     
  19 S19           -1.1850    -4.7851     5.7182 S.3     
  20 C20            0.2314    -5.5453     6.2996 C.2     
  21 N21            1.2485    -5.2294     5.5609 N.2     
  22 C22            1.0250    -4.4210     4.5456 C.2     
  23 C23           -0.2623    -4.0309     4.4207 C.2     
  24 O24            0.2835    -6.3619     7.3796 O.3     
  25 C25            1.4642    -6.9749     7.6599 C.ar    
  26 C26            2.5643    -6.2204     8.0408 C.ar    
  27 C27            3.7636    -6.8433     8.3260 C.ar    
  28 C28            3.8682    -8.2232     8.2312 C.ar    
  29 C29            2.7685    -8.9777     7.8499 C.ar    
  30 C30            1.5674    -8.3555     7.5706 C.ar    
  31 O31            5.0491    -8.8363     8.5115 O.3     
  32 C32            6.1744    -7.9924     8.7636 C.3     
  33 C33            6.3046    -7.7521    10.2690 C.3     
  34 C34            7.4449    -8.6675     8.2431 C.3     
  35 H35            4.0679     0.1231     0.1778 H       
  36 H36            5.0748     2.3722     0.2231 H       
  37 H37            3.6495     4.3690     0.3091 H       
  38 H38            1.1952     4.1475     0.3512 H       
  39 H39           -2.2134    -0.0610     0.2983 H       
  40 H40           -2.2300    -2.1661    -1.0119 H       
  41 H41           -1.3636    -0.8782    -1.8831 H       
  42 H42           -0.4505    -2.1577    -1.0480 H       
  43 H43           -3.3411    -1.5235     2.0107 H       
  44 H44           -2.8568    -3.0869     3.9571 H       
  45 H45            1.8039    -4.0973     3.8711 H       
  46 H46            2.4831    -5.1459     8.1139 H       
  47 H47            4.6200    -6.2559     8.6225 H       
  48 H48            2.8502   -10.0520     7.7758 H       
  49 H49            0.7098    -8.9434     7.2785 H       
  50 H50            6.0349    -7.0389     8.2543 H       
  51 H51            7.1630    -7.1084    10.4613 H       
  52 H52            5.3995    -7.2712    10.6399 H       
  53 H53            6.4442    -8.7056    10.7784 H       
  54 H54            7.3522    -8.8386     7.1707 H       
  55 H55            8.3033    -8.0238     8.4354 H       
  56 H56            7.5845    -9.6210     8.7525 H       
@<TRIPOS>BOND
   1    1    2 am
   2    1    9 1
   3    1   10 2
   4    2    3 am
   5    2   12 1
   6    3    4 1
   7    3   11 2
   8    4    5 ar
   9    4    9 ar
  10    5    6 ar
  11    5   35 1
  12    6    7 ar
  13    6   36 1
  14    7    8 ar
  15    7   37 1
  16    8    9 ar
  17    8   38 1
  18   12   13 1
  19   12   14 1
  20   12   39 1
  21   13   40 1
  22   13   41 1
  23   13   42 1
  24   14   15 2
  25   14   18 1
  26   15   16 1
  27   15   43 1
  28   16   17 2
  29   16   44 1
  30   17   18 1
  31   17   23 1
  32   19   20 1
  33   19   23 1
  34   20   21 2
  35   20   24 1
  36   21   22 1
  37   22   23 2
  38   22   45 1
  39   24   25 1
  40   25   26 ar
  41   25   30 ar
  42   26   27 ar
  43   26   46 1
  44   27   28 ar
  45   27   47 1
  46   28   29 ar
  47   28   31 1
  48   29   30 ar
  49   29   48 1
  50   30   49 1
  51   31   32 1
  52   32   33 1
  53   32   34 1
  54   32   50 1
  55   33   51 1
  56   33   52 1
  57   33   53 1
  58   34   54 1
  59   34   55 1
  60   34   56 1

#	End of record

