#	Name: ASD04880722
#	Creating user name:	WinNT
#	Creation time:	15. 06. 2019 20:53

#	Modifying user name:	WinNT
#	Modification time:	15. 06. 2019 20:53

#	Program:	/corina/corina34_cracker 3.40 0067  02.08.2006

@<TRIPOS>MOLECULE
ASD04880722
  75   79    0    0    0
SMALL
NO_CHARGES


@<TRIPOS>ATOM
   1 C1             0.0065     1.3668     0.0043 C.ar    
   2 C2            -1.1981     2.0438     0.0642 C.ar    
   3 C3            -1.2167     3.4256     0.1068 C.ar    
   4 C4            -0.0314     4.1347     0.0897 C.ar    
   5 C5             1.1800     3.4580     0.0296 C.ar    
   6 C6             1.1950     2.0694    -0.0131 C.ar    
   7 C7            -0.0527     5.6408     0.1357 C.3     
   8 N8             2.3804     4.1719     0.0117 N.3     
   9 C9             3.1824     3.8838     1.2089 C.3     
  10 C10            3.1440     3.8875    -1.2113 C.3     
  11 C11            4.4105     4.7466    -1.2300 C.3     
  12 N12            5.2125     4.4585    -0.0328 N.3     
  13 C13            4.4489     4.7429     1.1901 C.3     
  14 C14            6.4092     5.1702    -0.0507 C.ar    
  15 C15            6.6408     6.1618     0.8950 C.ar    
  16 C16            7.8241     6.8692     0.8807 C.ar    
  17 C17            8.7952     6.5895    -0.0867 C.ar    
  18 C18            8.5634     5.5917    -1.0383 C.ar    
  19 C19            7.3781     4.8821    -1.0164 C.ar    
  20 N20            7.1447     3.8778    -1.9655 N.am    
  21 C21            7.6265     4.0086    -3.2174 C.2     
  22 C22            7.4906     2.9058    -4.1742 C.2     
  23 O23            8.1744     5.0421    -3.5537 O.2     
  24 C24            6.9678     0.9570    -5.0358 C.2     
  25 C25            7.5952     1.6552    -6.0078 C.2     
  26 C26            7.9362     2.9039    -5.4650 C.2     
  27 O27            6.9085     1.7131    -3.9318 O.3     
  28 C28            6.4235    -0.4417    -5.1718 C.3     
  29 C29           10.0608     7.3459    -0.1030 C.2     
  30 N30           10.9955     7.0755    -1.0356 N.am    
  31 O31           10.2611     8.2138     0.7249 O.2     
  32 C32           12.2529     7.8270    -1.0518 C.3     
  33 C33           13.1311     7.3271    -2.2007 C.3     
  34 C34           14.4443     8.1120    -2.2176 C.3     
  35 N35           15.2851     7.6334    -3.3177 N.am    
  36 C36           16.8521     6.4609    -4.6546 C.3     
  37 C37           16.2654     6.5401    -3.2319 C.3     
  38 C38           15.2824     8.1164    -4.5677 C.2     
  39 O39           16.1457     7.5044    -5.3860 O.3     
  40 O40           14.5615     9.0268    -4.9252 O.2     
  41 Cl41           8.1089     8.1079     2.0632 Cl      
  42 H42            0.0176     0.2872    -0.0243 H       
  43 H43           -2.1263     1.4918     0.0774 H       
  44 H44           -2.1590     3.9512     0.1532 H       
  45 H45            2.1353     1.5401    -0.0594 H       
  46 H46           -0.0245     5.9731     1.1734 H       
  47 H47            0.8149     6.0328    -0.3950 H       
  48 H48           -0.9639     6.0060    -0.3382 H       
  49 H49            2.5999     4.1141     2.1009 H       
  50 H50            3.4583     2.8293     1.2167 H       
  51 H51            3.4195     2.8330    -1.2310 H       
  52 H52            2.5335     4.1205    -2.0837 H       
  53 H53            4.9930     4.5162    -2.1221 H       
  54 H54            4.1346     5.8011    -1.2378 H       
  55 H55            4.1734     5.7973     1.2099 H       
  56 H56            5.0594     4.5098     2.0626 H       
  57 H57            5.8921     6.3789     1.6425 H       
  58 H58            9.3110     5.3734    -1.7865 H       
  59 H59            6.6365     3.0884    -1.7214 H       
  60 H60            7.7970     1.3159    -7.0131 H       
  61 H61            8.4509     3.7077    -5.9705 H       
  62 H62            7.1952    -1.1603    -4.8957 H       
  63 H63            5.5628    -0.5622    -4.5139 H       
  64 H64            6.1189    -0.6143    -6.2040 H       
  65 H65           10.8357     6.3832    -1.6960 H       
  66 H66           12.0409     8.8870    -1.1912 H       
  67 H67           12.7750     7.6822    -0.1059 H       
  68 H68           13.3431     6.2671    -2.0613 H       
  69 H69           12.6090     7.4719    -3.1465 H       
  70 H70           14.2322     9.1721    -2.3571 H       
  71 H71           14.9663     7.9673    -1.2718 H       
  72 H72           17.9234     6.6612    -4.6378 H       
  73 H73           16.6517     5.4850    -5.0967 H       
  74 H74           17.0450     6.7807    -2.5091 H       
  75 H75           15.7729     5.6041    -2.9682 H       
@<TRIPOS>BOND
   1    1    2 ar
   2    1    6 ar
   3    1   42 1
   4    2    3 ar
   5    2   43 1
   6    3    4 ar
   7    3   44 1
   8    4    5 ar
   9    4    7 1
  10    5    6 ar
  11    5    8 1
  12    6   45 1
  13    7   46 1
  14    7   47 1
  15    7   48 1
  16    8   10 1
  17    8    9 1
  18    9   13 1
  19    9   49 1
  20    9   50 1
  21   10   11 1
  22   10   51 1
  23   10   52 1
  24   11   12 1
  25   11   53 1
  26   11   54 1
  27   12   13 1
  28   12   14 1
  29   13   55 1
  30   13   56 1
  31   14   15 ar
  32   14   19 ar
  33   15   16 ar
  34   15   57 1
  35   16   17 ar
  36   16   41 1
  37   17   18 ar
  38   17   29 1
  39   18   19 ar
  40   18   58 1
  41   19   20 1
  42   20   21 am
  43   20   59 1
  44   21   22 1
  45   21   23 2
  46   22   27 1
  47   22   26 2
  48   24   25 2
  49   24   27 1
  50   24   28 1
  51   25   26 1
  52   25   60 1
  53   26   61 1
  54   28   62 1
  55   28   63 1
  56   28   64 1
  57   29   30 am
  58   29   31 2
  59   30   32 1
  60   30   65 1
  61   32   33 1
  62   32   66 1
  63   32   67 1
  64   33   34 1
  65   33   68 1
  66   33   69 1
  67   34   35 1
  68   34   70 1
  69   34   71 1
  70   35   38 am
  71   35   37 1
  72   36   37 1
  73   36   39 1
  74   36   72 1
  75   36   73 1
  76   37   74 1
  77   37   75 1
  78   38   39 1
  79   38   40 2

#	End of record

