#	Name: ASD07300779
#	Creating user name:	WinNT
#	Creation time:	15. 06. 2019 21:10

#	Modifying user name:	WinNT
#	Modification time:	15. 06. 2019 21:10

#	Program:	/corina/corina34_cracker 3.40 0067  02.08.2006

@<TRIPOS>MOLECULE
ASD07300779
  52   56    0    0    0
SMALL
NO_CHARGES


@<TRIPOS>ATOM
   1 C1            -0.0172     1.4140     0.0098 C.2     
   2 C2             0.0021    -0.0041     0.0020 C.2     
   3 N3             1.1808     2.0893     0.0020 N.pl3   
   4 N4             1.1598    -0.6390    -0.0124 N.2     
   5 C5             2.3145     0.0264    -0.0199 C.2     
   6 C6             2.3484     1.3776    -0.0130 C.2     
   7 N7            -0.9935     2.3044     0.0292 N.2     
   8 C8            -0.4747     3.5309     0.0279 C.2     
   9 C9             0.8879     3.4248     0.0120 C.2     
  10 C10           -2.4705    -2.8374     0.0114 C.ar    
  11 C11           -1.2650    -2.1662     0.0030 C.ar    
  12 C12           -1.2674    -0.7675     0.0105 C.ar    
  13 C13           -2.5017    -0.1094     0.0268 C.ar    
  14 C14           -3.6597    -0.8596     0.0347 C.ar    
  15 N15           -3.6128    -2.1779     0.0267 N.ar    
  16 N16            2.8688     6.4283    -0.4646 N.pl3   
  17 N17            3.6177     5.7645     0.5144 N.2     
  18 C18            3.0217     4.6377     0.8017 C.2     
  19 C19            1.8602     4.5416     0.0087 C.2     
  20 C20            1.7954     5.6663    -0.7638 C.2     
  21 C21            3.1910     7.7286    -1.0576 C.3     
  22 C22            3.3564     8.7684     0.0524 C.3     
  23 N23            3.6795    10.0722    -0.5422 N.3     
  24 C24            3.6130    11.1415     0.4646 C.3     
  25 C25            4.0137    12.4699    -0.1824 C.3     
  26 O26            3.1607    12.7260    -1.3013 O.3     
  27 C27            3.2012    11.7047    -2.3017 C.3     
  28 C28            2.7922    10.3686    -1.6762 C.3     
  29 C29           -1.2577     4.8184     0.0465 C.3     
  30 H30            3.2427    -0.5257    -0.0317 H       
  31 H31            3.2966     1.8946    -0.0196 H       
  32 H32           -2.4790    -3.9174     0.0011 H       
  33 H33           -0.3335    -2.7127    -0.0092 H       
  34 H34           -2.5475     0.9696     0.0334 H       
  35 H35           -4.6175    -0.3607     0.0473 H       
  36 H36            3.3603     3.9069     1.5212 H       
  37 H37            1.0252     5.9031    -1.4829 H       
  38 H38            4.1196     7.6499    -1.6231 H       
  39 H39            2.3844     8.0338    -1.7242 H       
  40 H40            2.4279     8.8470     0.6179 H       
  41 H41            4.1630     8.4631     0.7190 H       
  42 H42            2.5959    11.2163     0.8494 H       
  43 H43            4.2965    10.9142     1.2827 H       
  44 H44            3.9109    13.2748     0.5454 H       
  45 H45            5.0488    12.4130    -0.5193 H       
  46 H46            2.5107    11.9563    -3.1068 H       
  47 H47            4.2126    11.6256    -2.7003 H       
  48 H48            2.8766     9.5771    -2.4209 H       
  49 H49            1.7620    10.4310    -1.3256 H       
  50 H50           -1.4306     5.1236     1.0785 H       
  51 H51           -0.6940     5.5940    -0.4722 H       
  52 H52           -2.2146     4.6689    -0.4535 H       
@<TRIPOS>BOND
   1    1    2 1
   2    1    3 1
   3    1    7 2
   4    2    4 2
   5    2   12 1
   6    3    6 1
   7    3    9 1
   8    4    5 1
   9    5    6 2
  10    5   30 1
  11    6   31 1
  12    7    8 1
  13    8    9 2
  14    8   29 1
  15    9   19 1
  16   10   11 ar
  17   10   15 ar
  18   10   32 1
  19   11   12 ar
  20   11   33 1
  21   12   13 ar
  22   13   14 ar
  23   13   34 1
  24   14   15 ar
  25   14   35 1
  26   16   17 1
  27   16   20 1
  28   16   21 1
  29   17   18 2
  30   18   19 1
  31   18   36 1
  32   19   20 2
  33   20   37 1
  34   21   22 1
  35   21   38 1
  36   21   39 1
  37   22   23 1
  38   22   40 1
  39   22   41 1
  40   23   24 1
  41   23   28 1
  42   24   25 1
  43   24   42 1
  44   24   43 1
  45   25   26 1
  46   25   44 1
  47   25   45 1
  48   26   27 1
  49   27   28 1
  50   27   46 1
  51   27   47 1
  52   28   48 1
  53   28   49 1
  54   29   50 1
  55   29   51 1
  56   29   52 1

#	End of record

