#	Name: ASD04840034
#	Creating user name:	WinNT
#	Creation time:	15. 06. 2019 20:52

#	Modifying user name:	WinNT
#	Modification time:	15. 06. 2019 20:52

#	Program:	/corina/corina34_cracker 3.40 0067  02.08.2006

@<TRIPOS>MOLECULE
ASD04840034
  36   38    0    0    0
SMALL
NO_CHARGES


@<TRIPOS>ATOM
   1 C1            -0.0178     1.4608     0.0101 C.3     
   2 N2             0.0021    -0.0041     0.0020 N.pl3   
   3 C3            -0.2596    -0.7140     3.4898 C.ar    
   4 N4            -0.2470    -2.0258     3.5483 N.ar    
   5 C5            -0.1510    -2.7662     2.4369 C.ar    
   6 C6            -0.0633    -2.1232     1.1976 C.ar    
   7 C7            -0.0815    -0.7032     1.1921 C.ar    
   8 N8            -0.1795    -0.0593     2.3456 N.ar    
   9 C9             0.0341    -3.0631     0.1013 C.2     
  10 C10            0.0226    -4.3451     0.4667 C.2     
  11 S11           -0.1104    -4.5081     2.2075 S.3     
  12 C12            0.1105    -5.4822    -0.4741 C.ar    
  13 C13            0.0904    -6.7924     0.0065 C.ar    
  14 C14            0.1729    -7.8497    -0.8775 C.ar    
  15 C15            0.2758    -7.6117    -2.2379 C.ar    
  16 C16            0.2962    -6.3152    -2.7195 C.ar    
  17 C17            0.2082    -5.2501    -1.8467 C.ar    
  18 C18            0.3665    -8.7701    -3.1976 C.3     
  19 Cl19           0.1481    -9.4804    -0.2826 Cl      
  20 P20            1.6925     2.0918    -0.0029 P.3     
  21 O21            2.4048     1.6831    -1.3877 O.3     
  22 O22            1.6739     3.6955     0.1382 O.3     
  23 O23            2.4432     1.5055     1.1299 O.2     
  24 H24           -0.5450     1.8219    -0.8730 H       
  25 H25           -0.5280     1.8123     0.9069 H       
  26 H26            0.0739    -0.4835    -0.8381 H       
  27 H27           -0.3429    -0.1516     4.4081 H       
  28 H28            0.1097    -2.7510    -0.9299 H       
  29 H29            0.0108    -6.9787     1.0673 H       
  30 H30            0.3767    -6.1363    -3.7815 H       
  31 H31            0.2197    -4.2385    -2.2248 H       
  32 H32           -0.6360    -9.0633    -3.5089 H       
  33 H33            0.9462    -8.4733    -4.0716 H       
  34 H34            0.8551    -9.6115    -2.7062 H       
  35 H35            1.9654     2.0337    -2.1745 H       
  36 H36            2.5520     4.1005     0.1387 H       
@<TRIPOS>BOND
   1    1    2 1
   2    1   20 1
   3    1   24 1
   4    1   25 1
   5    2    7 1
   6    2   26 1
   7    3    4 ar
   8    3    8 ar
   9    3   27 1
  10    4    5 ar
  11    5    6 ar
  12    5   11 1
  13    6    7 ar
  14    6    9 1
  15    7    8 ar
  16    9   10 2
  17    9   28 1
  18   10   11 1
  19   10   12 1
  20   12   13 ar
  21   12   17 ar
  22   13   14 ar
  23   13   29 1
  24   14   15 ar
  25   14   19 1
  26   15   16 ar
  27   15   18 1
  28   16   17 ar
  29   16   30 1
  30   17   31 1
  31   18   32 1
  32   18   33 1
  33   18   34 1
  34   20   21 1
  35   20   22 1
  36   20   23 2
  37   21   35 1
  38   22   36 1

#	End of record

