#	Name: ASD01840475
#	Creating user name:	WinNT
#	Creation time:	15. 06. 2019 19:37

#	Modifying user name:	WinNT
#	Modification time:	15. 06. 2019 19:37

#	Program:	/corina/corina34_cracker 3.40 0067  02.08.2006

@<TRIPOS>MOLECULE
ASD01840475
  52   55    0    0    0
SMALL
NO_CHARGES


@<TRIPOS>ATOM
   1 C1             0.2610     1.7549    -0.9980 C.ar    
   2 C2             0.3840     0.5320    -1.6193 C.ar    
   3 N3             1.4992    -0.1678    -1.4965 N.ar    
   4 N4             2.5001     0.2427    -0.8112 N.ar    
   5 C5             1.3549     2.2266    -0.2363 C.ar    
   6 C6             1.5104     3.4570     0.5172 C.2     
   7 C7             2.4929     1.4123    -0.1669 C.ar    
   8 S8             3.7251     2.1827     0.8223 S.3     
   9 C9             2.7119     3.5785     1.1344 C.2     
  10 C10           -1.0000     2.5692    -1.1311 C.3     
  11 C11           -0.7564    -0.0106    -2.4416 C.3     
  12 N12            0.5177     4.4241     0.5986 N.pl3   
  13 C13            3.1098     4.7235     1.9521 C.2     
  14 O14            2.3396     5.6522     2.1150 O.2     
  15 N15            4.3293     4.7508     2.5253 N.am    
  16 C16            4.8557     5.8365     3.3688 C.3     
  17 C17            5.9478     5.1855     4.2462 C.3     
  18 C18            6.5536     4.1210     3.2759 C.3     
  19 C19            5.3489     3.6997     2.4165 C.3     
  20 C20            7.0990     6.1889     4.4365 C.3     
  21 N21            8.0445     6.0036     3.3285 N.am    
  22 C22            7.5132     4.9690     2.4120 C.3     
  23 C23            9.2077     6.6658     3.1705 C.2     
  24 C24           10.0850     6.3744     1.9804 C.3     
  25 C25           11.3346     7.2552     2.0401 C.3     
  26 C26           12.2253     6.9594     0.8318 C.3     
  27 O27            9.5483     7.4963     3.9861 O.2     
  28 H28           -1.6441     2.3847    -0.2714 H       
  29 H29           -0.7458     3.6283    -1.1740 H       
  30 H30           -1.5222     2.2837    -2.0443 H       
  31 H31           -0.6496     0.3211    -3.4744 H       
  32 H32           -0.7434    -1.0999    -2.4066 H       
  33 H33           -1.7010     0.3547    -2.0385 H       
  34 H34           -0.4030     4.1919     0.4002 H       
  35 H35            0.7448     5.3320     0.8537 H       
  36 H36            5.2888     6.6204     2.7475 H       
  37 H37            4.0630     6.2455     3.9951 H       
  38 H38            5.5673     4.7790     5.1833 H       
  39 H39            7.0430     3.2853     3.7761 H       
  40 H40            4.9454     2.7550     2.7810 H       
  41 H41            5.6590     3.5926     1.3770 H       
  42 H42            6.7080     7.2062     4.4220 H       
  43 H43            7.6007     5.9993     5.3854 H       
  44 H44            8.3224     4.3483     2.0273 H       
  45 H45            6.9693     5.4332     1.5893 H       
  46 H46           10.3792     5.3250     1.9942 H       
  47 H47            9.5351     6.5856     1.0632 H       
  48 H48           11.0404     8.3047     2.0263 H       
  49 H49           11.8845     7.0441     2.9572 H       
  50 H50           12.5196     5.9099     0.8456 H       
  51 H51           11.6755     7.1705    -0.0853 H       
  52 H52           13.1156     7.5869     0.8744 H       
@<TRIPOS>BOND
   1    1    2 ar
   2    1    5 ar
   3    1   10 1
   4    2   11 1
   5    2    3 ar
   6    3    4 ar
   7    4    7 ar
   8    5    7 ar
   9    5    6 1
  10    6    9 2
  11    6   12 1
  12    7    8 1
  13    8    9 1
  14    9   13 1
  15   10   28 1
  16   10   29 1
  17   10   30 1
  18   11   31 1
  19   11   32 1
  20   11   33 1
  21   12   34 1
  22   12   35 1
  23   13   14 2
  24   13   15 am
  25   15   16 1
  26   15   19 1
  27   16   17 1
  28   16   36 1
  29   16   37 1
  30   17   20 1
  31   17   18 1
  32   17   38 1
  33   18   19 1
  34   18   22 1
  35   18   39 1
  36   19   40 1
  37   19   41 1
  38   20   21 1
  39   20   42 1
  40   20   43 1
  41   21   22 1
  42   21   23 am
  43   22   44 1
  44   22   45 1
  45   23   24 1
  46   23   27 2
  47   24   25 1
  48   24   46 1
  49   24   47 1
  50   25   26 1
  51   25   48 1
  52   25   49 1
  53   26   50 1
  54   26   51 1
  55   26   52 1

#	End of record

