#	Name: ASD03332041
#	Creating user name:	WinNT
#	Creation time:	15. 06. 2019 20:40

#	Modifying user name:	WinNT
#	Modification time:	15. 06. 2019 20:40

#	Program:	/corina/corina34_cracker 3.40 0067  02.08.2006

@<TRIPOS>MOLECULE
ASD03332041
  65   68    0    0    0
SMALL
NO_CHARGES


@<TRIPOS>ATOM
   1 C1            -0.0607     2.0047     1.7839 C.2     
   2 N2            -0.1497     0.7133     2.1996 N.pl3   
   3 C3             1.0674     0.1320     1.9938 C.2     
   4 N4             1.8807     1.0310     1.4905 N.2     
   5 C5             1.2158     2.1991     1.3513 C.2     
   6 C6             1.7723     3.4578     0.8248 C.2     
   7 O7             1.0700     4.4478     0.7475 O.2     
   8 N8             3.0595     3.5121     0.4290 N.am    
   9 C9             3.6128     4.7635    -0.0944 C.3     
  10 C10            3.3017     4.8732    -1.5884 C.3     
  11 C11            1.7910     4.7637    -1.8042 C.3     
  12 C12            5.1057     4.7771     0.1103 C.2     
  13 C13            3.7956     6.2223    -2.1145 C.3     
  14 C14            4.0076     3.7431    -2.3405 C.3     
  15 O15            5.6888     3.7512     0.3905 O.2     
  16 N16            5.7931     5.9293    -0.0182 N.am    
  17 C17           -1.3416     0.0861     2.7771 C.3     
  18 C18           -2.5583     0.4288     1.9117 C.3     
  19 C19           -3.1664     1.7483     2.3760 C.3     
  20 N20           -2.1315     2.6641     2.8601 N.3     
  21 C21           -1.1821     3.0111     1.7921 C.3     
  22 C22            1.4127    -1.2753     2.2889 C.ar    
  23 C23            1.0549    -1.8426     3.5121 C.ar    
  24 C24            1.3791    -3.1561     3.7820 C.ar    
  25 C25            2.0587    -3.9127     2.8420 C.ar    
  26 C26            2.4173    -3.3573     1.6258 C.ar    
  27 C27            2.0938    -2.0444     1.3412 C.ar    
  28 C28           -2.6945     3.8016     3.4121 C.ar    
  29 C29            7.2526     5.9295     0.1076 C.3     
  30 F30            2.4439    -1.5026     0.1541 F       
  31 Cl31           2.4629    -5.5646     3.1907 Cl      
  32 N32           -1.9016     4.7430     3.9025 N.ar    
  33 C33           -2.4074     5.8422     4.4369 C.ar    
  34 C34           -3.7835     6.0018     4.4797 C.ar    
  35 C35           -4.5836     4.9976     3.9578 C.ar    
  36 N36           -4.0135     3.9257     3.4326 N.ar    
  37 H37            3.6196     2.7225     0.4908 H       
  38 H38            3.1661     5.6067     0.4326 H       
  39 H39            1.2882     5.5688    -1.2684 H       
  40 H40            1.5694     4.8418    -2.8686 H       
  41 H41            1.4391     3.8026    -1.4294 H       
  42 H42            4.8401     6.3609    -1.8352 H       
  43 H43            3.7039     6.2445    -3.2004 H       
  44 H44            3.1948     7.0227    -1.6827 H       
  45 H45            3.6557     2.7820    -1.9658 H       
  46 H46            3.7860     3.8212    -3.4049 H       
  47 H47            5.0838     3.8211    -2.1868 H       
  48 H48            5.3213     6.7585    -0.1938 H       
  49 H49           -1.2072    -0.9952     2.8050 H       
  50 H50           -1.4968     0.4612     3.7887 H       
  51 H51           -2.2487     0.5188     0.8705 H       
  52 H52           -3.3012    -0.3639     2.0008 H       
  53 H53           -3.6930     2.2124     1.5421 H       
  54 H54           -3.8751     1.5521     3.1805 H       
  55 H55           -0.7771     4.0066     1.9737 H       
  56 H56           -1.6939     2.9944     0.8299 H       
  57 H57            0.5253    -1.2544     4.2468 H       
  58 H58            1.1026    -3.5953     4.7290 H       
  59 H59            2.9475    -3.9522     0.8968 H       
  60 H60            7.6287     6.9439    -0.0252 H       
  61 H61            7.5322     5.5648     1.0960 H       
  62 H62            7.6830     5.2798    -0.6545 H       
  63 H63           -1.7559     6.6059     4.8353 H       
  64 H64           -4.2229     6.8893     4.9107 H       
  65 H65           -5.6594     5.0909     3.9760 H       
@<TRIPOS>BOND
   1    1    2 1
   2    1    5 2
   3    1   21 1
   4    2    3 1
   5    2   17 1
   6    3    4 2
   7    3   22 1
   8    4    5 1
   9    5    6 1
  10    6    7 2
  11    6    8 am
  12    8    9 1
  13    8   37 1
  14    9   10 1
  15    9   12 1
  16    9   38 1
  17   10   11 1
  18   10   13 1
  19   10   14 1
  20   11   39 1
  21   11   40 1
  22   11   41 1
  23   12   15 2
  24   12   16 am
  25   13   42 1
  26   13   43 1
  27   13   44 1
  28   14   45 1
  29   14   46 1
  30   14   47 1
  31   16   29 1
  32   16   48 1
  33   17   18 1
  34   17   49 1
  35   17   50 1
  36   18   19 1
  37   18   51 1
  38   18   52 1
  39   19   20 1
  40   19   53 1
  41   19   54 1
  42   20   21 1
  43   20   28 1
  44   21   55 1
  45   21   56 1
  46   22   23 ar
  47   22   27 ar
  48   23   24 ar
  49   23   57 1
  50   24   25 ar
  51   24   58 1
  52   25   26 ar
  53   25   31 1
  54   26   27 ar
  55   26   59 1
  56   27   30 1
  57   28   32 ar
  58   28   36 ar
  59   29   60 1
  60   29   61 1
  61   29   62 1
  62   32   33 ar
  63   33   34 ar
  64   33   63 1
  65   34   35 ar
  66   34   64 1
  67   35   36 ar
  68   35   65 1

#	End of record

