#	Name: ASD02690090
#	Creating user name:	WinNT
#	Creation time:	15. 06. 2019 20:26

#	Modifying user name:	WinNT
#	Modification time:	15. 06. 2019 20:26

#	Program:	/corina/corina34_cracker 3.40 0067  02.08.2006

@<TRIPOS>MOLECULE
ASD02690090
  63   65    0    0    0
SMALL
NO_CHARGES


@<TRIPOS>ATOM
   1 Cl1            0.0000     0.0000     0.0000 Cl      
   2 H2             0.0000     1.3700     0.0000 H       
   3 C3             5.5272    22.6972    19.3802 C.3     
   4 O4             5.5466    21.2683    19.3723 O.3     
   5 C5             6.1498    20.6658    18.3154 C.ar    
   6 C6             6.7188    21.4484    17.3054 C.ar    
   7 C7             7.3290    20.8720    16.2361 C.ar    
   8 C8             7.3934    19.4697    16.1373 C.ar    
   9 C9             8.0174    18.8518    15.0452 C.ar    
  10 C10            8.0634    17.4652    14.9794 C.ar    
  11 C11            7.4884    16.6822    16.0008 C.ar    
  12 C12            6.8808    17.2650    17.0635 C.ar    
  13 C13            6.8186    18.6690    17.1585 C.ar    
  14 C14            6.1996    19.2905    18.2527 C.ar    
  15 C15            8.7156    16.8100    13.8371 C.2     
  16 O16            9.2114    17.4797    12.9559 O.2     
  17 C17            8.7684    15.3058    13.7607 C.3     
  18 C18            9.4963    14.8854    12.4824 C.3     
  19 C19            9.5500    13.3583    12.4048 C.3     
  20 N20           10.2489    12.9546    11.1774 N.3     
  21 C21            9.7698    13.7237    10.0218 C.3     
  22 C22           10.6167    13.3824     8.7936 C.3     
  23 C23           10.5134    11.8814     8.5096 C.3     
  24 C24           11.4060    11.5235     7.3196 C.3     
  25 C25           11.2105    10.0723     6.9635 C.ar    
  26 C26           11.9979     9.1030     7.5562 C.ar    
  27 C27           11.8185     7.7719     7.2296 C.ar    
  28 C28           10.8515     7.4099     6.3104 C.ar    
  29 C29           10.0635     8.3792     5.7183 C.ar    
  30 C30           10.2400     9.7099     6.0482 C.ar    
  31 C31           10.9725    11.1032     9.7458 C.3     
  32 C32           10.1153    11.5106    10.9464 C.3     
  33 H33            6.5498    23.0745    19.3724 H       
  34 H34            5.0000    23.0583    18.4971 H       
  35 H35            5.0170    23.0487    20.2770 H       
  36 H36            6.6724    22.5251    17.3758 H       
  37 H37            7.7632    21.4893    15.4635 H       
  38 H38            8.4586    19.4489    14.2608 H       
  39 H39            7.5320    15.6051    15.9358 H       
  40 H40            6.4443    16.6521    17.8382 H       
  41 H41            5.7614    18.6946    19.0397 H       
  42 H42            9.3023    14.9165    14.6276 H       
  43 H43            7.7542    14.9068    13.7493 H       
  44 H44            8.9625    15.2747    11.6155 H       
  45 H45           10.5106    15.2844    12.4938 H       
  46 H46           10.0838    12.9690    13.2717 H       
  47 H47            8.5357    12.9592    12.3933 H       
  48 H48            8.7275    13.4727     9.8253 H       
  49 H49            9.8526    14.7894    10.2352 H       
  50 H50           10.2509    13.9417     7.9325 H       
  51 H51           11.6570    13.6460     8.9843 H       
  52 H52            9.4794    11.6245     8.2796 H       
  53 H53           11.1398    12.1463     6.4655 H       
  54 H54           12.4495    11.6955     7.5835 H       
  55 H55           12.7534     9.3858     8.2743 H       
  56 H56           12.4342     7.0146     7.6922 H       
  57 H57           10.7119     6.3700     6.0547 H       
  58 H58            9.3082     8.0964     5.0000 H       
  59 H59            9.6218    10.4668     5.5885 H       
  60 H60           10.8609    10.0341     9.5651 H       
  61 H61           12.0184    11.3309     9.9515 H       
  62 H62           10.4489    10.9688    11.8314 H       
  63 H63            9.0713    11.2699    10.7456 H       
@<TRIPOS>BOND
   1    1    2 1
   2    3    4 1
   3    3   33 1
   4    3   34 1
   5    3   35 1
   6    4    5 1
   7    5   14 ar
   8    5    6 ar
   9    6    7 ar
  10    6   36 1
  11    7    8 ar
  12    7   37 1
  13    8   13 ar
  14    8    9 ar
  15    9   10 ar
  16    9   38 1
  17   10   11 ar
  18   10   15 1
  19   11   12 ar
  20   11   39 1
  21   12   13 ar
  22   12   40 1
  23   13   14 ar
  24   14   41 1
  25   15   16 2
  26   15   17 1
  27   17   18 1
  28   17   42 1
  29   17   43 1
  30   18   19 1
  31   18   44 1
  32   18   45 1
  33   19   20 1
  34   19   46 1
  35   19   47 1
  36   20   32 1
  37   20   21 1
  38   21   22 1
  39   21   48 1
  40   21   49 1
  41   22   23 1
  42   22   50 1
  43   22   51 1
  44   23   24 1
  45   23   31 1
  46   23   52 1
  47   24   25 1
  48   24   53 1
  49   24   54 1
  50   25   30 ar
  51   25   26 ar
  52   26   27 ar
  53   26   55 1
  54   27   28 ar
  55   27   56 1
  56   28   29 ar
  57   28   57 1
  58   29   30 ar
  59   29   58 1
  60   30   59 1
  61   31   32 1
  62   31   60 1
  63   31   61 1
  64   32   62 1
  65   32   63 1

#	End of record

