#	Name: ASD01815851
#	Creating user name:	WinNT
#	Creation time:	15. 06. 2019 19:34

#	Modifying user name:	WinNT
#	Modification time:	15. 06. 2019 19:34

#	Program:	/corina/corina34_cracker 3.40 0067  02.08.2006

@<TRIPOS>MOLECULE
ASD01815851
  52   57    0    0    0
SMALL
NO_CHARGES


@<TRIPOS>ATOM
   1 C1            -0.0168     1.3845     0.0097 C.ar    
   2 C2             0.0021    -0.0041     0.0020 C.ar    
   3 C3            -1.1855    -0.7094     0.0100 C.ar    
   4 C4            -2.3921    -0.0344     0.0257 C.ar    
   5 C5            -2.4144     1.3485     0.0329 C.ar    
   6 C6            -1.2307     2.0596     0.0307 C.ar    
   7 N7             1.1850     2.1024     0.0020 N.am    
   8 C8             2.1646     1.9570    -0.9162 C.2     
   9 N9             1.5393     3.0756     0.9398 N.2     
  10 C10            2.7141     3.5722     0.6778 C.2     
  11 C11            3.2178     2.8949    -0.5390 C.2     
  12 O12            2.1687     1.1950    -1.8689 O.2     
  13 C13            3.5846     4.5937     1.2898 C.ar    
  14 C14            4.8285     4.8557     0.6862 C.ar    
  15 N15            5.2153     4.1713    -0.4477 N.pl3   
  16 C16            4.4503     3.2360    -1.0362 C.2     
  17 N17            3.2175     5.2546     2.3787 N.ar    
  18 C18            4.0248     6.1628     2.8972 C.ar    
  19 C19            5.2504     6.4245     2.3061 C.ar    
  20 N20            5.6269     5.7714     1.2216 N.ar    
  21 C21            6.5195     4.4803    -1.0392 C.3     
  22 C22            7.5705     3.5866    -0.4327 C.ar    
  23 C23            7.8553     2.3642    -1.0130 C.ar    
  24 C24            8.8178     1.5428    -0.4592 C.ar    
  25 C25            9.4998     1.9457     0.6810 C.ar    
  26 C26            9.2119     3.1738     1.2611 C.ar    
  27 C27            8.2521     3.9932     0.6997 C.ar    
  28 N28           10.4768     1.1140     1.2457 N.pl3   
  29 C29           11.2110     1.3840     2.3488 C.2     
  30 C30           12.0363     0.3329     2.5614 C.2     
  31 C31           11.7996    -0.6109     1.5559 C.2     
  32 N32           10.8612    -0.1465     0.7707 N.2     
  33 C33           -1.2558     3.5663     0.0385 C.3     
  34 H34            0.9442    -0.5319    -0.0105 H       
  35 H35           -1.1715    -1.7893     0.0038 H       
  36 H36           -3.3193    -0.5883     0.0319 H       
  37 H37           -3.3585     1.8727     0.0443 H       
  38 H38            4.8158     2.7390    -1.9226 H       
  39 H39            3.7286     6.7030     3.7842 H       
  40 H40            5.9038     7.1690     2.7362 H       
  41 H41            6.4788     4.3145    -2.1157 H       
  42 H42            6.7705     5.5224    -0.8413 H       
  43 H43            7.3245     2.0513    -1.8999 H       
  44 H44            9.0393     0.5879    -0.9124 H       
  45 H45            9.7406     3.4898     2.1483 H       
  46 H46            8.0278     4.9486     1.1505 H       
  47 H47           11.1500     2.2781     2.9515 H       
  48 H48           12.7514     0.2391     3.3653 H       
  49 H49           12.3016    -1.5612     1.4489 H       
  50 H50           -1.2569     3.9243     1.0680 H       
  51 H51           -0.3746     3.9471    -0.4777 H       
  52 H52           -2.1543     3.9173    -0.4691 H       
@<TRIPOS>BOND
   1    1    2 ar
   2    1    7 1
   3    1    6 ar
   4    2    3 ar
   5    2   34 1
   6    3    4 ar
   7    3   35 1
   8    4    5 ar
   9    4   36 1
  10    5    6 ar
  11    5   37 1
  12    6   33 1
  13    7    8 am
  14    7    9 1
  15    8   12 2
  16    8   11 1
  17    9   10 2
  18   10   11 1
  19   10   13 1
  20   11   16 2
  21   13   14 ar
  22   13   17 ar
  23   14   15 1
  24   14   20 ar
  25   15   16 1
  26   15   21 1
  27   16   38 1
  28   17   18 ar
  29   18   19 ar
  30   18   39 1
  31   19   20 ar
  32   19   40 1
  33   21   22 1
  34   21   41 1
  35   21   42 1
  36   22   23 ar
  37   22   27 ar
  38   23   24 ar
  39   23   43 1
  40   24   25 ar
  41   24   44 1
  42   25   26 ar
  43   25   28 1
  44   26   27 ar
  45   26   45 1
  46   27   46 1
  47   28   29 1
  48   28   32 1
  49   29   30 2
  50   29   47 1
  51   30   31 1
  52   30   48 1
  53   31   32 2
  54   31   49 1
  55   33   50 1
  56   33   51 1
  57   33   52 1

#	End of record

