#	Name: ASD09116146
#	Creating user name:	WinNT
#	Creation time:	15. 06. 2019 21:20

#	Modifying user name:	WinNT
#	Modification time:	15. 06. 2019 21:20

#	Program:	/corina/corina34_cracker 3.40 0067  02.08.2006

@<TRIPOS>MOLECULE
ASD09116146
  79   86    0    0    0
SMALL
NO_CHARGES


@<TRIPOS>ATOM
   1 N1            -0.1162     1.7103     0.5073 N.2     
   2 C2            -0.1330     0.2610     0.7732 C.3     
   3 C3             1.1400     2.0623     0.4619 C.2     
   4 N4             1.9808     1.0274     0.6649 N.2     
   5 C5             1.3384    -0.0944     0.8611 C.2     
   6 N6             1.5629     3.3557     0.2308 N.pl3   
   7 C7             2.9257     3.6713     0.3069 C.ar    
   8 C8             3.4524     4.6713    -0.4989 C.ar    
   9 C9             3.7483     2.9872     1.1927 C.ar    
  10 C10            5.0927     3.2988     1.2675 C.ar    
  11 C11            5.6207     4.2971     0.4556 C.ar    
  12 C12            4.7964     4.9830    -0.4250 C.ar    
  13 N13            1.8767    -1.3216     1.0943 N.pl3   
  14 C14           -0.8294    -0.0322     2.0771 C.ar    
  15 C15           -1.4526     0.9959     2.7541 C.ar    
  16 N16           -0.8336    -1.2738     2.5445 N.ar    
  17 C17           -1.4257    -1.5608     3.6672 C.ar    
  18 C18           -2.0767    -0.5809     4.4229 C.ar    
  19 C19           -2.1023     0.7287     3.9693 C.ar    
  20 C20           -1.4994    -2.9372     4.3023 C.3     
  21 C21           -0.8985    -2.7901     5.7154 C.3     
  22 C22           -1.6115    -1.6561     6.4552 C.3     
  23 N23           -2.6581    -1.0597     5.6019 N.3     
  24 C24           -3.6554    -2.0957     5.2684 C.3     
  25 C25           -2.9995    -3.2414     4.4944 C.3     
  26 C26           -2.7803     1.8007     4.7368 C.2     
  27 C27           -4.0394     1.6819     5.1986 C.2     
  28 N28            6.9833     4.6140     0.5310 N.3     
  29 C29            7.6446     4.4053    -0.7634 C.3     
  30 C30            9.1519     4.6200    -0.6083 C.3     
  31 C31            9.4107     6.0429    -0.1054 C.3     
  32 C32            8.6716     6.2499     1.2196 C.3     
  33 C33            7.1783     5.9879     1.0114 C.3     
  34 N34           10.8522     6.2359     0.1012 N.3     
  35 F35            5.8935     2.6343     2.1291 F       
  36 C36           11.5909     6.0989    -1.1674 C.3     
  37 C37           12.3821     7.4067    -1.3794 C.3     
  38 C38           12.4954     7.9833     0.0564 C.3     
  39 C39           11.1321     7.5730     0.6668 C.3     
  40 S40           -4.4923     3.1492     6.0556 S.3     
  41 C41           -2.9179     3.8639     5.7370 C.2     
  42 C42           -2.1649     3.0131     5.0451 C.2     
  43 H43           -0.6123    -0.2747    -0.0461 H       
  44 H44            0.9164     4.0462     0.0158 H       
  45 H45            2.8113     5.2058    -1.1843 H       
  46 H46            3.3375     2.2124     1.8230 H       
  47 H47            5.2062     5.7582    -1.0555 H       
  48 H48            2.8400    -1.4302     1.1283 H       
  49 H49            1.2972    -2.0882     1.2266 H       
  50 H50           -1.4404     1.9983     2.3523 H       
  51 H51           -0.9852    -3.6945     3.7106 H       
  52 H52           -1.0300    -3.7221     6.2652 H       
  53 H53            0.1642    -2.5611     5.6365 H       
  54 H54           -2.0688    -2.0503     7.3628 H       
  55 H55           -0.8852    -0.8887     6.7230 H       
  56 H56           -4.0904    -2.4858     6.1885 H       
  57 H57           -4.4429    -1.6537     4.6580 H       
  58 H58           -3.4776    -3.3425     3.5201 H       
  59 H59           -3.1134    -4.1700     5.0537 H       
  60 H60           -4.6738     0.8184     5.0633 H       
  61 H61            7.4561     3.3884    -1.1077 H       
  62 H62            7.2498     5.1141    -1.4914 H       
  63 H63            9.5497     3.9024     0.1093 H       
  64 H64            9.6405     4.4803    -1.5725 H       
  65 H65            9.0478     6.7608    -0.8409 H       
  66 H66            9.0619     5.5579     1.9659 H       
  67 H67            8.8172     7.2747     1.5612 H       
  68 H68            6.7857     6.6893     0.2752 H       
  69 H69            6.6512     6.1205     1.9562 H       
  70 H70           12.2784     5.2552    -1.1070 H       
  71 H71           10.8910     5.9514    -1.9899 H       
  72 H72           13.3700     7.1973    -1.7897 H       
  73 H73           11.8316     8.0895    -2.0266 H       
  74 H74           13.3207     7.5217     0.5985 H       
  75 H75           12.6027     9.0678     0.0343 H       
  76 H76           10.3562     8.2796     0.3721 H       
  77 H77           11.2038     7.5181     1.7530 H       
  78 H78           -2.6069     4.8468     6.0587 H       
  79 H79           -1.1557     3.2466     4.7393 H       
@<TRIPOS>BOND
   1    1    2 1
   2    1    3 2
   3    2   14 1
   4    2    5 1
   5    2   43 1
   6    3    4 1
   7    3    6 1
   8    4    5 2
   9    5   13 1
  10    6    7 1
  11    6   44 1
  12    7    8 ar
  13    7    9 ar
  14    8   12 ar
  15    8   45 1
  16    9   10 ar
  17    9   46 1
  18   10   11 ar
  19   10   35 1
  20   11   12 ar
  21   11   28 1
  22   12   47 1
  23   13   48 1
  24   13   49 1
  25   14   15 ar
  26   14   16 ar
  27   15   19 ar
  28   15   50 1
  29   16   17 ar
  30   17   18 ar
  31   17   20 1
  32   18   19 ar
  33   18   23 1
  34   19   26 1
  35   20   21 1
  36   20   25 1
  37   20   51 1
  38   21   22 1
  39   21   52 1
  40   21   53 1
  41   22   23 1
  42   22   54 1
  43   22   55 1
  44   23   24 1
  45   24   25 1
  46   24   56 1
  47   24   57 1
  48   25   58 1
  49   25   59 1
  50   26   27 2
  51   26   42 1
  52   27   40 1
  53   27   60 1
  54   28   29 1
  55   28   33 1
  56   29   30 1
  57   29   61 1
  58   29   62 1
  59   30   31 1
  60   30   63 1
  61   30   64 1
  62   31   32 1
  63   31   34 1
  64   31   65 1
  65   32   33 1
  66   32   66 1
  67   32   67 1
  68   33   68 1
  69   33   69 1
  70   34   36 1
  71   34   39 1
  72   36   37 1
  73   36   70 1
  74   36   71 1
  75   37   38 1
  76   37   72 1
  77   37   73 1
  78   38   39 1
  79   38   74 1
  80   38   75 1
  81   39   76 1
  82   39   77 1
  83   40   41 1
  84   41   42 2
  85   41   78 1
  86   42   79 1

#	End of record

