#	Name: ASD01911233
#	Creating user name:	WinNT
#	Creation time:	15. 06. 2019 19:57

#	Modifying user name:	WinNT
#	Modification time:	15. 06. 2019 19:57

#	Program:	/corina/corina34_cracker 3.40 0067  02.08.2006

@<TRIPOS>MOLECULE
ASD01911233
  48   51    0    0    0
SMALL
NO_CHARGES


@<TRIPOS>ATOM
   1 C1            -0.0187     1.5277     0.0104 C.3     
   2 C2             0.0021    -0.0041     0.0020 C.3     
   3 N3             0.8243    -0.4720     1.1261 N.am    
   4 C4             2.1940     0.0421     1.2616 C.3     
   5 C5             2.1487     1.5734     1.2559 C.3     
   6 C6             1.4185     2.0534    -0.0005 C.3     
   7 C7             0.3314    -1.3558     2.0163 C.2     
   8 O8             1.0202    -1.7345     2.9399 O.2     
   9 C9            -1.0756    -1.8736     1.8639 C.3     
  10 C10           -1.4863    -2.8727     2.9585 C.3     
  11 C11           -2.8609    -2.1834     2.9619 C.3     
  12 C12           -2.1452    -0.9281     2.4357 C.3     
  13 C13            3.5537     2.1182     1.2603 C.2     
  14 N14            4.0845     2.8939     2.1724 N.2     
  15 C15            5.3515     3.1248     1.7603 C.2     
  16 N16            5.5140     2.4821     0.6332 N.2     
  17 O17            4.4943     1.8959     0.3369 O.3     
  18 C18            6.3674     3.9532     2.4566 C.ar    
  19 C19            7.6395     4.1025     1.9110 C.ar    
  20 C20            8.5834     4.8774     2.5654 C.ar    
  21 C21            8.2597     5.5023     3.7616 C.ar    
  22 C22            6.9966     5.3540     4.3039 C.ar    
  23 C23            6.0487     4.5884     3.6554 C.ar    
  24 O24            9.8264     5.0251     2.0363 O.3     
  25 C25           10.7490     5.8380     2.7643 C.3     
  26 H26           -0.5451     1.8893    -0.8729 H       
  27 H27           -0.5281     1.8797     0.9075 H       
  28 H28           -1.0139    -0.3839     0.1095 H       
  29 H29            0.4296    -0.3586    -0.9359 H       
  30 H30            2.6242    -0.3072     2.2002 H       
  31 H31            2.8003    -0.3086     0.4265 H       
  32 H32            1.6189     1.9249     2.1413 H       
  33 H33            1.9348     1.6808    -0.8852 H       
  34 H34            1.4064     3.1432    -0.0193 H       
  35 H35           -1.2921    -2.2198     0.8533 H       
  36 H36           -1.5174    -3.9070     2.6162 H       
  37 H37           -0.9343    -2.7506     3.8905 H       
  38 H38           -3.5669    -2.6136     2.2515 H       
  39 H39           -3.2845    -2.0589     3.9585 H       
  40 H40           -1.7734    -0.2744     3.2247 H       
  41 H41           -2.7083    -0.3926     1.6712 H       
  42 H42            7.8901     3.6152     0.9803 H       
  43 H43            8.9966     6.1060     4.2704 H       
  44 H44            6.7497     5.8420     5.2351 H       
  45 H45            5.0628     4.4747     4.0814 H       
  46 H46           10.3486     6.8475     2.8578 H       
  47 H47           10.9017     5.4144     3.7569 H       
  48 H48           11.7004     5.8723     2.2336 H       
@<TRIPOS>BOND
   1    1    2 1
   2    1    6 1
   3    1   26 1
   4    1   27 1
   5    2    3 1
   6    2   28 1
   7    2   29 1
   8    3    4 1
   9    3    7 am
  10    4    5 1
  11    4   30 1
  12    4   31 1
  13    5    6 1
  14    5   13 1
  15    5   32 1
  16    6   33 1
  17    6   34 1
  18    7    8 2
  19    7    9 1
  20    9   10 1
  21    9   12 1
  22    9   35 1
  23   10   11 1
  24   10   36 1
  25   10   37 1
  26   11   12 1
  27   11   38 1
  28   11   39 1
  29   12   40 1
  30   12   41 1
  31   13   14 2
  32   13   17 1
  33   14   15 1
  34   15   16 2
  35   15   18 1
  36   16   17 1
  37   18   19 ar
  38   18   23 ar
  39   19   20 ar
  40   19   42 1
  41   20   21 ar
  42   20   24 1
  43   21   22 ar
  44   21   43 1
  45   22   23 ar
  46   22   44 1
  47   23   45 1
  48   24   25 1
  49   25   46 1
  50   25   47 1
  51   25   48 1

#	End of record

