#	Name: ASD01001175
#	Creating user name:	WinNT
#	Creation time:	15. 06. 2019 18:55

#	Modifying user name:	WinNT
#	Modification time:	15. 06. 2019 18:55

#	Program:	/corina/corina34_cracker 3.40 0067  02.08.2006

@<TRIPOS>MOLECULE
ASD01001175
  52   55    0    0    0
SMALL
NO_CHARGES


@<TRIPOS>ATOM
   1 C1            -0.0167     1.3784     0.0096 C.ar    
   2 C2             1.2788     2.1484     0.0014 C.3     
   3 C3             1.5838     2.6363    -1.4177 C.3     
   4 N4             1.1603     3.3327     0.8643 N.pl3   
   5 C5             1.5951     1.4592    -2.3892 C.3     
   6 C6             2.9336     3.3498    -1.4238 C.3     
   7 C7             2.0954     4.3651     0.7308 C.ar    
   8 C8             2.7666     0.5306    -2.0566 C.3     
   9 C9             2.9594     4.4113    -0.3522 C.ar    
  10 O10            3.9819     2.4129    -1.1642 O.3     
  11 C11            2.1505     5.3564     1.7048 C.ar    
  12 C12            4.0661     1.3404    -2.1029 C.3     
  13 C13            3.8694     5.4485    -0.4598 C.ar    
  14 C14            3.0621     6.3870     1.5913 C.ar    
  15 C15            3.9207     6.4330     0.5085 C.ar    
  16 C16            4.9144     7.5591     0.3841 C.3     
  17 C17            4.6541     8.3280    -0.9127 C.3     
  18 C18            4.7648     8.5054     1.5770 C.3     
  19 C19            6.3333     6.9870     0.3618 C.3     
  20 C20            0.0021    -0.0041     0.0020 C.ar    
  21 C21           -1.1841    -0.7122     0.0095 C.ar    
  22 C22           -2.3948    -0.0349     0.0247 C.ar    
  23 C23           -2.4109     1.3523     0.0323 C.ar    
  24 C24           -1.2219     2.0557     0.0305 C.ar    
  25 O25           -3.5630    -0.7292     0.0317 O.3     
  26 H26            2.0894     1.5114     0.3555 H       
  27 H27            0.8171     3.3475    -1.7249 H       
  28 H28            0.4448     3.3975     1.5161 H       
  29 H29            0.6588     0.9079    -2.3024 H       
  30 H30            1.7042     1.8306    -3.4082 H       
  31 H31            3.0950     3.8127    -2.3973 H       
  32 H32            2.6309     0.1142    -1.0584 H       
  33 H33            2.8126    -0.2762    -2.7882 H       
  34 H34            1.4795     5.3201     2.5503 H       
  35 H35            4.9066     0.6959    -1.8455 H       
  36 H36            4.2085     1.7439    -3.1054 H       
  37 H37            4.5422     5.4883    -1.3036 H       
  38 H38            3.1043     7.1568     2.3476 H       
  39 H39            3.6433     8.7356    -0.8968 H       
  40 H40            5.3729     9.1425    -1.0027 H       
  41 H41            4.7607     7.6539    -1.7625 H       
  42 H42            4.9503     7.9576     2.5009 H       
  43 H43            5.4836     9.3199     1.4870 H       
  44 H44            3.7540     8.9130     1.5929 H       
  45 H45            6.4399     6.3128    -0.4881 H       
  46 H46            7.0520     7.8015     0.2718 H       
  47 H47            6.5187     6.4392     1.2857 H       
  48 H48            0.9448    -0.5308    -0.0102 H       
  49 H49           -1.1689    -1.7920     0.0032 H       
  50 H50           -3.3521     1.8818     0.0442 H       
  51 H51           -1.2339     3.1356     0.0364 H       
  52 H52           -3.8928    -0.9352     0.9171 H       
@<TRIPOS>BOND
   1    1   20 ar
   2    1    2 1
   3    1   24 ar
   4    2    3 1
   5    2    4 1
   6    2   26 1
   7    3    5 1
   8    3    6 1
   9    3   27 1
  10    4    7 1
  11    4   28 1
  12    5    8 1
  13    5   29 1
  14    5   30 1
  15    6    9 1
  16    6   10 1
  17    6   31 1
  18    7    9 ar
  19    7   11 ar
  20    8   12 1
  21    8   32 1
  22    8   33 1
  23    9   13 ar
  24   10   12 1
  25   11   14 ar
  26   11   34 1
  27   12   35 1
  28   12   36 1
  29   13   15 ar
  30   13   37 1
  31   14   15 ar
  32   14   38 1
  33   15   16 1
  34   16   17 1
  35   16   18 1
  36   16   19 1
  37   17   39 1
  38   17   40 1
  39   17   41 1
  40   18   42 1
  41   18   43 1
  42   18   44 1
  43   19   45 1
  44   19   46 1
  45   19   47 1
  46   20   21 ar
  47   20   48 1
  48   21   22 ar
  49   21   49 1
  50   22   23 ar
  51   22   25 1
  52   23   24 ar
  53   23   50 1
  54   24   51 1
  55   25   52 1

#	End of record

