#	Name: ASD02198240
#	Creating user name:	WinNT
#	Creation time:	15. 06. 2019 20:19

#	Modifying user name:	WinNT
#	Modification time:	15. 06. 2019 20:19

#	Program:	/corina/corina34_cracker 3.40 0067  02.08.2006

@<TRIPOS>MOLECULE
ASD02198240
  47   49    0    0    0
SMALL
NO_CHARGES


@<TRIPOS>ATOM
   1 C1            -0.0166     1.3759     0.0096 C.2     
   2 C2             0.0021    -0.0041     0.0020 C.2     
   3 C3            -1.2154    -0.8198     0.0088 C.2     
   4 S4             1.5676     2.0058    -0.0021 S.3     
   5 C5             2.2774     0.3995    -0.0175 C.2     
   6 C6             1.2835    -0.5516    -0.0132 C.2     
   7 C7             3.6585     0.1258    -0.0326 C.2     
   8 C8             4.6310     1.2363    -0.0359 C.2     
   9 O9             4.0514    -1.0290    -0.0430 O.2     
  10 N10            1.5311    -1.9139    -0.0233 N.pl3   
  11 N11           -1.1583     2.1393     0.0194 N.pl3   
  12 N12           -1.7645    -1.2012     1.1791 N.am    
  13 C13           -1.0619     3.6011     0.0268 C.3     
  14 C14           -2.4677     4.2049     0.0370 C.3     
  15 O15            4.3521     2.5531    -0.0253 O.3     
  16 N16            5.3577     3.2238    -0.0315 N.2     
  17 C17            6.4371     2.4820    -0.0468 C.2     
  18 C18            5.9938     1.1319    -0.0443 C.2     
  19 C19            7.8435     2.9570    -0.0590 C.ar    
  20 C20            8.1202     4.3224    -0.0540 C.ar    
  21 C21            8.8914     2.0390    -0.0697 C.ar    
  22 C22           10.1971     2.4862    -0.0810 C.ar    
  23 C23           10.4662     3.8429    -0.0813 C.ar    
  24 C24            9.4297     4.7587    -0.0654 C.ar    
  25 C25           -3.1704     3.8389     1.3459 C.3     
  26 C26           -2.3698     5.7272    -0.0809 C.3     
  27 O27           -1.7306    -1.1529    -1.0424 O.2     
  28 H28            2.4443    -2.2408    -0.0344 H       
  29 H29            0.7914    -2.5413    -0.0192 H       
  30 H30           -2.0284     1.7106     0.0213 H       
  31 H31           -1.3539    -0.9357     2.0168 H       
  32 H32           -2.5704    -1.7411     1.1835 H       
  33 H33           -0.5209     3.9251     0.9159 H       
  34 H34           -0.5297     3.9347    -0.8640 H       
  35 H35           -3.0383     3.8112    -0.8041 H       
  36 H36            6.5933     0.2337    -0.0540 H       
  37 H37            7.3116     5.0383    -0.0415 H       
  38 H38            8.6824     0.9795    -0.0688 H       
  39 H39           11.0102     1.7754    -0.0893 H       
  40 H40           11.4894     4.1885    -0.0898 H       
  41 H41            9.6453     5.8169    -0.0656 H       
  42 H42           -2.5998     4.2325     2.1871 H       
  43 H43           -4.1720     4.2690     1.3532 H       
  44 H44           -3.2402     2.7544     1.4299 H       
  45 H45           -1.8692     5.9879    -1.0133 H       
  46 H46           -3.3714     6.1573    -0.0736 H       
  47 H47           -1.7992     6.1208     0.7603 H       
@<TRIPOS>BOND
   1    1    2 2
   2    1    4 1
   3    1   11 1
   4    2    3 1
   5    2    6 1
   6    3   12 am
   7    3   27 2
   8    4    5 1
   9    5    6 2
  10    5    7 1
  11    6   10 1
  12    7    8 1
  13    7    9 2
  14    8   15 1
  15    8   18 2
  16   10   28 1
  17   10   29 1
  18   11   13 1
  19   11   30 1
  20   12   31 1
  21   12   32 1
  22   13   14 1
  23   13   33 1
  24   13   34 1
  25   14   25 1
  26   14   26 1
  27   14   35 1
  28   15   16 1
  29   16   17 2
  30   17   18 1
  31   17   19 1
  32   18   36 1
  33   19   20 ar
  34   19   21 ar
  35   20   24 ar
  36   20   37 1
  37   21   22 ar
  38   21   38 1
  39   22   23 ar
  40   22   39 1
  41   23   24 ar
  42   23   40 1
  43   24   41 1
  44   25   42 1
  45   25   43 1
  46   25   44 1
  47   26   45 1
  48   26   46 1
  49   26   47 1

#	End of record

