#	Name: ASD02038678
#	Creating user name:	WinNT
#	Creation time:	15. 06. 2019 20:17

#	Modifying user name:	WinNT
#	Modification time:	15. 06. 2019 20:17

#	Program:	/corina/corina34_cracker 3.40 0067  02.08.2006

@<TRIPOS>MOLECULE
ASD02038678
  46   47    0    0    0
SMALL
NO_CHARGES


@<TRIPOS>ATOM
   1 C1             0.4293     1.4308     0.0208 C.ar    
   2 C2             0.3334     0.0519     0.0026 C.ar    
   3 C3             1.4793    -0.7210     0.0278 C.ar    
   4 C4             1.3747    -2.2243     0.0084 C.3     
   5 C5             1.3817    -2.7173    -1.4399 C.3     
   6 C6             1.2772    -4.2206    -1.4593 C.2     
   7 N7             1.2647    -4.8801    -2.6346 N.am    
   8 N8             1.1676    -6.2776    -2.6526 N.am    
   9 C9             1.1551    -6.9371    -3.8279 C.2     
  10 C10            0.6169    -6.5116    -7.3062 C.ar    
  11 C11            0.7201    -7.1920    -8.5035 C.ar    
  12 C12            1.5424    -8.3005    -8.6025 C.ar    
  13 C13            2.2636    -8.7308    -7.5014 C.ar    
  14 C14            2.1639    -8.0527    -6.3009 C.ar    
  15 C15            1.3393    -6.9404    -6.2001 C.ar    
  16 C16            1.6710     2.0368     0.0644 C.ar    
  17 C17            2.8168     1.2639     0.0896 C.ar    
  18 C18            2.7210    -0.1150     0.0704 C.ar    
  19 S19            1.7932     3.7944     0.0871 S.o2    
  20 N20            1.2361    -6.2523    -4.9859 N.am    
  21 S21            1.0363    -8.6449    -3.8500 S.2     
  22 Cl22           1.6698    -9.1534   -10.1092 Cl      
  23 O23            1.2043    -4.8369    -0.4173 O.2     
  24 Cl24           3.2939   -10.1222    -7.6289 Cl      
  25 O25            3.0833     4.1135    -0.4157 O.2     
  26 O26            0.5910     4.2877    -0.4880 O.2     
  27 N27            1.7801     4.2662     1.6744 N.am    
  28 C28            2.8807     3.8821     2.5618 C.3     
  29 H29           -0.4658     2.0347    -0.0034 H       
  30 H30           -0.6367    -0.4216    -0.0310 H       
  31 H31            2.2219    -2.6543     0.5427 H       
  32 H32            0.4470    -2.5302     0.4920 H       
  33 H33            0.5345    -2.2873    -1.9742 H       
  34 H34            2.3094    -2.4113    -1.9234 H       
  35 H35            1.3230    -4.3872    -3.4680 H       
  36 H36            1.1093    -6.7705    -1.8193 H       
  37 H37           -0.0218    -5.6439    -7.2312 H       
  38 H38            0.1581    -6.8587    -9.3635 H       
  39 H39            2.7258    -8.3888    -5.4420 H       
  40 H40            3.7869     1.7374     0.1229 H       
  41 H41            3.6161    -0.7188     0.0905 H       
  42 H42            1.2228    -5.2824    -4.9777 H       
  43 H43            1.0437     4.7968     2.0166 H       
  44 H44            2.9456     2.7952     2.6107 H       
  45 H45            3.8167     4.2850     2.1751 H       
  46 H46            2.6985     4.2805     3.5600 H       
@<TRIPOS>BOND
   1    1    2 ar
   2    1   16 ar
   3    1   29 1
   4    2    3 ar
   5    2   30 1
   6    3    4 1
   7    3   18 ar
   8    4    5 1
   9    4   31 1
  10    4   32 1
  11    5    6 1
  12    5   33 1
  13    5   34 1
  14    6    7 am
  15    6   23 2
  16    7    8 1
  17    7   35 1
  18    8    9 am
  19    8   36 1
  20    9   20 am
  21    9   21 2
  22   10   11 ar
  23   10   15 ar
  24   10   37 1
  25   11   12 ar
  26   11   38 1
  27   12   13 ar
  28   12   22 1
  29   13   14 ar
  30   13   24 1
  31   14   15 ar
  32   14   39 1
  33   15   20 1
  34   16   17 ar
  35   16   19 1
  36   17   18 ar
  37   17   40 1
  38   18   41 1
  39   19   25 2
  40   19   26 2
  41   19   27 am
  42   20   42 1
  43   27   28 1
  44   27   43 1
  45   28   44 1
  46   28   45 1
  47   28   46 1

#	End of record

