#	Name: ASD08178099
#	Creating user name:	WinNT
#	Creation time:	15. 06. 2019 21:18

#	Modifying user name:	WinNT
#	Modification time:	15. 06. 2019 21:18

#	Program:	/corina/corina34_cracker 3.40 0067  02.08.2006

@<TRIPOS>MOLECULE
ASD08178099
  69   72    0    0    0
SMALL
NO_CHARGES


@<TRIPOS>ATOM
   1 C1            -0.0184     1.5028     0.0103 C.2     
   2 C2             0.0021    -0.0041     0.0020 C.3     
   3 C3             0.0221    -0.5218     1.4416 C.3     
   4 C4             0.0906    -4.2741     3.3609 C.3     
   5 C5             0.1086    -4.6210     4.8273 C.2     
   6 N6            -0.9281    -4.8115     5.5801 N.2     
   7 N7            -0.7035    -5.0951     6.7896 N.2     
   8 C8             0.5358    -5.1706     7.1711 C.2     
   9 S9             1.5453    -4.8479     5.8252 S.3     
  10 N10            0.9711    -5.4695     8.4577 N.am    
  11 N11            1.0171     2.2809     0.0046 N.2     
  12 C12            0.0736    -5.7112     9.4337 C.2     
  13 O13           -1.1137    -5.6681     9.1899 O.2     
  14 C14            0.5452    -6.0351    10.8278 C.3     
  15 C15           -0.6469    -6.2610    11.7217 C.ar    
  16 N16            0.7904     3.5228     0.0134 N.2     
  17 C17           -0.4495     3.9094     0.0274 C.2     
  18 S18           -1.4568     2.5237     0.0218 S.3     
  19 C19           -2.6416    -7.4752    12.2504 C.ar    
  20 C20           -0.8398    -5.4605    12.8320 C.ar    
  21 C21           -1.9333    -5.6678    13.6519 C.ar    
  22 C22           -2.8340    -6.6753    13.3612 C.ar    
  23 C23           -1.5504    -7.2652    11.4281 C.ar    
  24 N24           -0.8870     5.2295     0.0390 N.am    
  25 C25            0.0089     6.2364     0.0358 C.2     
  26 O26            1.1967     5.9912     0.0228 O.2     
  27 C27           -0.4651     7.6668     0.0485 C.3     
  28 C28            0.7256     8.5906     0.0419 C.ar    
  29 C29            0.9149     9.4815     1.0819 C.ar    
  30 C30            2.0071    10.3289     1.0758 C.ar    
  31 C31            2.9100    10.2852     0.0300 C.ar    
  32 C32            2.7211     9.3937    -1.0095 C.ar    
  33 C33            1.6314     8.5433    -1.0012 C.ar    
  34 C34            0.0684    -2.7531     3.1968 C.3     
  35 S35            0.0467    -2.3356     1.4317 S.3     
  36 C36           -1.3224     7.9310    -1.1909 C.3     
  37 N37           -2.5431     7.1165    -1.1246 N.3     
  38 C38            1.4047    -7.3005    10.7944 C.3     
  39 N39            2.6266    -7.0422    10.0209 N.3     
  40 H40           -0.8875    -0.3767    -0.5057 H       
  41 H41            0.8922    -0.3525    -0.5218 H       
  42 H42            0.9118    -0.1491     1.9494 H       
  43 H43           -0.8680    -0.1733     1.9655 H       
  44 H44            0.9818    -4.6784     2.8810 H       
  45 H45           -0.7979    -4.7026     2.8970 H       
  46 H46            1.9207    -5.5040     8.6527 H       
  47 H47            1.1363    -5.2045    11.2136 H       
  48 H48           -3.3475    -8.2597    12.0210 H       
  49 H49           -0.1361    -4.6734    13.0591 H       
  50 H50           -2.0837    -5.0428    14.5197 H       
  51 H51           -3.6883    -6.8372    14.0018 H       
  52 H52           -1.4000    -7.8901    10.5602 H       
  53 H53           -1.8369     5.4256     0.0495 H       
  54 H54           -1.0583     7.8451     0.9454 H       
  55 H55            0.2095     9.5156     1.8989 H       
  56 H56            2.1546    11.0254     1.8879 H       
  57 H57            3.7629    10.9478     0.0249 H       
  58 H58            3.4264     9.3599    -1.8267 H       
  59 H59            1.4838     7.8468    -1.8134 H       
  60 H60           -0.8229    -2.3488     3.6768 H       
  61 H61            0.9569    -2.3246     3.6607 H       
  62 H62           -1.5915     8.9866    -1.2283 H       
  63 H63           -0.7583     7.6680    -2.0857 H       
  64 H64           -3.0512     7.2953    -0.2714 H       
  65 H65           -3.1267     7.2732    -1.9326 H       
  66 H66            1.6722    -7.5850    11.8120 H       
  67 H67            0.8428    -8.1091    10.3268 H       
  68 H68            3.1327    -6.2543    10.3967 H       
  69 H69            3.2116    -7.8635     9.9840 H       
@<TRIPOS>BOND
   1    1    2 1
   2    1   11 2
   3    1   18 1
   4    2    3 1
   5    2   40 1
   6    2   41 1
   7    3   35 1
   8    3   42 1
   9    3   43 1
  10    4    5 1
  11    4   34 1
  12    4   44 1
  13    4   45 1
  14    5    6 2
  15    5    9 1
  16    6    7 1
  17    7    8 2
  18    8    9 1
  19    8   10 1
  20   10   12 am
  21   10   46 1
  22   11   16 1
  23   12   13 2
  24   12   14 1
  25   14   15 1
  26   14   38 1
  27   14   47 1
  28   15   20 ar
  29   15   23 ar
  30   16   17 2
  31   17   18 1
  32   17   24 1
  33   19   23 ar
  34   19   22 ar
  35   19   48 1
  36   20   21 ar
  37   20   49 1
  38   21   22 ar
  39   21   50 1
  40   22   51 1
  41   23   52 1
  42   24   25 am
  43   24   53 1
  44   25   26 2
  45   25   27 1
  46   27   28 1
  47   27   36 1
  48   27   54 1
  49   28   29 ar
  50   28   33 ar
  51   29   30 ar
  52   29   55 1
  53   30   31 ar
  54   30   56 1
  55   31   32 ar
  56   31   57 1
  57   32   33 ar
  58   32   58 1
  59   33   59 1
  60   34   35 1
  61   34   60 1
  62   34   61 1
  63   36   37 1
  64   36   62 1
  65   36   63 1
  66   37   64 1
  67   37   65 1
  68   38   39 1
  69   38   66 1
  70   38   67 1
  71   39   68 1
  72   39   69 1

#	End of record

