#	Name: ASD01478067
#	Creating user name:	WinNT
#	Creation time:	15. 06. 2019 19:21

#	Modifying user name:	WinNT
#	Modification time:	15. 06. 2019 19:21

#	Program:	/corina/corina34_cracker 3.40 0067  02.08.2006

@<TRIPOS>MOLECULE
ASD01478067
  45   46    0    0    0
SMALL
NO_CHARGES


@<TRIPOS>ATOM
   1 C1            -0.0187     1.5258     0.0104 C.3     
   2 C2             0.0021    -0.0041     0.0020 C.3     
   3 O3            -1.0403    -0.4992     0.8448 O.3     
   4 C4            -0.8837    -1.8695     1.2189 C.3     
   5 C5            -0.4025    -1.9505     2.6690 C.3     
   6 O6             0.9320    -2.4605     2.7002 O.3     
   7 C7             1.7672    -1.8436     3.6821 C.3     
   8 C8             3.1326    -1.5310     3.0666 C.3     
   9 O9             3.4270    -0.1435     3.2406 O.3     
  10 C10            4.0494     0.4651     2.1074 C.3     
  11 C11            3.1582     1.5914     1.5798 C.3     
  12 O12            2.2896     1.0773     0.5682 O.3     
  13 C13            1.4167     2.0554    -0.0004 C.3     
  14 O14           -0.7098     1.9991    -1.1473 O.3     
  15 C15           -1.3760     3.2488    -0.9560 C.3     
  16 C16           -2.0675     3.6501    -2.2335 C.ar    
  17 C17           -3.3711     3.2545    -2.4674 C.ar    
  18 C18           -4.0054     3.6225    -3.6392 C.ar    
  19 C19           -3.3362     4.3866    -4.5768 C.ar    
  20 C20           -2.0328     4.7831    -4.3425 C.ar    
  21 C21           -1.4000     4.4186    -3.1687 C.ar    
  22 H22           -0.5289     1.8773     0.9072 H       
  23 H23           -0.1515    -0.3639    -1.0153 H       
  24 H24            0.9655    -0.3564     0.3705 H       
  25 H25           -1.8402    -2.3835     1.1242 H       
  26 H26           -0.1506    -2.3429     0.5658 H       
  27 H27           -0.4218    -0.9558     3.1143 H       
  28 H28           -1.0582    -2.6138     3.2329 H       
  29 H29            1.3028    -0.9190     4.0250 H       
  30 H30            1.8958    -2.5206     4.5267 H       
  31 H31            3.8988    -2.1296     3.5592 H       
  32 H32            3.1144    -1.7680     2.0029 H       
  33 H33            5.0166     0.8739     2.3999 H       
  34 H34            4.1918    -0.2817     1.3263 H       
  35 H35            2.5631     1.9973     2.3978 H       
  36 H36            3.7811     2.3799     1.1574 H       
  37 H37            1.7205     2.2605    -1.0269 H       
  38 H38            1.4696     2.9735     0.5846 H       
  39 H39           -2.1133     3.1493    -0.1595 H       
  40 H40           -0.6465     4.0113    -0.6827 H       
  41 H41           -3.8940     2.6575    -1.7349 H       
  42 H42           -5.0237     3.3128    -3.8223 H       
  43 H43           -3.8315     4.6736    -5.4927 H       
  44 H44           -1.5098     5.3798    -5.0752 H       
  45 H45           -0.3829     4.7315    -2.9840 H       
@<TRIPOS>BOND
   1    1    2 1
   2    1   13 1
   3    1   14 1
   4    1   22 1
   5    2    3 1
   6    2   23 1
   7    2   24 1
   8    3    4 1
   9    4    5 1
  10    4   25 1
  11    4   26 1
  12    5    6 1
  13    5   27 1
  14    5   28 1
  15    6    7 1
  16    7    8 1
  17    7   29 1
  18    7   30 1
  19    8    9 1
  20    8   31 1
  21    8   32 1
  22    9   10 1
  23   10   11 1
  24   10   33 1
  25   10   34 1
  26   11   12 1
  27   11   35 1
  28   11   36 1
  29   12   13 1
  30   13   37 1
  31   13   38 1
  32   14   15 1
  33   15   16 1
  34   15   39 1
  35   15   40 1
  36   16   17 ar
  37   16   21 ar
  38   17   18 ar
  39   17   41 1
  40   18   19 ar
  41   18   42 1
  42   19   20 ar
  43   19   43 1
  44   20   21 ar
  45   20   44 1
  46   21   45 1

#	End of record

