#	Name: ASD01410424
#	Creating user name:	WinNT
#	Creation time:	15. 06. 2019 19:17

#	Modifying user name:	WinNT
#	Modification time:	15. 06. 2019 19:17

#	Program:	/corina/corina34_cracker 3.40 0067  02.08.2006

@<TRIPOS>MOLECULE
ASD01410424
 123  130    0    0    0
SMALL
NO_CHARGES


@<TRIPOS>ATOM
   1 O1             2.3179     2.0497     5.3604 O.3     
   2 C2             2.3781     0.6350     5.5614 C.3     
   3 C3             2.5912    -0.0580     4.2129 C.3     
   4 N4             3.8124     0.4675     3.5854 N.3     
   5 C5             3.7158     1.9221     3.3950 C.3     
   6 C6             3.4914     2.5951     4.7516 C.3     
   7 C7             4.0849    -0.2131     2.3124 C.3     
   8 C8             5.2062     0.5190     1.5724 C.3     
   9 O9             6.4181     0.4168     2.3228 O.3     
  10 C10            7.5193     1.0178     1.8009 C.ar    
  11 C11            7.4249     1.6945     0.5823 C.ar    
  12 C12            8.5134     2.3050     0.0378 C.ar    
  13 C13            9.7466     2.2583     0.7029 C.ar    
  14 C14            9.8545     1.5756     1.9393 C.ar    
  15 C15            8.7153     0.9580     2.4820 C.ar    
  16 Cl16           8.8170     0.1140     3.9957 Cl      
  17 C17           10.8942     2.8834     0.1601 C.ar    
  18 C18           12.0691     2.8006     0.8593 C.ar    
  19 C19           12.1072     2.1095     2.0775 C.ar    
  20 N20           11.0297     1.5289     2.5770 N.ar    
  21 C21           13.3839     2.0274     2.8227 C.2     
  22 C22           13.4936     1.3760     3.9950 C.2     
  23 N23           14.5081     2.5890     2.3772 N.2     
  24 C24           15.5645     2.4510     3.1157 C.2     
  25 S25           15.1604     1.5122     4.5495 S.3     
  26 N26           16.8184     2.9603     2.8207 N.pl3   
  27 C27           17.9358     2.7345     3.7409 C.3     
  28 C28           18.5775     1.3784     3.4408 C.3     
  29 C29           18.9762     3.8419     3.5613 C.3     
  30 O30           10.8326     3.5464    -1.0213 O.3     
  31 C31           12.0409     4.1466    -1.4922 C.3     
  32 C32           12.8250     3.1727    -2.4066 C.3     
  33 N33           13.6428     4.0427    -3.2714 N.am    
  34 C34           13.0032     5.3641    -3.3505 C.3     
  35 C35           11.7382     5.3145    -2.4679 C.3     
  36 C36           13.9458     6.4214    -2.8362 C.2     
  37 O37           15.0487     6.1095    -2.4394 O.2     
  38 N38           13.5633     7.7136    -2.8171 N.am    
  39 C39           14.4317     8.7257    -2.2105 C.3     
  40 C40           15.6084     9.2380    -3.0435 C.3     
  41 C41           14.3927    10.1362    -2.8018 C.3     
  42 C42           14.6349     8.6003    -0.7225 C.2     
  43 O43           15.3608     9.3743    -0.1446 O.2     
  44 O44           14.0095     7.6289    -0.0392 O.3     
  45 C45           16.9011     9.5844    -2.3020 C.3     
  46 C46           17.9863     9.9549    -3.3148 C.3     
  47 C47           14.7875     3.6860    -3.8868 C.2     
  48 C48           15.3840     2.3245    -3.6384 C.3     
  49 O49           15.3377     4.4607    -4.6405 O.2     
  50 N50           16.0412     1.8493    -4.8584 N.am    
  51 C51           16.4114     2.4163    -2.5083 C.3     
  52 C52           15.7575     3.0409    -1.2741 C.3     
  53 C53           16.9165     1.0139    -2.1632 C.3     
  54 C54           17.5874     3.2857    -2.9576 C.3     
  55 C55           16.1982     0.5272    -5.0680 C.2     
  56 O56           16.8021     0.0904    -6.1893 O.3     
  57 O57           15.7946    -0.2706    -4.2451 O.2     
  58 C58           16.9368    -1.3465    -6.3486 C.3     
  59 C59           18.2008    -1.6912    -7.1747 C.3     
  60 C60           17.8977    -3.0829    -7.7671 C.3     
  61 C61           16.3657    -3.2229    -7.7990 C.3     
  62 C62           15.7913    -1.9114    -7.2248 C.3     
  63 C63           17.1593    -3.1538    -9.1053 C.3     
  64 H64            3.2070     0.3970     6.2279 H       
  65 H65            1.4436     0.2901     6.0041 H       
  66 H66            2.6948    -1.1319     4.3679 H       
  67 H67            1.7365     0.1361     3.5649 H       
  68 H68            4.6403     2.2935     2.9529 H       
  69 H69            2.8791     2.1478     2.7338 H       
  70 H70            3.3621     3.6680     4.6087 H       
  71 H71            4.3527     2.4141     5.3946 H       
  72 H72            4.3896    -1.2412     2.5081 H       
  73 H73            3.1837    -0.2116     1.6994 H       
  74 H74            5.3480     0.0684     0.5901 H       
  75 H75            4.9389     1.5692     1.4553 H       
  76 H76            6.4772     1.7336     0.0657 H       
  77 H77            8.4270     2.8242    -0.9053 H       
  78 H78           12.9635     3.2664     0.4726 H       
  79 H79           12.6965     0.8588     4.5084 H       
  80 H80           16.9567     3.4665     2.0049 H       
  81 H81           17.5689     2.7437     4.7672 H       
  82 H82           18.9444     1.3691     2.4145 H       
  83 H83           19.4088     1.2103     4.1255 H       
  84 H84           17.8363     0.5894     3.5688 H       
  85 H85           18.5190     4.8080     3.7750 H       
  86 H86           19.8075     3.6739     4.2459 H       
  87 H87           19.3431     3.8327     2.5349 H       
  88 H88           12.6581     4.4828    -0.6591 H       
  89 H89           13.4643     2.5229    -1.8090 H       
  90 H90           12.1362     2.5795    -3.0081 H       
  91 H91           12.7269     5.5810    -4.3824 H       
  92 H92           10.8563     5.0953    -3.0698 H       
  93 H93           11.6116     6.2497    -1.9225 H       
  94 H94           12.7131     7.9735    -3.2050 H       
  95 H95           15.7364     8.8220    -4.0428 H       
  96 H96           13.7212    10.3112    -3.6424 H       
  97 H97           14.5142    10.9736    -2.1147 H       
  98 H98           14.1708     7.5884     0.9134 H       
  99 H99           16.7227    10.4282    -1.6355 H       
 100 H100          17.2272     8.7233    -1.7186 H       
 101 H101          18.1647     9.1111    -3.9812 H       
 102 H102          17.6602    10.8160    -3.8981 H       
 103 H103          18.9073    10.2017    -2.7865 H       
 104 H104          14.5945     1.6280    -3.3560 H       
 105 H105          16.3633     2.4861    -5.5153 H       
 106 H106          14.9683     2.3836    -0.9091 H       
 107 H107          16.5075     3.1758    -0.4947 H       
 108 H108          15.3310     4.0083    -1.5393 H       
 109 H109          17.3823     0.5689    -3.0424 H       
 110 H110          17.6484     1.0793    -1.3581 H       
 111 H111          16.0787     0.3945    -1.8431 H       
 112 H112          17.2275     4.2848    -3.2035 H       
 113 H113          18.3193     3.3511    -2.1525 H       
 114 H114          18.0532     2.8407    -3.8369 H       
 115 H115          16.9635    -1.8405    -5.3773 H       
 116 H116          18.3469    -0.9612    -7.9709 H       
 117 H117          19.0782    -1.7341    -6.5294 H       
 118 H118          18.5361    -3.9102    -7.4571 H       
 119 H119          15.8755    -4.1533    -7.5124 H       
 120 H120          14.9102    -2.1150    -6.6162 H       
 121 H121          15.5483    -1.2170    -8.0291 H       
 122 H122          17.0876    -2.2361    -9.6891 H       
 123 H123          17.2553    -4.0723    -9.6843 H       
@<TRIPOS>BOND
   1    1    2 1
   2    1    6 1
   3    2    3 1
   4    2   64 1
   5    2   65 1
   6    3    4 1
   7    3   66 1
   8    3   67 1
   9    4    5 1
  10    4    7 1
  11    5    6 1
  12    5   68 1
  13    5   69 1
  14    6   70 1
  15    6   71 1
  16    7    8 1
  17    7   72 1
  18    7   73 1
  19    8    9 1
  20    8   74 1
  21    8   75 1
  22    9   10 1
  23   10   11 ar
  24   10   15 ar
  25   11   12 ar
  26   11   76 1
  27   12   13 ar
  28   12   77 1
  29   13   14 ar
  30   13   17 ar
  31   14   15 ar
  32   14   20 ar
  33   15   16 1
  34   17   18 ar
  35   17   30 1
  36   18   19 ar
  37   18   78 1
  38   19   20 ar
  39   19   21 1
  40   21   23 1
  41   21   22 2
  42   22   25 1
  43   22   79 1
  44   23   24 2
  45   24   25 1
  46   24   26 1
  47   26   27 1
  48   26   80 1
  49   27   28 1
  50   27   29 1
  51   27   81 1
  52   28   82 1
  53   28   83 1
  54   28   84 1
  55   29   85 1
  56   29   86 1
  57   29   87 1
  58   30   31 1
  59   31   32 1
  60   31   35 1
  61   31   88 1
  62   32   33 1
  63   32   89 1
  64   32   90 1
  65   33   34 1
  66   33   47 am
  67   34   35 1
  68   34   36 1
  69   34   91 1
  70   35   92 1
  71   35   93 1
  72   36   37 2
  73   36   38 am
  74   38   39 1
  75   38   94 1
  76   39   42 1
  77   39   40 1
  78   39   41 1
  79   40   41 1
  80   40   45 1
  81   40   95 1
  82   41   96 1
  83   41   97 1
  84   42   43 2
  85   42   44 1
  86   44   98 1
  87   45   46 1
  88   45   99 1
  89   45  100 1
  90   46  101 1
  91   46  102 1
  92   46  103 1
  93   47   49 2
  94   47   48 1
  95   48   50 1
  96   48   51 1
  97   48  104 1
  98   50   55 am
  99   50  105 1
 100   51   52 1
 101   51   53 1
 102   51   54 1
 103   52  106 1
 104   52  107 1
 105   52  108 1
 106   53  109 1
 107   53  110 1
 108   53  111 1
 109   54  112 1
 110   54  113 1
 111   54  114 1
 112   55   56 1
 113   55   57 2
 114   56   58 1
 115   58   59 1
 116   58   62 1
 117   58  115 1
 118   59   60 1
 119   59  116 1
 120   59  117 1
 121   60   61 1
 122   60   63 1
 123   60  118 1
 124   61   62 1
 125   61   63 1
 126   61  119 1
 127   62  120 1
 128   62  121 1
 129   63  122 1
 130   63  123 1

#	End of record

