#	Name: ASD08510004
#	Creating user name:	WinNT
#	Creation time:	15. 06. 2019 21:19

#	Modifying user name:	WinNT
#	Modification time:	15. 06. 2019 21:19

#	Program:	/corina/corina34_cracker 3.40 0067  02.08.2006

@<TRIPOS>MOLECULE
ASD08510004
  62   68    0    0    0
SMALL
NO_CHARGES


@<TRIPOS>ATOM
   1 C1            -0.0162     1.3453     0.0094 C.2     
   2 C2             0.0021    -0.0041     0.0020 C.2     
   3 C3             1.2244    -0.6962    -0.0129 C.2     
   4 C4             2.3929     0.0000    -0.0203 C.2     
   5 N5             1.1488     2.0562     0.0021 N.pl3   
   6 C6             1.4141     3.3986     0.0068 C.2     
   7 C7             2.3571     1.4089    -0.0128 C.2     
   8 N8             3.3140     2.3262    -0.0172 N.2     
   9 C9             2.7577     3.5399    -0.0053 C.2     
  10 C10            3.5041     4.8490    -0.0054 C.3     
  11 O11            2.5696     5.9301     0.0093 O.3     
  12 C12            3.0822     7.1887     0.0111 C.ar    
  13 C13            4.4562     7.3794    -0.0067 C.ar    
  14 C14            2.2322     8.2851     0.0250 C.ar    
  15 C15            2.7557     9.5635     0.0269 C.ar    
  16 C16            4.1256     9.7508     0.0144 C.ar    
  17 C17            4.9748     8.6598    -0.0048 C.ar    
  18 C18            4.6940    11.1465     0.0155 C.3     
  19 N19            5.1184    11.5150     1.3708 N.pl3   
  20 N20            7.3927    10.9200     0.9558 N.2     
  21 C21            7.1088    10.8062    -0.3298 C.2     
  22 N22            5.8981    11.2017    -0.8331 N.pl3   
  23 C23            5.3067    12.1722     3.4840 C.ar    
  24 N24            6.5236    11.7550     3.0375 N.2     
  25 C25            6.4274    11.3747     1.7902 C.2     
  26 C26            4.3935    12.0222     2.4234 C.ar    
  27 C27            3.0611    12.3718     2.6061 C.ar    
  28 C28            2.6427    12.8661     3.8212 C.ar    
  29 C29            3.5470    13.0321     4.8773 C.ar    
  30 C30            4.8697    12.6803     4.7111 C.ar    
  31 O31            1.3440    13.1940     4.0541 O.3     
  32 O32            3.1123    13.5596     6.0498 O.3     
  33 C33            0.9199    14.5244     3.9319 C.3     
  34 C34            3.3891    14.9419     6.2675 C.3     
  35 C35            1.2513    15.4508     5.0853 C.3     
  36 C36            2.7567    15.7570     5.1155 C.3     
  37 N37            8.0464    10.2816    -1.1779 N.pl3   
  38 H38           -0.9616     1.8675     0.0167 H       
  39 H39           -0.9272    -0.5543     0.0079 H       
  40 H40            1.2363    -1.7761    -0.0181 H       
  41 H41            3.3385    -0.5215    -0.0314 H       
  42 H42            0.6858     4.1960     0.0175 H       
  43 H43            4.1389     4.9055     0.8789 H       
  44 H44            4.1219     4.9150    -0.9010 H       
  45 H45            5.1199     6.5275    -0.0217 H       
  46 H46            1.1622     8.1393     0.0341 H       
  47 H47            2.0945    10.4173     0.0377 H       
  48 H48            6.0444     8.8088    -0.0187 H       
  49 H49            3.9475    11.8533    -0.3469 H       
  50 H50            5.8328    11.5178    -1.7478 H       
  51 H51            2.3554    12.2563     1.7968 H       
  52 H52            5.5670    12.7967     5.5275 H       
  53 H53            1.3656    14.9388     3.0276 H       
  54 H54           -0.1621    14.5229     3.8006 H       
  55 H55            2.9581    15.2563     7.2180 H       
  56 H56            4.4672    15.1018     6.2803 H       
  57 H57            0.6972    16.3822     4.9691 H       
  58 H58            0.9622    14.9756     6.0227 H       
  59 H59            2.9124    16.8217     5.2891 H       
  60 H60            3.2103    15.4677     4.1675 H       
  61 H61            8.9077     9.9982    -0.8332 H       
  62 H62            7.8495    10.1931    -2.1236 H       
@<TRIPOS>BOND
   1    1    2 2
   2    1    5 1
   3    1   38 1
   4    2    3 1
   5    2   39 1
   6    3    4 2
   7    3   40 1
   8    4    7 1
   9    4   41 1
  10    5    7 1
  11    5    6 1
  12    6    9 2
  13    6   42 1
  14    7    8 2
  15    8    9 1
  16    9   10 1
  17   10   11 1
  18   10   43 1
  19   10   44 1
  20   11   12 1
  21   12   14 ar
  22   12   13 ar
  23   13   17 ar
  24   13   45 1
  25   14   15 ar
  26   14   46 1
  27   15   16 ar
  28   15   47 1
  29   16   17 ar
  30   16   18 1
  31   17   48 1
  32   18   19 1
  33   18   22 1
  34   18   49 1
  35   19   26 1
  36   19   25 1
  37   20   21 2
  38   20   25 1
  39   21   22 1
  40   21   37 1
  41   22   50 1
  42   23   24 1
  43   23   26 ar
  44   23   30 ar
  45   24   25 2
  46   26   27 ar
  47   27   28 ar
  48   27   51 1
  49   28   29 ar
  50   28   31 1
  51   29   30 ar
  52   29   32 1
  53   30   52 1
  54   31   33 1
  55   32   34 1
  56   33   35 1
  57   33   53 1
  58   33   54 1
  59   34   36 1
  60   34   55 1
  61   34   56 1
  62   35   36 1
  63   35   57 1
  64   35   58 1
  65   36   59 1
  66   36   60 1
  67   37   61 1
  68   37   62 1

#	End of record

