#	Name: ASD01410182
#	Creating user name:	WinNT
#	Creation time:	15. 06. 2019 19:16

#	Modifying user name:	WinNT
#	Modification time:	15. 06. 2019 19:16

#	Program:	/corina/corina34_cracker 3.40 0067  02.08.2006

@<TRIPOS>MOLECULE
ASD01410182
  44   47    0    0    0
SMALL
NO_CHARGES


@<TRIPOS>ATOM
   1 C1            -0.0171     1.4098     0.0098 C.ar    
   2 C2             0.0021    -0.0041     0.0020 C.ar    
   3 C3            -1.2097    -0.7080     0.0102 C.ar    
   4 C4            -2.3763     0.0079     0.0256 C.ar    
   5 C5            -2.3268     1.4058     0.0326 C.ar    
   6 N6            -1.1690     2.0547     0.0291 N.ar    
   7 N7             1.2948     1.8313    -0.0005 N.pl3   
   8 C8             2.1173     0.7286    -0.0142 C.2     
   9 C9             1.3597    -0.3985    -0.0131 C.2     
  10 C10            1.3812    -2.5469     1.2249 C.3     
  11 C11            1.9030    -3.9851     1.2127 C.3     
  12 C12            1.3874    -4.7041    -0.0356 C.3     
  13 C13            1.8799    -3.9722    -1.2856 C.3     
  14 C14            1.3581    -2.5340    -1.2734 C.3     
  15 C15            1.8737    -1.8150    -0.0251 C.3     
  16 C16           -3.5877     2.1749     0.0487 C.2     
  17 O17           -4.6540     1.5929     0.0557 O.2     
  18 O18           -3.5552     3.5219     0.0556 O.3     
  19 C19            5.7170     1.3056    -0.5317 C.2     
  20 O20            5.7013     0.3508     0.4109 O.3     
  21 C21            4.4431     0.0134     0.7258 C.2     
  22 C22            3.5949     0.7649    -0.0286 C.2     
  23 C23            4.4531     1.6191    -0.8598 C.2     
  24 C24            1.7410     3.2267     0.0023 C.3     
  25 H25           -1.2228    -1.7880     0.0042 H       
  26 H26           -3.3279    -0.5028     0.0319 H       
  27 H27            0.2913    -2.5560     1.2350 H       
  28 H28            1.7485    -2.0347     2.1142 H       
  29 H29            2.9929    -3.9761     1.2027 H       
  30 H30            1.5522    -4.5066     2.1033 H       
  31 H31            1.7592    -5.7287    -0.0443 H       
  32 H32            0.2975    -4.7131    -0.0255 H       
  33 H33            2.9698    -3.9632    -1.2957 H       
  34 H34            1.5126    -4.4844    -2.1749 H       
  35 H35            1.7089    -2.0126    -2.1640 H       
  36 H36            0.2682    -2.5430    -1.2634 H       
  37 H37            2.9636    -1.8060    -0.0352 H       
  38 H38           -4.4060     3.9815     0.0661 H       
  39 H39            6.6038     1.7533    -0.9553 H       
  40 H40            4.1516    -0.7290     1.4540 H       
  41 H41            4.1329     2.3509    -1.5866 H       
  42 H42            1.8618     3.5675     1.0306 H       
  43 H43            2.6942     3.3044    -0.5205 H       
  44 H44            0.9990     3.8465    -0.5010 H       
@<TRIPOS>BOND
   1    1    2 ar
   2    1    7 1
   3    1    6 ar
   4    2    3 ar
   5    2    9 1
   6    3    4 ar
   7    3   25 1
   8    4    5 ar
   9    4   26 1
  10    5    6 ar
  11    5   16 1
  12    7    8 1
  13    7   24 1
  14    8    9 2
  15    8   22 1
  16    9   15 1
  17   10   11 1
  18   10   15 1
  19   10   27 1
  20   10   28 1
  21   11   12 1
  22   11   29 1
  23   11   30 1
  24   12   13 1
  25   12   31 1
  26   12   32 1
  27   13   14 1
  28   13   33 1
  29   13   34 1
  30   14   15 1
  31   14   35 1
  32   14   36 1
  33   15   37 1
  34   16   17 2
  35   16   18 1
  36   18   38 1
  37   19   20 1
  38   19   23 2
  39   19   39 1
  40   20   21 1
  41   21   22 2
  42   21   40 1
  43   22   23 1
  44   23   41 1
  45   24   42 1
  46   24   43 1
  47   24   44 1

#	End of record

