#	Name: ASD01940580
#	Creating user name:	WinNT
#	Creation time:	15. 06. 2019 20:12

#	Modifying user name:	WinNT
#	Modification time:	15. 06. 2019 20:12

#	Program:	/corina/corina34_cracker 3.40 0067  02.08.2006

@<TRIPOS>MOLECULE
ASD01940580
  50   52    0    0    0
SMALL
NO_CHARGES


@<TRIPOS>ATOM
   1 C1             1.0492     2.7791     1.9803 C.ar    
   2 C2             0.8548     1.4588     2.3630 C.ar    
   3 C3             0.4368     0.5206     1.4274 C.ar    
   4 C4             0.2150     0.9012     0.1178 C.ar    
   5 C5             0.4080     2.2147    -0.2649 C.ar    
   6 C6             0.8256     3.1567     0.6656 C.ar    
   7 N7             1.0794     1.0741     3.6868 N.am    
   8 S8            -0.0127     1.4797     4.8636 S.o2    
   9 C9            -1.5197     0.5757     4.4135 C.3     
  10 O10            0.5472     0.9519     6.0583 O.2     
  11 O11           -0.2023     2.8783     4.6989 O.2     
  12 O12            1.0145     4.4482     0.2877 O.3     
  13 C13            2.2880     4.9078     0.2054 C.ar    
  14 C14            3.3522     4.0372     0.3671 C.ar    
  15 C15            4.6546     4.5033     0.2841 C.ar    
  16 C16            4.9068     5.8425     0.0390 C.ar    
  17 C17            3.8552     6.7312    -0.1265 C.ar    
  18 C18            2.5309     6.2664    -0.0497 C.ar    
  19 N19            4.1096     8.0748    -0.3719 N.pl3   
  20 C20            5.2284     8.6906     0.1993 C.ar    
  21 C21            5.9191     8.0630     1.2273 C.ar    
  22 C22            7.0238     8.6730     1.7892 C.ar    
  23 C23            7.4429     9.9086     1.3296 C.ar    
  24 C24            6.7581    10.5380     0.3056 C.ar    
  25 C25            5.6549     9.9303    -0.2653 C.ar    
  26 F26            4.9890    10.5424    -1.2689 F       
  27 I27            9.1182    10.8292     2.1869 I       
  28 C28            1.4078     7.1980    -0.2294 C.2     
  29 N29            0.8973     7.4089    -1.4588 N.am    
  30 O30            0.9393     7.7785     0.7315 O.2     
  31 C31           -2.6507     0.9620     5.3688 C.3     
  32 F32            5.6856     3.6449     0.4440 F       
  33 H33            1.3697     3.5113     2.7065 H       
  34 H34            0.2856    -0.5068     1.7238 H       
  35 H35           -0.1095     0.1704    -0.6082 H       
  36 H36            0.2338     2.5090    -1.2893 H       
  37 H37            1.8752     0.5694     3.9167 H       
  38 H38           -1.8041     0.8293     3.3923 H       
  39 H39           -1.3350    -0.4962     4.4837 H       
  40 H40            3.1666     2.9908     0.5590 H       
  41 H41            5.9254     6.1960    -0.0232 H       
  42 H42            3.5115     8.5859    -0.9393 H       
  43 H43            5.5927     7.0986     1.5877 H       
  44 H44            7.5609     8.1847     2.5888 H       
  45 H45            7.0876    11.5028    -0.0508 H       
  46 H46            1.2708     6.9460    -2.2250 H       
  47 H47            0.1563     8.0236    -1.5774 H       
  48 H48           -2.3662     0.7085     6.3900 H       
  49 H49           -2.8353     2.0340     5.2986 H       
  50 H50           -3.5562     0.4189     5.0983 H       
@<TRIPOS>BOND
   1    1    2 ar
   2    1    6 ar
   3    1   33 1
   4    2    3 ar
   5    2    7 1
   6    3    4 ar
   7    3   34 1
   8    4    5 ar
   9    4   35 1
  10    5    6 ar
  11    5   36 1
  12    6   12 1
  13    7    8 am
  14    7   37 1
  15    8    9 1
  16    8   10 2
  17    8   11 2
  18    9   31 1
  19    9   38 1
  20    9   39 1
  21   12   13 1
  22   13   14 ar
  23   13   18 ar
  24   14   15 ar
  25   14   40 1
  26   15   16 ar
  27   15   32 1
  28   16   17 ar
  29   16   41 1
  30   17   18 ar
  31   17   19 1
  32   18   28 1
  33   19   20 1
  34   19   42 1
  35   20   21 ar
  36   20   25 ar
  37   21   22 ar
  38   21   43 1
  39   22   23 ar
  40   22   44 1
  41   23   24 ar
  42   23   27 1
  43   24   25 ar
  44   24   45 1
  45   25   26 1
  46   28   29 am
  47   28   30 2
  48   29   46 1
  49   29   47 1
  50   31   48 1
  51   31   49 1
  52   31   50 1

#	End of record

