#	Name: ASD01870276
#	Creating user name:	WinNT
#	Creation time:	15. 06. 2019 19:38

#	Modifying user name:	WinNT
#	Modification time:	15. 06. 2019 19:38

#	Program:	/corina/corina34_cracker 3.40 0067  02.08.2006

@<TRIPOS>MOLECULE
ASD01870276
  67   72    0    0    0
SMALL
NO_CHARGES


@<TRIPOS>ATOM
   1 C1            -0.4101     0.7801    -0.3664 C.ar    
   2 C2             0.1605     0.2453     0.7699 C.ar    
   3 C3             0.0838     0.4514    -1.6272 C.ar    
   4 C4             1.1401    -0.4049    -1.7573 C.ar    
   5 C5             1.7322    -0.9569    -0.6263 C.ar    
   6 C6             1.2453    -0.6351     0.6520 C.ar    
   7 Br7           -0.5160     0.6975     2.4768 Br      
   8 N8             2.7802    -1.8262    -0.4267 N.pl3   
   9 N9             2.8930    -2.0014     0.9605 N.2     
  10 N10            1.9929    -1.3006     1.5549 N.2     
  11 C11            3.6136    -2.4467    -1.4594 C.3     
  12 C12            4.8162    -1.5475    -1.7528 C.3     
  13 C13            5.8737    -2.0765    -2.7237 C.3     
  14 C14            4.9286    -0.9546    -3.1587 C.3     
  15 O15           -1.4659     1.6298    -0.2556 O.3     
  16 C16           -1.2056     2.9481    -0.0675 C.ar    
  17 N17            0.0450     3.3551     0.0722 N.ar    
  18 C18           -2.2550     3.8577    -0.0293 C.ar    
  19 C19           -1.9766     5.1995     0.1627 C.ar    
  20 C20           -0.6505     5.5862     0.3106 C.ar    
  21 C21            0.3428     4.6274     0.2566 C.ar    
  22 Cl22          -0.2454     7.2567     0.5534 Cl      
  23 C23           -3.6778     3.3894    -0.1953 C.3     
  24 N24           -4.1633     2.8380     1.0768 N.3     
  25 C25           -4.4906     3.9212     2.0351 C.3     
  26 C26           -5.9888     3.6950     2.4068 C.3     
  27 N27           -6.7327     4.0773     1.1702 N.am    
  28 C28           -6.3759     3.0704     0.1479 C.3     
  29 C29           -5.4308     2.0665     0.8781 C.3     
  30 C30           -6.0484     2.1277     2.3212 C.3     
  31 C31           -7.5626     5.1281     1.0168 C.2     
  32 O32           -7.7678     5.8813     1.9480 O.2     
  33 O33           -8.1643     5.3432    -0.1682 O.3     
  34 C34           -9.0450     6.4939    -0.2611 C.3     
  35 C35           -8.2518     7.7684     0.0346 C.3     
  36 C36           -9.6321     6.5743    -1.6717 C.3     
  37 C37          -10.1791     6.3515     0.7560 C.3     
  38 H38           -0.3724     0.8768    -2.5088 H       
  39 H39            1.5154    -0.6537    -2.7389 H       
  40 H40            3.9631    -3.4180    -1.1092 H       
  41 H41            3.0275    -2.5778    -2.3690 H       
  42 H42            5.1598    -0.9352    -0.9190 H       
  43 H43            6.9130    -1.8119    -2.5290 H       
  44 H44            5.7126    -3.0651    -3.1535 H       
  45 H45            4.1459    -1.2052    -3.8747 H       
  46 H46            5.3462     0.0481    -3.2502 H       
  47 H47           -2.7719     5.9294     0.1965 H       
  48 H48            1.3754     4.9222     0.3713 H       
  49 H49           -4.3052     4.2307    -0.4897 H       
  50 H50           -3.7191     2.6185    -0.9648 H       
  51 H51           -3.8641     3.8426     2.9236 H       
  52 H52           -4.3603     4.8955     1.5641 H       
  53 H53           -6.3298     4.1558     3.3338 H       
  54 H54           -7.2702     2.5583    -0.2073 H       
  55 H55           -5.8546     3.5441    -0.6840 H       
  56 H56           -5.3277     1.0820     0.4217 H       
  57 H57           -5.4126     1.6474     3.0650 H       
  58 H58           -7.0702     1.7494     2.3513 H       
  59 H59           -7.4439     7.8698    -0.6900 H       
  60 H60           -8.9129     8.6322    -0.0351 H       
  61 H61           -7.8335     7.7111     1.0395 H       
  62 H62          -10.1972     5.6663    -1.8823 H       
  63 H63          -10.2932     7.4381    -1.7413 H       
  64 H64           -8.8242     6.6757    -2.3962 H       
  65 H65           -9.7608     6.2943     1.7609 H       
  66 H66          -10.8402     7.2153     0.6863 H       
  67 H67          -10.7442     5.4436     0.5454 H       
@<TRIPOS>BOND
   1    1    2 ar
   2    1    3 ar
   3    1   15 1
   4    2    7 1
   5    2    6 ar
   6    3    4 ar
   7    3   38 1
   8    4    5 ar
   9    4   39 1
  10    5    6 ar
  11    5    8 1
  12    6   10 1
  13    8    9 1
  14    8   11 1
  15    9   10 2
  16   11   12 1
  17   11   40 1
  18   11   41 1
  19   12   13 1
  20   12   14 1
  21   12   42 1
  22   13   14 1
  23   13   43 1
  24   13   44 1
  25   14   45 1
  26   14   46 1
  27   15   16 1
  28   16   17 ar
  29   16   18 ar
  30   17   21 ar
  31   18   19 ar
  32   18   23 1
  33   19   20 ar
  34   19   47 1
  35   20   21 ar
  36   20   22 1
  37   21   48 1
  38   23   24 1
  39   23   49 1
  40   23   50 1
  41   24   25 1
  42   24   29 1
  43   25   26 1
  44   25   51 1
  45   25   52 1
  46   26   27 1
  47   26   30 1
  48   26   53 1
  49   27   28 1
  50   27   31 am
  51   28   29 1
  52   28   54 1
  53   28   55 1
  54   29   30 1
  55   29   56 1
  56   30   57 1
  57   30   58 1
  58   31   32 2
  59   31   33 1
  60   33   34 1
  61   34   35 1
  62   34   36 1
  63   34   37 1
  64   35   59 1
  65   35   60 1
  66   35   61 1
  67   36   62 1
  68   36   63 1
  69   36   64 1
  70   37   65 1
  71   37   66 1
  72   37   67 1

#	End of record

