#	Name: ASD01916936
#	Creating user name:	WinNT
#	Creation time:	15. 06. 2019 20:08

#	Modifying user name:	WinNT
#	Modification time:	15. 06. 2019 20:08

#	Program:	/corina/corina34_cracker 3.40 0067  02.08.2006

@<TRIPOS>MOLECULE
ASD01916936
  58   62    0    0    0
SMALL
NO_CHARGES


@<TRIPOS>ATOM
   1 C1            -0.0167     1.3082     0.0935 C.2     
   2 N2             0.0000     0.0192    -0.1694 N.2     
   3 N3            -1.3361    -0.4129    -0.1795 N.pl3   
   4 C4            -2.0928     0.6774     0.0859 C.2     
   5 N5            -1.2847     1.7027     0.2527 N.2     
   6 C6             1.1782     2.1818     0.2019 C.ar    
   7 C7             1.0296     3.5377     0.4859 C.ar    
   8 C8             2.4530     1.6477     0.0259 C.ar    
   9 C9             3.5608     2.4645     0.1283 C.ar    
  10 C10            3.4072     3.8110     0.4053 C.ar    
  11 C11           -1.8160    -1.7744    -0.4286 C.3     
  12 C12           -1.8526    -2.5395     0.8692 C.2     
  13 N13           -2.2645    -3.8227     0.8837 N.am    
  14 O14           -1.5114    -2.0005     1.9007 O.2     
  15 C15           -2.3079    -4.5875     2.1392 C.3     
  16 C16           -3.6954    -5.2241     2.2737 C.3     
  17 N17           -3.9939    -6.0004     1.0629 N.3     
  18 C18           -4.0552    -5.1355    -0.1230 C.3     
  19 C19           -2.6883    -4.4935    -0.3548 C.3     
  20 C20           -5.1660    -6.7212     1.2122 C.ar    
  21 N21           -5.5895    -7.4814     0.2131 N.ar    
  22 C22           -6.7055    -8.1829     0.3233 C.ar    
  23 C23           -7.4330    -8.1154     1.5011 C.ar    
  24 C24           -6.9614    -7.3104     2.5261 C.ar    
  25 N25           -5.8350    -6.6388     2.3529 N.ar    
  26 C26           -3.5695     0.7098     0.1779 C.ar    
  27 C27            2.1443     4.3454     0.5862 C.ar    
  28 C28           -4.2533     1.9176     0.0402 C.ar    
  29 C29           -5.6304     1.9411     0.1265 C.ar    
  30 C30           -6.3325     0.7703     0.3490 C.ar    
  31 C31           -5.6599    -0.4310     0.4863 C.ar    
  32 C32           -4.2837    -0.4685     0.3968 C.ar    
  33 C33           -6.3709     3.2453    -0.0215 C.3     
  34 H34            0.0440     3.9560     0.6270 H       
  35 H35            2.5740     0.5965    -0.1901 H       
  36 H36            4.5494     2.0515    -0.0076 H       
  37 H37            4.2768     4.4465     0.4849 H       
  38 H38           -2.8184    -1.7341    -0.8550 H       
  39 H39           -1.1443    -2.2745    -1.1263 H       
  40 H40           -1.5474    -5.3681     2.1189 H       
  41 H41           -2.1285    -3.9193     2.9814 H       
  42 H42           -3.7104    -5.8835     3.1415 H       
  43 H43           -4.4440    -4.4417     2.3979 H       
  44 H44           -4.3312    -5.7308    -0.9934 H       
  45 H45           -4.7989    -4.3544     0.0346 H       
  46 H46           -2.7583    -3.7647    -1.1623 H       
  47 H47           -1.9615    -5.2632    -0.6144 H       
  48 H48           -7.0458    -8.8005    -0.4947 H       
  49 H49           -8.3478    -8.6776     1.6175 H       
  50 H50           -7.5048    -7.2354     3.4564 H       
  51 H51            2.0301     5.3973     0.8022 H       
  52 H52           -3.7062     2.8325    -0.1331 H       
  53 H53           -7.4101     0.7939     0.4160 H       
  54 H54           -6.2136    -1.3418     0.6602 H       
  55 H55           -3.7598    -1.4068     0.5042 H       
  56 H56           -6.6155     3.4072    -1.0712 H       
  57 H57           -7.2894     3.2102     0.5644 H       
  58 H58           -5.7433     4.0620     0.3354 H       
@<TRIPOS>BOND
   1    1    2 2
   2    1    6 1
   3    1    5 1
   4    2    3 1
   5    3    4 1
   6    3   11 1
   7    4    5 2
   8    4   26 1
   9    6    7 ar
  10    6    8 ar
  11    7   27 ar
  12    7   34 1
  13    8    9 ar
  14    8   35 1
  15    9   10 ar
  16    9   36 1
  17   10   27 ar
  18   10   37 1
  19   11   12 1
  20   11   38 1
  21   11   39 1
  22   12   13 am
  23   12   14 2
  24   13   15 1
  25   13   19 1
  26   15   16 1
  27   15   40 1
  28   15   41 1
  29   16   17 1
  30   16   42 1
  31   16   43 1
  32   17   18 1
  33   17   20 1
  34   18   19 1
  35   18   44 1
  36   18   45 1
  37   19   46 1
  38   19   47 1
  39   20   21 ar
  40   20   25 ar
  41   21   22 ar
  42   22   23 ar
  43   22   48 1
  44   23   24 ar
  45   23   49 1
  46   24   25 ar
  47   24   50 1
  48   26   28 ar
  49   26   32 ar
  50   27   51 1
  51   28   29 ar
  52   28   52 1
  53   29   30 ar
  54   29   33 1
  55   30   31 ar
  56   30   53 1
  57   31   32 ar
  58   31   54 1
  59   32   55 1
  60   33   56 1
  61   33   57 1
  62   33   58 1

#	End of record

