#	Name: ASD02039207
#	Creating user name:	WinNT
#	Creation time:	15. 06. 2019 20:17

#	Modifying user name:	WinNT
#	Modification time:	15. 06. 2019 20:17

#	Program:	/corina/corina34_cracker 3.40 0067  02.08.2006

@<TRIPOS>MOLECULE
ASD02039207
  32   34    0    0    0
SMALL
NO_CHARGES


@<TRIPOS>ATOM
   1 N1             0.0021     1.2625     0.3692 N.2     
   2 C2             0.0063    -0.0135     0.0889 C.2     
   3 N3             1.2922    -0.3755    -0.1077 N.2     
   4 C4             1.9960     0.7158     0.0676 C.2     
   5 O5             1.1352     1.6953     0.3609 O.3     
   6 C6             3.4938     0.8426    -0.0406 C.3     
   7 N7            -1.1051    -0.8435     0.0088 N.pl3   
   8 C8            -2.3900    -0.3050     0.1298 C.ar    
   9 C9            -2.6365     1.0032    -0.2675 C.ar    
  10 C10           -3.9060     1.5330    -0.1471 C.ar    
  11 C11           -4.9330     0.7624     0.3692 C.ar    
  12 C12           -4.6907    -0.5420     0.7661 C.ar    
  13 C13           -3.4230    -1.0789     0.6419 C.ar    
  14 Cl14          -6.5274     1.4322     0.5200 Cl      
  15 N15            3.8571     1.1782    -1.4195 N.pl3   
  16 N16            5.4983     1.6499    -3.0150 N.ar    
  17 C17            5.1872     1.3465    -1.7633 C.ar    
  18 C18            6.7595     1.8175    -3.3766 C.ar    
  19 C19            7.7599     1.6722    -2.4282 C.ar    
  20 C20            7.3992     1.3550    -1.1281 C.ar    
  21 N21            6.1191     1.2009    -0.8328 N.ar    
  22 Cl22          -5.9814    -1.5057     1.4133 Cl      
  23 H23            3.8411     1.6298     0.6285 H       
  24 H24            3.9595    -0.1027     0.2381 H       
  25 H25           -0.9897    -1.7964    -0.1311 H       
  26 H26           -1.8355     1.6056    -0.6699 H       
  27 H27           -4.0976     2.5500    -0.4560 H       
  28 H28           -3.2340    -2.0962     0.9515 H       
  29 H29            3.1655     1.2824    -2.0917 H       
  30 H30            7.0069     2.0644    -4.3985 H       
  31 H31            8.7977     1.8032    -2.6966 H       
  32 H32            8.1543     1.2350    -0.3653 H       
@<TRIPOS>BOND
   1    1    2 2
   2    1    5 1
   3    2    3 1
   4    2    7 1
   5    3    4 2
   6    4    5 1
   7    4    6 1
   8    6   15 1
   9    6   23 1
  10    6   24 1
  11    7    8 1
  12    7   25 1
  13    8    9 ar
  14    8   13 ar
  15    9   10 ar
  16    9   26 1
  17   10   11 ar
  18   10   27 1
  19   11   12 ar
  20   11   14 1
  21   12   13 ar
  22   12   22 1
  23   13   28 1
  24   15   17 1
  25   15   29 1
  26   16   17 ar
  27   16   18 ar
  28   17   21 ar
  29   18   19 ar
  30   18   30 1
  31   19   20 ar
  32   19   31 1
  33   20   21 ar
  34   20   32 1

#	End of record

