#	Name: ASD05530002
#	Creating user name:	WinNT
#	Creation time:	15. 06. 2019 21:01

#	Modifying user name:	WinNT
#	Modification time:	15. 06. 2019 21:01

#	Program:	/corina/corina34_cracker 3.40 0067  02.08.2006

@<TRIPOS>MOLECULE
ASD05530002
  23   23    0    0    0
SMALL
NO_CHARGES


@<TRIPOS>ATOM
   1 O1            -0.0173     1.4248     0.0099 O.3     
   2 O2             2.7351    -0.3082    -2.5561 O.3     
   3 O3            -0.0503    -0.0686    -2.4148 O.3     
   4 O4             3.3393     2.1677    -1.2576 O.3     
   5 O5             2.0158     1.5876     1.1441 O.3     
   6 C6             2.1083     0.0868    -1.3342 C.3     
   7 C7             0.6933    -0.4966    -1.2721 C.3     
   8 C8             2.0216     1.6150    -1.2734 C.3     
   9 C9             0.0021    -0.0041     0.0020 C.3     
  10 C10            1.2791     2.0260     0.0007 C.3     
  11 C11           -1.4327    -0.5340     0.0416 C.3     
  12 H12            2.6915    -0.2805    -0.4898 H       
  13 H13            0.7484    -1.5852    -1.2601 H       
  14 H14            1.4822     1.9842    -2.1456 H       
  15 H15            0.5473    -0.3650     0.8741 H       
  16 H16            1.1769     3.1108     0.0282 H       
  17 H17           -1.9774    -0.1733    -0.8309 H       
  18 H18           -1.4177    -1.6239     0.0356 H       
  19 H19           -1.9250    -0.1824     0.9483 H       
  20 H20            3.6359     0.0268    -2.6623 H       
  21 H21           -0.9578    -0.4016    -2.4409 H       
  22 H22            3.3602     3.1337    -1.2195 H       
  23 H23            1.6025     1.8136     1.9886 H       
@<TRIPOS>BOND
   1    1    9 1
   2    1   10 1
   3    2   20 1
   4    2    6 1
   5    3   21 1
   6    3    7 1
   7    4   22 1
   8    4    8 1
   9    5   10 1
  10    5   23 1
  11    6    7 1
  12    6   12 1
  13    6    8 1
  14    7    9 1
  15    7   13 1
  16    8   10 1
  17    8   14 1
  18    9   11 1
  19    9   15 1
  20   10   16 1
  21   11   17 1
  22   11   18 1
  23   11   19 1

#	End of record

