#	Name: ASD03930210
#	Creating user name:	WinNT
#	Creation time:	15. 06. 2019 20:47

#	Modifying user name:	WinNT
#	Modification time:	15. 06. 2019 20:47

#	Program:	/corina/corina34_cracker 3.40 0067  02.08.2006

@<TRIPOS>MOLECULE
ASD03930210
  59   61    0    0    0
SMALL
NO_CHARGES


@<TRIPOS>ATOM
   1 S1            -0.0767     4.0282    -0.9976 S.o2    
   2 N2            -0.7570     2.5445    -1.3349 N.am    
   3 C3            -0.4955     1.9149    -2.6255 C.3     
   4 C4             0.9725     1.5763    -2.8360 C.3     
   5 O5             1.7779     2.7606    -2.8743 O.3     
   6 C6             2.3631     3.1137    -1.7018 C.ar    
   7 C7             1.6334     3.6807    -0.6660 C.ar    
   8 C8             3.7225     2.8897    -1.5130 C.ar    
   9 C9             4.3089     3.1895    -0.2996 C.ar    
  10 C10            3.5557     3.7145     0.7402 C.ar    
  11 C11            2.2005     3.9665     0.5478 C.ar    
  12 C12           -1.5403     1.9322    -0.4250 C.2     
  13 O13           -2.0332     0.8505    -0.6773 O.2     
  14 O14           -1.7767     2.5189     0.7635 O.3     
  15 O15            4.1378     3.9820     1.9394 O.3     
  16 C16            3.3389     4.3930     2.9588 C.ar    
  17 C17            3.1134     5.7471     3.1628 C.ar    
  18 C18            2.3005     6.1621     4.1994 C.ar    
  19 C19            1.7114     5.2296     5.0337 C.ar    
  20 C20            1.9347     3.8801     4.8329 C.ar    
  21 C21            2.7424     3.4594     3.7940 C.ar    
  22 C22            2.0557     7.6323     4.4219 C.3     
  23 N23            0.8796     8.0528     3.6562 N.am    
  24 S24            0.1519     9.5033     3.9864 S.o2    
  25 O25           -0.9444     9.5588     3.0840 O.2     
  26 O26           -0.0565     9.4790     5.3918 O.2     
  27 C27            1.3995    10.7455     3.5493 C.3     
  28 O28           -0.1159     4.7805    -2.2025 O.2     
  29 O29           -0.6490     4.4732     0.2245 O.2     
  30 C30           -2.6295     1.8019     1.6946 C.3     
  31 C31           -1.9998     0.4467     2.0231 C.3     
  32 C32           -2.7815     2.6185     2.9795 C.3     
  33 C33           -4.0057     1.5850     1.0623 C.3     
  34 H34           -1.0802     0.9974    -2.6931 H       
  35 H35           -0.8164     2.5916    -3.4174 H       
  36 H36            1.3127     0.9394    -2.0195 H       
  37 H37            1.0835     1.0383    -3.7774 H       
  38 H38            4.3192     2.4811    -2.3151 H       
  39 H39            5.3650     3.0132    -0.1584 H       
  40 H40            1.6031     4.3816     1.3461 H       
  41 H41            3.5735     6.4757     2.5118 H       
  42 H42            1.0761     5.5562     5.8437 H       
  43 H43            1.4740     3.1540     5.4863 H       
  44 H44            2.9126     2.4049     3.6346 H       
  45 H45            1.8834     7.8156     5.4824 H       
  46 H46            2.9260     8.1996     4.0918 H       
  47 H47            0.5271     7.4817     2.9560 H       
  48 H48            1.6542    10.6489     2.4939 H       
  49 H49            1.0010    11.7425     3.7371 H       
  50 H50            2.2931    10.5915     4.1542 H       
  51 H51           -1.0193     0.6013     2.4736 H       
  52 H52           -2.6400    -0.0915     2.7221 H       
  53 H53           -1.8915    -0.1350     1.1078 H       
  54 H54           -3.2301     3.5840     2.7455 H       
  55 H55           -3.4217     2.0803     3.6785 H       
  56 H56           -1.8011     2.7731     3.4299 H       
  57 H57           -3.8974     1.0032     0.1470 H       
  58 H58           -4.6459     1.0467     1.7613 H       
  59 H59           -4.4543     2.5504     0.8283 H       
@<TRIPOS>BOND
   1    1    2 am
   2    1    7 1
   3    1   28 2
   4    1   29 2
   5    2    3 1
   6    2   12 am
   7    3    4 1
   8    3   34 1
   9    3   35 1
  10    4    5 1
  11    4   36 1
  12    4   37 1
  13    5    6 1
  14    6    7 ar
  15    6    8 ar
  16    7   11 ar
  17    8    9 ar
  18    8   38 1
  19    9   10 ar
  20    9   39 1
  21   10   11 ar
  22   10   15 1
  23   11   40 1
  24   12   13 2
  25   12   14 1
  26   14   30 1
  27   15   16 1
  28   16   17 ar
  29   16   21 ar
  30   17   18 ar
  31   17   41 1
  32   18   19 ar
  33   18   22 1
  34   19   20 ar
  35   19   42 1
  36   20   21 ar
  37   20   43 1
  38   21   44 1
  39   22   23 1
  40   22   45 1
  41   22   46 1
  42   23   24 am
  43   23   47 1
  44   24   25 2
  45   24   26 2
  46   24   27 1
  47   27   48 1
  48   27   49 1
  49   27   50 1
  50   30   31 1
  51   30   33 1
  52   30   32 1
  53   31   51 1
  54   31   52 1
  55   31   53 1
  56   32   54 1
  57   32   55 1
  58   32   56 1
  59   33   57 1
  60   33   58 1
  61   33   59 1

#	End of record

