#	Name: ASD02038514
#	Creating user name:	WinNT
#	Creation time:	15. 06. 2019 20:16

#	Modifying user name:	WinNT
#	Modification time:	15. 06. 2019 20:16

#	Program:	/corina/corina34_cracker 3.40 0067  02.08.2006

@<TRIPOS>MOLECULE
ASD02038514
  50   51    0    0    0
SMALL
NO_CHARGES


@<TRIPOS>ATOM
   1 Cl1            2.9421    -8.1645    -3.1169 Cl      
   2 C2             0.0260     1.4180    -0.0378 C.3     
   3 N3             0.0430    -0.0509    -0.0242 N.3     
   4 C4            -1.2329    -0.5875     0.4679 C.3     
   5 C5            -1.4102    -0.2118     1.9404 C.3     
   6 C6            -2.7391    -0.7707     2.4529 C.3     
   7 O7            -2.9596    -0.3226     3.7918 O.3     
   8 C8            -4.1049    -0.7328     4.3993 C.ar    
   9 C9            -4.3816    -0.3346     5.6988 C.ar    
  10 C10           -4.9992    -1.5447     3.7175 C.ar    
  11 C11           -6.1626    -1.9615     4.3347 C.ar    
  12 C12           -6.4365    -1.5679     5.6361 C.ar    
  13 O13           -7.5816    -1.9785     6.2438 O.3     
  14 C14            0.3610    -0.5861    -1.3547 C.3     
  15 C15            0.7584    -2.0583    -1.2306 C.3     
  16 N16            1.1946    -2.5582    -2.5368 N.pl3   
  17 C17            1.6086    -3.8858    -2.6741 C.ar    
  18 C18            2.0223    -4.3611    -3.9119 C.ar    
  19 C19            2.4309    -5.6737    -4.0447 C.ar    
  20 C20            2.4284    -6.5150    -2.9461 C.ar    
  21 C21            2.0166    -6.0442    -1.7117 C.ar    
  22 C22            1.6124    -4.7310    -1.5719 C.ar    
  23 C23           -5.5450    -0.7513     6.3159 C.ar    
  24 O24           -0.3355    -0.7618     2.7050 O.3     
  25 C25            1.4362     1.9355    -0.1590 C.2     
  26 O26            1.6580     3.2512    -0.3054 O.3     
  27 O27            2.3671     1.1661    -0.1242 O.2     
  28 H28           -0.5631     1.7667    -0.8860 H       
  29 H29           -0.4174     1.7848     0.8879 H       
  30 H30           -2.0526    -0.1680    -0.1153 H       
  31 H31           -1.2336    -1.6728     0.3672 H       
  32 H32           -1.4095     0.8735     2.0411 H       
  33 H33           -3.5505    -0.4214     1.8145 H       
  34 H34           -2.7060    -1.8601     2.4352 H       
  35 H35           -3.6873     0.3010     6.2282 H       
  36 H36           -4.7860    -1.8509     2.7040 H       
  37 H37           -6.8590    -2.5934     3.8037 H       
  38 H38           -7.4944    -2.8133     6.7242 H       
  39 H39           -0.5131    -0.4988    -1.9999 H       
  40 H40            1.1881    -0.0215    -1.7852 H       
  41 H41            1.5737    -2.1554    -0.5137 H       
  42 H42           -0.0983    -2.6382    -0.8872 H       
  43 H43            1.1960    -1.9677    -3.3063 H       
  44 H44            2.0242    -3.7050    -4.7697 H       
  45 H45            2.7524    -6.0438    -5.0070 H       
  46 H46            2.0153    -6.7031    -0.8560 H       
  47 H47            1.2915    -4.3639    -0.6082 H       
  48 H48           -5.7582    -0.4452     7.3295 H       
  49 H49           -0.2752    -1.7260     2.6618 H       
  50 H50            2.5793     3.5356    -0.3790 H       
@<TRIPOS>BOND
   1    1   20 1
   2    2    3 1
   3    2   25 1
   4    2   28 1
   5    2   29 1
   6    3    4 1
   7    3   14 1
   8    4    5 1
   9    4   30 1
  10    4   31 1
  11    5    6 1
  12    5   24 1
  13    5   32 1
  14    6    7 1
  15    6   33 1
  16    6   34 1
  17    7    8 1
  18    8    9 ar
  19    8   10 ar
  20    9   23 ar
  21    9   35 1
  22   10   11 ar
  23   10   36 1
  24   11   12 ar
  25   11   37 1
  26   12   23 ar
  27   12   13 1
  28   13   38 1
  29   14   15 1
  30   14   39 1
  31   14   40 1
  32   15   16 1
  33   15   41 1
  34   15   42 1
  35   16   17 1
  36   16   43 1
  37   17   18 ar
  38   17   22 ar
  39   18   19 ar
  40   18   44 1
  41   19   20 ar
  42   19   45 1
  43   20   21 ar
  44   21   22 ar
  45   21   46 1
  46   22   47 1
  47   23   48 1
  48   24   49 1
  49   25   26 1
  50   25   27 2
  51   26   50 1

#	End of record

