#	Name: ASD01917213
#	Creating user name:	WinNT
#	Creation time:	15. 06. 2019 20:08

#	Modifying user name:	WinNT
#	Modification time:	15. 06. 2019 20:08

#	Program:	/corina/corina34_cracker 3.40 0067  02.08.2006

@<TRIPOS>MOLECULE
ASD01917213
  41   44    0    0    0
SMALL
NO_CHARGES


@<TRIPOS>ATOM
   1 C1            -0.1045     1.4217     0.2362 C.2     
   2 C2            -0.0319    -0.0488     0.2488 C.2     
   3 N3             1.0111     2.1844    -0.0278 N.pl3   
   4 N4             1.2089    -0.5894     0.1921 N.am    
   5 C5             2.4084     0.2223     0.3653 C.3     
   6 C6             2.3069     1.5770    -0.3360 C.3     
   7 N7             0.6373     3.5197     0.0511 N.2     
   8 C8            -0.6476     3.5810     0.3336 C.2     
   9 C9            -1.1445     2.2761     0.4575 C.2     
  10 O10           -1.0311    -0.7401     0.3072 O.2     
  11 C11            1.3434    -1.9632    -0.0381 C.ar    
  12 C12            1.8410    -2.7902     0.9604 C.ar    
  13 C13            1.9725    -4.1457     0.7312 C.ar    
  14 C14            1.6091    -4.6804    -0.4934 C.ar    
  15 C15            1.1127    -3.8575    -1.4905 C.ar    
  16 C16            0.9742    -2.5023    -1.2635 C.ar    
  17 F17            1.7394    -6.0065    -0.7159 F       
  18 O18           -1.3722     4.7221     0.4839 O.3     
  19 C19           -0.6758     5.9590     0.3198 C.3     
  20 C20           -1.6333     7.1052     0.5214 C.ar    
  21 C21           -1.1842     8.4105     0.4113 C.ar    
  22 C22           -2.0650     9.4623     0.5968 C.ar    
  23 C23           -3.3913     9.2086     0.8916 C.ar    
  24 C24           -3.8383     7.9053     1.0017 C.ar    
  25 C25           -2.9609     6.8539     0.8106 C.ar    
  26 F26            0.1125     8.6573     0.1235 F       
  27 H27            2.5710     0.3879     1.4303 H       
  28 H28            3.2626    -0.3207    -0.0391 H       
  29 H29            2.3963     1.4370    -1.4133 H       
  30 H30            3.1071     2.2290     0.0145 H       
  31 H31           -2.1630     1.9984     0.6851 H       
  32 H32            2.1253    -2.3735     1.9154 H       
  33 H33            2.3595    -4.7892     1.5075 H       
  34 H34            0.8301    -4.2765    -2.4450 H       
  35 H35            0.5831    -1.8615    -2.0400 H       
  36 H36            0.1278     6.0237     1.0534 H       
  37 H37           -0.2556     6.0090    -0.6847 H       
  38 H38           -1.7158    10.4808     0.5115 H       
  39 H39           -4.0786    10.0291     1.0364 H       
  40 H40           -4.8747     7.7080     1.2328 H       
  41 H41           -3.3124     5.8359     0.8917 H       
@<TRIPOS>BOND
   1    1    2 1
   2    1    3 1
   3    1    9 2
   4    2    4 am
   5    2   10 2
   6    3    6 1
   7    3    7 1
   8    4    5 1
   9    4   11 1
  10    5    6 1
  11    5   27 1
  12    5   28 1
  13    6   29 1
  14    6   30 1
  15    7    8 2
  16    8    9 1
  17    8   18 1
  18    9   31 1
  19   11   12 ar
  20   11   16 ar
  21   12   13 ar
  22   12   32 1
  23   13   14 ar
  24   13   33 1
  25   14   15 ar
  26   14   17 1
  27   15   16 ar
  28   15   34 1
  29   16   35 1
  30   18   19 1
  31   19   20 1
  32   19   36 1
  33   19   37 1
  34   20   21 ar
  35   20   25 ar
  36   21   22 ar
  37   21   26 1
  38   22   23 ar
  39   22   38 1
  40   23   24 ar
  41   23   39 1
  42   24   25 ar
  43   24   40 1
  44   25   41 1

#	End of record

