#	Name: ASD03091800
#	Creating user name:	WinNT
#	Creation time:	15. 06. 2019 20:31

#	Modifying user name:	WinNT
#	Modification time:	15. 06. 2019 20:31

#	Program:	/corina/corina34_cracker 3.40 0067  02.08.2006

@<TRIPOS>MOLECULE
ASD03091800
  48   52    0    0    0
SMALL
NO_CHARGES


@<TRIPOS>ATOM
   1 N1            -0.0458     2.6804     1.2925 N.pl3   
   2 C2            -0.3321     3.9806     0.9768 C.2     
   3 C3             0.7949     4.6309     0.6477 C.2     
   4 C4             1.8933     3.6678     0.7621 C.ar    
   5 C5             3.2707     3.7411     0.5564 C.ar    
   6 C6             4.0513     2.6112     0.7590 C.ar    
   7 C7             3.4572     1.4114     1.1656 C.ar    
   8 C8             2.1098     1.3349     1.3681 C.ar    
   9 C9             1.3071     2.4555     1.1715 C.ar    
  10 C10            5.5173     2.6758     0.5438 C.ar    
  11 C11            6.2955     1.5378     0.7490 C.ar    
  12 C12            7.6612     1.6104     0.5446 C.ar    
  13 C13            8.2081     2.8253     0.1394 C.ar    
  14 C14            7.3723     3.9174    -0.0455 C.ar    
  15 N15            6.0740     3.8145     0.1527 N.ar    
  16 O16            9.5457     2.9402    -0.0723 O.3     
  17 C17           12.4883     0.6651    -0.5884 C.3     
  18 C18           11.5923     1.8926    -0.8184 C.3     
  19 C19           10.3230     1.7451     0.0253 C.3     
  20 C20           10.7008     1.5013     1.4892 C.3     
  21 C21           11.6571     0.3002     1.5629 C.3     
  22 C22           11.0542    -0.8376     0.7071 C.3     
  23 C23           11.6035    -0.5965    -0.7144 C.3     
  24 N24           12.9000     0.6815     0.8406 N.3     
  25 C25           13.9731    -0.2900     1.0905 C.3     
  26 H26           -0.6985     2.0167     1.5652 H       
  27 H27           -1.3192     4.4188     0.9905 H       
  28 H28            0.8767     5.6671     0.3543 H       
  29 H29            3.7260     4.6686     0.2419 H       
  30 H30            4.0713     0.5366     1.3204 H       
  31 H31            1.6647     0.4022     1.6819 H       
  32 H32            5.8379     0.6116     1.0638 H       
  33 H33            8.2893     0.7450     0.6961 H       
  34 H34            7.7907     4.8621    -0.3597 H       
  35 H35           13.3375     0.6428    -1.2714 H       
  36 H36           12.1260     2.7951    -0.5204 H       
  37 H37           11.3243     1.9564    -1.8731 H       
  38 H38            9.7389     0.9016    -0.3428 H       
  39 H39           11.1943     2.3862     1.8911 H       
  40 H40            9.8018     1.2882     2.0676 H       
  41 H41           11.8456    -0.0121     2.5900 H       
  42 H42           11.3818    -1.8077     1.0809 H       
  43 H43            9.9659    -0.7774     0.7085 H       
  44 H44           10.7852    -0.4178    -1.4119 H       
  45 H45           12.2012    -1.4481    -1.0396 H       
  46 H46           14.8379    -0.0425     0.4748 H       
  47 H47           14.2551    -0.2573     2.1429 H       
  48 H48           13.6228    -1.2911     0.8392 H       
@<TRIPOS>BOND
   1    1    2 1
   2    1    9 1
   3    1   26 1
   4    2    3 2
   5    2   27 1
   6    3    4 1
   7    3   28 1
   8    4    5 ar
   9    4    9 ar
  10    5    6 ar
  11    5   29 1
  12    6    7 ar
  13    6   10 1
  14    7    8 ar
  15    7   30 1
  16    8    9 ar
  17    8   31 1
  18   10   11 ar
  19   10   15 ar
  20   11   12 ar
  21   11   32 1
  22   12   13 ar
  23   12   33 1
  24   13   14 ar
  25   13   16 1
  26   14   15 ar
  27   14   34 1
  28   16   19 1
  29   17   18 1
  30   17   23 1
  31   17   24 1
  32   17   35 1
  33   18   19 1
  34   18   36 1
  35   18   37 1
  36   19   20 1
  37   19   38 1
  38   20   21 1
  39   20   39 1
  40   20   40 1
  41   21   22 1
  42   21   24 1
  43   21   41 1
  44   22   23 1
  45   22   42 1
  46   22   43 1
  47   23   44 1
  48   23   45 1
  49   24   25 1
  50   25   46 1
  51   25   47 1
  52   25   48 1

#	End of record

