#	Name: ASD07301202
#	Creating user name:	WinNT
#	Creation time:	15. 06. 2019 21:11

#	Modifying user name:	WinNT
#	Modification time:	15. 06. 2019 21:11

#	Program:	/corina/corina34_cracker 3.40 0067  02.08.2006

@<TRIPOS>MOLECULE
ASD07301202
  30   30    0    0    0
SMALL
NO_CHARGES


@<TRIPOS>ATOM
   1 C1             1.2969     0.3936    -0.6682 C.3     
   2 C2             0.0071    -0.0049     0.0015 C.2     
   3 C3             0.0342    -0.8360     1.2061 C.2     
   4 C4            -0.1095    -2.2885     1.0964 C.2     
   5 C5            -0.0816    -3.1443     2.3366 C.3     
   6 O6            -1.0541     0.3634    -0.4578 O.2     
   7 O7            -0.2513    -2.8037     0.0068 O.2     
   8 N8             0.1888    -0.2742     2.3945 N.2     
   9 N9             0.4115     0.9932     2.4846 N.pl3   
  10 C10            0.6802     1.5675     3.7270 C.ar    
  11 C11            0.9205     2.9330     3.8261 C.ar    
  12 C12            1.1856     3.4979     5.0578 C.ar    
  13 C13            1.2122     2.7069     6.1921 C.ar    
  14 C14            0.9741     1.3478     6.0973 C.ar    
  15 C15            0.7026     0.7766     4.8699 C.ar    
  16 C16            1.5020     3.3274     7.5345 C.3     
  17 H17            1.6129    -0.3977    -1.3481 H       
  18 H18            1.1452     1.3156    -1.2294 H       
  19 H19            2.0657     0.5510     0.0883 H       
  20 H20           -0.8940    -2.8486     3.0004 H       
  21 H21           -0.2024    -4.1912     2.0584 H       
  22 H22            0.8719    -3.0119     2.8480 H       
  23 H23            0.3922     1.5469     1.6884 H       
  24 H24            0.9002     3.5513     2.9408 H       
  25 H25            1.3727     4.5587     5.1356 H       
  26 H26            0.9964     0.7332     6.9851 H       
  27 H27            0.5120    -0.2840     4.7974 H       
  28 H28            0.5674     3.6436     7.9979 H       
  29 H29            1.9953     2.5956     8.1741 H       
  30 H30            2.1527     4.1918     7.4024 H       
@<TRIPOS>BOND
   1    1    2 1
   2    1   17 1
   3    1   18 1
   4    1   19 1
   5    2    3 1
   6    2    6 2
   7    3    4 1
   8    3    8 2
   9    4    5 1
  10    4    7 2
  11    5   20 1
  12    5   21 1
  13    5   22 1
  14    8    9 1
  15    9   10 1
  16    9   23 1
  17   10   11 ar
  18   10   15 ar
  19   11   12 ar
  20   11   24 1
  21   12   13 ar
  22   12   25 1
  23   13   14 ar
  24   13   16 1
  25   14   15 ar
  26   14   26 1
  27   15   27 1
  28   16   28 1
  29   16   29 1
  30   16   30 1

#	End of record

