#	Name: ASD01890284
#	Creating user name:	WinNT
#	Creation time:	15. 06. 2019 19:50

#	Modifying user name:	WinNT
#	Modification time:	15. 06. 2019 19:50

#	Program:	/corina/corina34_cracker 3.40 0067  02.08.2006

@<TRIPOS>MOLECULE
ASD01890284
  34   36    0    0    0
SMALL
NO_CHARGES


@<TRIPOS>ATOM
   1 C1            -0.0177     1.4576     0.0101 C.2     
   2 C2             0.0021    -0.0041     0.0020 C.2     
   3 C3             1.1815    -0.6638    -0.0128 C.2     
   4 O4             1.0282     2.0806     0.0034 O.2     
   5 C5             2.4162    -2.8072    -0.0361 C.ar    
   6 C6             1.2014    -2.1337    -0.0209 C.ar    
   7 C7            -0.0117    -2.8502    -0.0127 C.ar    
   8 C8            -0.0177    -4.2066    -0.0198 C.ar    
   9 C9             1.1971    -4.9172    -0.0352 C.ar    
  10 C10            1.2137    -6.3215    -0.0418 C.ar    
  11 C11            2.4039    -6.9829    -0.0564 C.ar    
  12 C12            3.6117    -6.2877    -0.0648 C.ar    
  13 C13            3.6362    -4.9270    -0.0582 C.ar    
  14 C14            2.4263    -4.2089    -0.0437 C.ar    
  15 C15           -1.3081     2.1794     0.0201 C.ar    
  16 C16           -1.3303     3.5757     0.0278 C.ar    
  17 C17           -2.5367     4.2431     0.0372 C.ar    
  18 C18           -3.7252     3.5314     0.0395 C.ar    
  19 C19           -3.7097     2.1462     0.0319 C.ar    
  20 C20           -2.5096     1.4676     0.0162 C.ar    
  21 Cl21          -5.2403     4.3789     0.0525 Cl      
  22 H22           -0.9258    -0.5567     0.0079 H       
  23 H23            2.1093    -0.1111    -0.0187 H       
  24 H24            3.3447    -2.2558    -0.0464 H       
  25 H25           -0.9484    -2.3127    -0.0002 H       
  26 H26           -0.9557    -4.7419    -0.0134 H       
  27 H27            0.2861    -6.8747    -0.0351 H       
  28 H28            2.4120    -8.0628    -0.0610 H       
  29 H29            4.5417    -6.8367    -0.0763 H       
  30 H30            4.5795    -4.4011    -0.0649 H       
  31 H31           -0.4043     4.1316     0.0267 H       
  32 H32           -2.5552     5.3229     0.0431 H       
  33 H33           -4.6395     1.5968     0.0337 H       
  34 H34           -2.4987     0.3877     0.0057 H       
@<TRIPOS>BOND
   1    1    2 1
   2    1    4 2
   3    1   15 1
   4    2    3 2
   5    2   22 1
   6    3    6 1
   7    3   23 1
   8    5    6 ar
   9    5   14 ar
  10    5   24 1
  11    6    7 ar
  12    7    8 ar
  13    7   25 1
  14    8    9 ar
  15    8   26 1
  16    9   10 ar
  17    9   14 ar
  18   10   11 ar
  19   10   27 1
  20   11   12 ar
  21   11   28 1
  22   12   13 ar
  23   12   29 1
  24   13   14 ar
  25   13   30 1
  26   15   16 ar
  27   15   20 ar
  28   16   17 ar
  29   16   31 1
  30   17   18 ar
  31   17   32 1
  32   18   19 ar
  33   18   21 1
  34   19   20 ar
  35   19   33 1
  36   20   34 1

#	End of record

