#	Name: ASD01150779
#	Creating user name:	WinNT
#	Creation time:	15. 06. 2019 19:05

#	Modifying user name:	WinNT
#	Modification time:	15. 06. 2019 19:05

#	Program:	/corina/corina34_cracker 3.40 0067  02.08.2006

@<TRIPOS>MOLECULE
ASD01150779
  58   62    0    0    0
SMALL
NO_CHARGES


@<TRIPOS>ATOM
   1 C1            -0.0312     1.2744    -0.4482 C.2     
   2 O2            -0.6131     0.8773     0.5394 O.2     
   3 N3             2.1307     4.2437     0.0016 N.ar    
   4 C4             1.0720     3.4880    -0.1268 C.ar    
   5 C5             1.1754     2.0965    -0.3075 C.ar    
   6 C6             2.4501     1.5034    -0.3512 C.ar    
   7 C7             3.5762     2.3513    -0.2088 C.ar    
   8 C8             4.8782     1.8361    -0.2410 C.ar    
   9 C9             5.9510     2.6920    -0.0986 C.ar    
  10 C10            5.7448     4.0644     0.0771 C.ar    
  11 C11            4.4880     4.5849     0.1112 C.ar    
  12 C12            3.3730     3.7422    -0.0310 C.ar    
  13 N13            7.2515     2.1847    -0.1298 N.3     
  14 C14            8.2404     3.2593     0.0391 C.3     
  15 C15            9.6462     2.6534     0.0588 C.3     
  16 O16            9.8559     1.9089    -1.1442 O.3     
  17 C17            8.9107     0.8536    -1.3402 C.3     
  18 C18            7.4975     1.4413    -1.3740 C.3     
  19 C19           -0.2939     4.1231    -0.0800 C.3     
  20 C20            2.6091     0.0463    -0.5386 C.ar    
  21 C21            3.2211    -0.4500    -1.6917 C.ar    
  22 C22            3.3667    -1.8112    -1.8599 C.ar    
  23 C23            2.9077    -2.6845    -0.8896 C.ar    
  24 C24            2.3000    -2.1997     0.2552 C.ar    
  25 C25            2.1534    -0.8406     0.4393 C.ar    
  26 S26            3.0974    -4.4220    -1.1130 S.o2    
  27 O27            2.0474    -4.9910    -0.3431 O.2     
  28 O28            3.1463    -4.5907    -2.5231 O.2     
  29 C29            4.7086    -4.8006    -0.3704 C.3     
  30 C30           -0.5444     0.9179    -1.8195 C.3     
  31 C31           -1.3908    -0.3501    -1.9494 C.3     
  32 C32           -2.0516     1.0255    -2.0598 C.3     
  33 H33            5.0412     0.7770    -0.3758 H       
  34 H34            6.5955     4.7204     0.1877 H       
  35 H35            4.3476     5.6469     0.2478 H       
  36 H36            8.1587     3.9626    -0.7896 H       
  37 H37            8.0553     3.7799     0.9787 H       
  38 H38           10.3856     3.4514     0.1264 H       
  39 H39            9.7451     1.9910     0.9187 H       
  40 H40            9.1182     0.3500    -2.2844 H       
  41 H41            8.9882     0.1388    -0.5210 H       
  42 H42            6.7700     0.6348    -1.4660 H       
  43 H43            7.4039     2.1155    -2.2254 H       
  44 H44           -0.6363     4.3235    -1.0952 H       
  45 H45           -0.9925     3.4465     0.4123 H       
  46 H46           -0.2406     5.0586     0.4769 H       
  47 H47            3.5792     0.2305    -2.4501 H       
  48 H48            3.8398    -2.1964    -2.7512 H       
  49 H49            1.9434    -2.8869     1.0082 H       
  50 H50            1.6830    -0.4633     1.3352 H       
  51 H51            4.6964    -4.5249     0.6841 H       
  52 H52            4.9103    -5.8676    -0.4647 H       
  53 H53            5.4871    -4.2368    -0.8844 H       
  54 H54            0.1169     1.1687    -2.6488 H       
  55 H55           -1.2866    -0.9332    -2.8644 H       
  56 H56           -1.5764    -0.9263    -1.0430 H       
  57 H57           -2.6719     1.3542    -1.2260 H       
  58 H58           -2.3821     1.3473    -3.0473 H       
@<TRIPOS>BOND
   1    1    2 2
   2    1    5 1
   3    1   30 1
   4    3    4 ar
   5    3   12 ar
   6    4    5 ar
   7    4   19 1
   8    5    6 ar
   9    6    7 ar
  10    6   20 1
  11    7    8 ar
  12    7   12 ar
  13    8    9 ar
  14    8   33 1
  15    9   10 ar
  16    9   13 1
  17   10   11 ar
  18   10   34 1
  19   11   12 ar
  20   11   35 1
  21   13   14 1
  22   13   18 1
  23   14   15 1
  24   14   36 1
  25   14   37 1
  26   15   16 1
  27   15   38 1
  28   15   39 1
  29   16   17 1
  30   17   18 1
  31   17   40 1
  32   17   41 1
  33   18   42 1
  34   18   43 1
  35   19   44 1
  36   19   45 1
  37   19   46 1
  38   20   21 ar
  39   20   25 ar
  40   21   22 ar
  41   21   47 1
  42   22   23 ar
  43   22   48 1
  44   23   24 ar
  45   23   26 1
  46   24   25 ar
  47   24   49 1
  48   25   50 1
  49   26   27 2
  50   26   28 2
  51   26   29 1
  52   29   51 1
  53   29   52 1
  54   29   53 1
  55   30   31 1
  56   30   32 1
  57   30   54 1
  58   31   32 1
  59   31   55 1
  60   31   56 1
  61   32   57 1
  62   32   58 1

#	End of record

