#	Name: ASD01918056
#	Creating user name:	WinNT
#	Creation time:	15. 06. 2019 20:10

#	Modifying user name:	WinNT
#	Modification time:	15. 06. 2019 20:10

#	Program:	/corina/corina34_cracker 3.40 0067  02.08.2006

@<TRIPOS>MOLECULE
ASD01918056
  42   46    0    0    0
SMALL
NO_CHARGES


@<TRIPOS>ATOM
   1 C1            -0.0169     1.3947     0.0097 C.ar    
   2 C2             0.0021    -0.0041     0.0020 C.ar    
   3 C3             1.2376    -0.6764    -0.0134 C.ar    
   4 C4             2.4269     0.0464    -0.0213 C.ar    
   5 C5             2.3989     1.4103    -0.0136 C.ar    
   6 C6             1.1787     2.0951     0.0021 C.ar    
   7 N7             0.9406    -2.0182    -0.0178 N.pl3   
   8 N8            -0.4580    -2.1201    -0.0050 N.2     
   9 N9            -0.9744    -0.9419     0.0063 N.2     
  10 C10            1.8986    -3.1264    -0.0333 C.3     
  11 C11            1.7089    -4.0047     1.2159 C.3     
  12 C12            1.3393    -5.4148     0.7111 C.3     
  13 C13            1.9099    -5.4648    -0.7280 C.3     
  14 C14            1.6377    -4.0335    -1.2535 C.3     
  15 C15            1.1651     3.5792     0.0102 C.2     
  16 N16            2.2450     4.3884     0.0042 N.2     
  17 C17            1.7647     5.6179     0.0146 C.2     
  18 O18            0.4267     5.5133     0.0263 O.3     
  19 N19            0.1036     4.3444     0.0187 N.2     
  20 C20            2.5498     6.8697     0.0135 C.ar    
  21 C21            1.8990     8.1049     0.0254 C.ar    
  22 C22            2.6364     9.2698     0.0248 C.ar    
  23 C23            4.0215     9.2163     0.0119 C.ar    
  24 C24            4.6728     7.9926    -0.0000 C.ar    
  25 C25            3.9451     6.8216     0.0063 C.ar    
  26 F26            4.7393    10.3608     0.0104 F       
  27 H27           -0.9575     1.9254     0.0170 H       
  28 H28            3.3735    -0.4734    -0.0331 H       
  29 H29            3.3252     1.9655    -0.0191 H       
  30 H30            2.9169    -2.7389    -0.0661 H       
  31 H31            2.6354    -4.0442     1.7888 H       
  32 H32            0.9040    -3.6064     1.8336 H       
  33 H33            1.8070    -6.1776     1.3336 H       
  34 H34            0.2570    -5.5434     0.6970 H       
  35 H35            2.9796    -5.6736    -0.7123 H       
  36 H36            1.3796    -6.2041    -1.3283 H       
  37 H37            0.6036    -3.9390    -1.5849 H       
  38 H38            2.3231    -3.7881    -2.0647 H       
  39 H39            0.8199     8.1477     0.0348 H       
  40 H40            2.1339    10.2258     0.0341 H       
  41 H41            5.7521     7.9565    -0.0101 H       
  42 H42            4.4535     5.8687     0.0011 H       
@<TRIPOS>BOND
   1    1    2 ar
   2    1    6 ar
   3    1   27 1
   4    2    9 1
   5    2    3 ar
   6    3    4 ar
   7    3    7 1
   8    4    5 ar
   9    4   28 1
  10    5    6 ar
  11    5   29 1
  12    6   15 1
  13    7    8 1
  14    7   10 1
  15    8    9 2
  16   10   11 1
  17   10   14 1
  18   10   30 1
  19   11   12 1
  20   11   31 1
  21   11   32 1
  22   12   13 1
  23   12   33 1
  24   12   34 1
  25   13   14 1
  26   13   35 1
  27   13   36 1
  28   14   37 1
  29   14   38 1
  30   15   16 1
  31   15   19 2
  32   16   17 2
  33   17   18 1
  34   17   20 1
  35   18   19 1
  36   20   21 ar
  37   20   25 ar
  38   21   22 ar
  39   21   39 1
  40   22   23 ar
  41   22   40 1
  42   23   24 ar
  43   23   26 1
  44   24   25 ar
  45   24   41 1
  46   25   42 1

#	End of record

