#	Name: ASD03241000
#	Creating user name:	WinNT
#	Creation time:	15. 06. 2019 20:35

#	Modifying user name:	WinNT
#	Modification time:	15. 06. 2019 20:35

#	Program:	/corina/corina34_cracker 3.40 0067  02.08.2006

@<TRIPOS>MOLECULE
ASD03241000
  59   64    0    0    0
SMALL
NO_CHARGES


@<TRIPOS>ATOM
   1 N1            -0.0164     1.3614     0.0095 N.pl3   
   2 C2             0.0021    -0.0041     0.0020 C.2     
   3 N3             1.1516    -0.6911    -0.0126 N.2     
   4 C4             2.3171    -0.0941    -0.0205 C.2     
   5 C5             2.3794     1.3207    -0.0135 C.ar    
   6 C6             3.6044     2.0004    -0.0215 C.ar    
   7 C7             3.5793     3.3901    -0.0138 C.ar    
   8 C8             2.3371     4.0552     0.0015 C.ar    
   9 N9             1.1981     3.3797     0.0088 N.ar    
  10 C10            1.1757     2.0580     0.0019 C.ar    
  11 C11           -1.3391    -0.4240     0.0126 C.2     
  12 C12           -2.1348     0.7368     0.0264 C.2     
  13 N13           -1.3504     1.7814     0.0301 N.2     
  14 C14           -1.8076    -1.7772     0.0094 C.1     
  15 N15           -2.1792    -2.8507     0.0068 N.1     
  16 C16            4.8443     4.1633    -0.0212 C.ar    
  17 C17            5.8538     3.8621     0.8916 C.ar    
  18 C18            7.0293     4.5849     0.8797 C.ar    
  19 C19            7.2069     5.6067    -0.0356 C.ar    
  20 C20            6.2085     5.9102    -0.9438 C.ar    
  21 C21            5.0309     5.1906    -0.9448 C.ar    
  22 C22           -3.6413     0.7692     0.0409 C.3     
  23 C23            2.3048     5.5356     0.0103 C.ar    
  24 C24            1.2951     6.2181    -0.6684 C.ar    
  25 C25            1.2705     7.5976    -0.6566 C.ar    
  26 C26            2.2448     8.3039     0.0261 C.ar    
  27 C27            3.2490     7.6327     0.7008 C.ar    
  28 C28            3.2807     6.2533     0.7020 C.ar    
  29 C29            2.2122     9.8105     0.0346 C.3     
  30 C30            2.8064    10.4324     1.3093 C.3     
  31 C31            3.4406    11.4977     0.3996 C.3     
  32 C32            3.3798    10.4562    -0.7302 C.3     
  33 C33            2.5427    12.7134     0.1613 C.3     
  34 O34            4.7715    11.8548     0.7779 O.3     
  35 N35            0.8976    10.3561    -0.3287 N.3     
  36 H36            3.2259    -0.6775    -0.0320 H       
  37 H37            4.5400     1.4609    -0.0330 H       
  38 H38            5.7161     3.0647     1.6070 H       
  39 H39            7.8120     4.3526     1.5867 H       
  40 H40            8.1283     6.1700    -0.0410 H       
  41 H41            6.3525     6.7092    -1.6560 H       
  42 H42            4.2538     5.4257    -1.6570 H       
  43 H43           -3.9948     0.7715     1.0721 H       
  44 H44           -3.9903     1.6695    -0.4648 H       
  45 H45           -4.0287    -0.1100    -0.4739 H       
  46 H46            0.5345     5.6679    -1.2023 H       
  47 H47            0.4893     8.1272    -1.1817 H       
  48 H48            4.0069     8.1896     1.2317 H       
  49 H49            4.0621     5.7305     1.2333 H       
  50 H50            2.0556    10.8314     1.9913 H       
  51 H51            3.5356     9.7937     1.8077 H       
  52 H52            4.2657     9.8240    -0.7893 H       
  53 H53            3.0918    10.8744    -1.6947 H       
  54 H54            2.3182    13.1917     1.1147 H       
  55 H55            3.0557    13.4222    -0.4888 H       
  56 H56            1.6146    12.3925    -0.3116 H       
  57 H57            5.1757    12.5245     0.2094 H       
  58 H58            0.5453     9.9217    -1.1685 H       
  59 H59            0.2421    10.2568     0.4320 H       
@<TRIPOS>BOND
   1    1    2 1
   2    1   10 1
   3    1   13 1
   4    2    3 1
   5    2   11 2
   6    3    4 2
   7    4    5 1
   8    4   36 1
   9    5    6 ar
  10    5   10 ar
  11    6    7 ar
  12    6   37 1
  13    7    8 ar
  14    7   16 1
  15    8    9 ar
  16    8   23 1
  17    9   10 ar
  18   11   12 1
  19   11   14 1
  20   12   13 2
  21   12   22 1
  22   14   15 3
  23   16   17 ar
  24   16   21 ar
  25   17   18 ar
  26   17   38 1
  27   18   19 ar
  28   18   39 1
  29   19   20 ar
  30   19   40 1
  31   20   21 ar
  32   20   41 1
  33   21   42 1
  34   22   43 1
  35   22   44 1
  36   22   45 1
  37   23   24 ar
  38   23   28 ar
  39   24   25 ar
  40   24   46 1
  41   25   26 ar
  42   25   47 1
  43   26   27 ar
  44   26   29 1
  45   27   28 ar
  46   27   48 1
  47   28   49 1
  48   29   30 1
  49   29   32 1
  50   29   35 1
  51   30   31 1
  52   30   50 1
  53   30   51 1
  54   31   32 1
  55   31   33 1
  56   31   34 1
  57   32   52 1
  58   32   53 1
  59   33   54 1
  60   33   55 1
  61   33   56 1
  62   34   57 1
  63   35   58 1
  64   35   59 1

#	End of record

