#	Name: ASD01883841
#	Creating user name:	WinNT
#	Creation time:	15. 06. 2019 19:47

#	Modifying user name:	WinNT
#	Modification time:	15. 06. 2019 19:47

#	Program:	/corina/corina34_cracker 3.40 0067  02.08.2006

@<TRIPOS>MOLECULE
ASD01883841
  35   38    0    0    0
SMALL
NO_CHARGES


@<TRIPOS>ATOM
   1 C1             0.8482    -0.1951     1.0482 C.ar    
   2 O2             0.0021    -0.0041     0.0020 O.3     
   3 C3            -1.1395    -0.7379    -0.0367 C.2     
   4 C4            -3.5238    -0.9079     0.0558 C.2     
   5 C5            -2.3549    -0.1266     0.0992 C.2     
   6 C6            -1.0790    -2.1344    -0.2230 C.2     
   7 C7            -2.2111    -2.8652    -0.2617 C.2     
   8 N8            -5.5015    -1.7052     0.0502 N.2     
   9 N9            -4.8132    -0.6231     0.1543 N.2     
  10 N10           -3.4293    -2.2667    -0.1216 N.pl3   
  11 C11           -4.7104    -2.7322    -0.1188 C.2     
  12 C12           -5.1370    -4.1686    -0.2801 C.3     
  13 C13           -5.3507    -4.4735    -1.7641 C.3     
  14 C14           -5.6752    -5.9184    -2.1488 C.3     
  15 C15           -6.7653    -4.8466    -2.2121 C.3     
  16 Cl16          -2.4542     1.5920     0.3230 Cl      
  17 C17            2.9370     0.2505     2.1370 C.ar    
  18 C18            2.5713    -0.5847     3.1778 C.ar    
  19 C19            1.3471    -1.2294     3.1526 C.ar    
  20 C20            0.4855    -1.0363     2.0904 C.ar    
  21 C21            2.0783     0.4464     1.0729 C.ar    
  22 Cl22           3.6526    -0.8297     4.5137 Cl      
  23 H23           -0.1213    -2.6207    -0.3356 H       
  24 H24           -2.1534    -3.9340    -0.4053 H       
  25 H25           -4.3626    -4.8244     0.1177 H       
  26 H26           -6.0676    -4.3344     0.2626 H       
  27 H27           -4.7399    -3.8935    -2.4560 H       
  28 H28           -5.2782    -6.2888    -3.0940 H       
  29 H29           -5.7364    -6.6517    -1.3447 H       
  30 H30           -7.5437    -4.8748    -1.4496 H       
  31 H31           -7.0854    -4.5120    -3.1988 H       
  32 H32            3.8929     0.7528     2.1585 H       
  33 H33            1.0637    -1.8812     3.9658 H       
  34 H34           -0.4700    -1.5394     2.0712 H       
  35 H35            2.3643     1.0980     0.2606 H       
@<TRIPOS>BOND
   1    1    2 1
   2    1   21 ar
   3    1   20 ar
   4    2    3 1
   5    3    6 1
   6    3    5 2
   7    4    5 1
   8    4   10 1
   9    4    9 2
  10    5   16 1
  11    6    7 2
  12    6   23 1
  13    7   10 1
  14    7   24 1
  15    8    9 1
  16    8   11 2
  17   10   11 1
  18   11   12 1
  19   12   13 1
  20   12   25 1
  21   12   26 1
  22   13   14 1
  23   13   15 1
  24   13   27 1
  25   14   15 1
  26   14   28 1
  27   14   29 1
  28   15   30 1
  29   15   31 1
  30   17   18 ar
  31   17   21 ar
  32   17   32 1
  33   18   19 ar
  34   18   22 1
  35   19   20 ar
  36   19   33 1
  37   20   34 1
  38   21   35 1

#	End of record

