#	Name: ASD09890058
#	Creating user name:	WinNT
#	Creation time:	15. 06. 2019 21:24

#	Modifying user name:	WinNT
#	Modification time:	15. 06. 2019 21:24

#	Program:	/corina/corina34_cracker 3.40 0067  02.08.2006

@<TRIPOS>MOLECULE
ASD09890058
  39   42    0    0    0
SMALL
NO_CHARGES


@<TRIPOS>ATOM
   1 C1            -0.0166     1.3754     0.0096 C.2     
   2 N2             0.0021    -0.0041     0.0020 N.pl3   
   3 C3            -1.3118    -0.3892     0.0133 C.2     
   4 N4            -2.0386     0.7054     0.0266 N.2     
   5 N5            -1.2797     1.7422     0.0294 N.2     
   6 S6            -1.9156    -2.0445     0.0106 S.3     
   7 C7            -3.6978    -1.7291     0.0304 C.3     
   8 C8             1.1295    -0.8366    -0.0139 C.ar    
   9 C9             1.3985    -1.6641     1.0679 C.ar    
  10 C10            2.5100    -2.4837     1.0491 C.ar    
  11 C11            3.3548    -2.4804    -0.0456 C.ar    
  12 C12            3.0895    -1.6573    -1.1246 C.ar    
  13 C13            1.9764    -0.8396    -1.1141 C.ar    
  14 C14           -4.4691    -3.0546    -0.0948 C.3     
  15 C15           -5.3223    -3.1905     1.1833 C.3     
  16 C16           -5.4918    -1.7344     1.6834 C.3     
  17 C17           -4.1091    -1.1057     1.3803 C.3     
  18 C18            1.1534     2.2665     0.0032 C.2     
  19 O19            2.4242     1.9062     0.2710 O.3     
  20 C20            1.1427     3.5995    -0.2804 C.2     
  21 C21            2.4728     4.0482    -0.1688 C.2     
  22 C22            3.2235     2.9811     0.1697 C.2     
  23 H23           -3.9676    -1.0613    -0.7877 H       
  24 H24            0.7394    -1.6666     1.9235 H       
  25 H25            2.7198    -3.1277     1.8904 H       
  26 H26            4.2237    -3.1216    -0.0578 H       
  27 H27            3.7514    -1.6566    -1.9781 H       
  28 H28            1.7696    -0.1972    -1.9572 H       
  29 H29           -5.1140    -3.0298    -0.9733 H       
  30 H30           -3.7702    -3.8879    -0.1675 H       
  31 H31           -6.2924    -3.6290     0.9495 H       
  32 H32           -4.8005    -3.7914     1.9281 H       
  33 H33           -6.2784    -1.2242     1.1275 H       
  34 H34           -5.6988    -1.7151     2.7534 H       
  35 H35           -3.3914    -1.3699     2.1570 H       
  36 H36           -4.1939    -0.0227     1.2903 H       
  37 H37            0.2809     4.1963    -0.5403 H       
  38 H38            2.8254     5.0567    -0.3274 H       
  39 H39            4.2911     2.9890     0.3326 H       
@<TRIPOS>BOND
   1    1    2 1
   2    1   18 1
   3    1    5 2
   4    2    3 1
   5    2    8 1
   6    3    4 2
   7    3    6 1
   8    4    5 1
   9    6    7 1
  10    7   14 1
  11    7   17 1
  12    7   23 1
  13    8    9 ar
  14    8   13 ar
  15    9   10 ar
  16    9   24 1
  17   10   11 ar
  18   10   25 1
  19   11   12 ar
  20   11   26 1
  21   12   13 ar
  22   12   27 1
  23   13   28 1
  24   14   15 1
  25   14   29 1
  26   14   30 1
  27   15   16 1
  28   15   31 1
  29   15   32 1
  30   16   17 1
  31   16   33 1
  32   16   34 1
  33   17   35 1
  34   17   36 1
  35   18   19 1
  36   18   20 2
  37   19   22 1
  38   20   21 1
  39   20   37 1
  40   21   22 2
  41   21   38 1
  42   22   39 1

#	End of record

