#	Name: ASD00731035
#	Creating user name:	WinNT
#	Creation time:	15. 06. 2019 18:37

#	Modifying user name:	WinNT
#	Modification time:	15. 06. 2019 18:37

#	Program:	/corina/corina34_cracker 3.40 0067  02.08.2006

@<TRIPOS>MOLECULE
ASD00731035
 324  327    0    0    0
SMALL
NO_CHARGES


@<TRIPOS>ATOM
   1 C1            -0.4477     4.5481    -7.2284 C.2     
   2 O2            -0.2224     3.3677    -7.3922 O.2     
   3 N3             1.5880     4.9715    -8.4796 N.am    
   4 C4             0.3513     5.5795    -7.9826 C.3     
   5 C5            -0.4719     6.0989    -9.1631 C.3     
   6 C6            -1.8013     6.6573    -8.6515 C.3     
   7 C7             0.3048     7.2062    -9.8784 C.3     
   8 C8            -3.6210     4.5487    -5.4391 C.2     
   9 O9            -3.7834     5.7446    -5.5586 O.2     
  10 N10           -1.4163     4.9372    -6.3759 N.am    
  11 C11           -2.2768     3.9371    -5.7390 C.3     
  12 C12           -1.6299     3.4633    -4.4359 C.3     
  13 C13           -2.4893     2.3628    -3.8106 C.3     
  14 C14           -2.4645     1.1242    -4.7085 C.3     
  15 C15           -1.9336     2.0037    -2.4310 C.3     
  16 C16           -6.5152     3.6365    -3.4997 C.2     
  17 O17           -5.9185     2.7015    -3.0091 O.2     
  18 N18           -4.6428     3.7667    -5.0380 N.am    
  19 C19           -5.9291     4.3691    -4.6790 C.3     
  20 C20           -6.8875     4.2713    -5.8677 C.3     
  21 C21           -6.2389     4.9064    -7.0993 C.3     
  22 O22           -7.1751     2.8975    -6.1359 O.3     
  23 C23           -9.6792     3.0495    -1.9712 C.2     
  24 O24          -10.2304     3.3228    -3.0164 O.2     
  25 N25           -7.7023     4.0205    -2.9900 N.am    
  26 C26           -8.2214     3.3796    -1.7792 C.3     
  27 C27           -8.0661     4.3316    -0.5916 C.3     
  28 C28           -6.6026     4.5961    -0.3480 C.ar    
  29 C29           -5.9655     5.6226    -1.0205 C.ar    
  30 C30           -4.6239     5.8668    -0.7992 C.ar    
  31 C31           -3.9160     5.0815     0.0990 C.ar    
  32 O32           -2.5963     5.3200     0.3187 O.3     
  33 C33           -4.5577     4.0525     0.7728 C.ar    
  34 C34           -5.9007     3.8156     0.5519 C.ar    
  35 C35          -12.4681     2.0600     0.1751 C.2     
  36 O36          -11.8317     2.2586     1.1883 O.2     
  37 N37          -10.3706     2.4507    -0.9812 N.am    
  38 C38          -11.7878     2.1299    -1.1678 C.3     
  39 C39          -11.9162     0.7794    -1.8754 C.3     
  40 O40          -11.4032    -0.2520    -1.0298 O.3     
  41 C41          -15.6593     0.8219     1.4582 C.2     
  42 O42          -16.0399     0.4319     0.3747 O.2     
  43 N43          -13.7836     1.7768     0.2503 N.am    
  44 C44          -14.4448     1.7089     1.5557 C.3     
  45 C45          -14.8726     3.1139     1.9845 C.3     
  46 C46          -13.6393     4.0136     2.0862 C.3     
  47 O47          -15.7767     3.6524     1.0177 O.3     
  48 C48          -18.6025     0.0497     3.2964 C.2     
  49 O49          -18.5023     1.1063     3.8834 O.2     
  50 N50          -16.3225     0.4621     2.5749 N.am    
  51 C51          -17.4433    -0.4775     2.4906 C.3     
  52 C52          -17.0124    -1.8365     3.0459 C.3     
  53 C53          -15.9032    -2.3983     2.1943 C.2     
  54 O54          -15.4678    -1.7557     1.2684 O.2     
  55 O55          -15.3990    -3.6126     2.4645 O.3     
  56 C56          -21.7530    -1.2886     4.5794 C.2     
  57 O57          -21.4642    -2.4233     4.2635 O.2     
  58 N58          -19.7506    -0.6529     3.3648 N.am    
  59 C59          -20.8775    -0.1403     4.1482 C.3     
  60 C60          -21.6939     0.8302     3.2924 C.3     
  61 C61          -20.8421     2.0565     2.9586 C.3     
  62 C62          -21.6586     3.0270     2.1028 C.3     
  63 N63          -20.8429     4.2012     1.7831 N.pl3   
  64 C64          -21.3684     5.2158     1.0187 C.2     
  65 N65          -22.5924     5.1331     0.5783 N.2     
  66 N66          -20.6029     6.3177     0.7187 N.pl3   
  67 C67          -25.1094    -1.6711     5.9764 C.2     
  68 O68          -25.3712    -0.4981     5.8140 O.2     
  69 N69          -22.8571    -1.0545     5.3162 N.am    
  70 C70          -23.7082    -2.1707     5.7354 C.3     
  71 C71          -23.1542    -2.7779     7.0258 C.3     
  72 C72          -21.7821    -3.3963     6.7505 C.3     
  73 C73          -21.1735    -3.8924     8.0636 C.3     
  74 C74          -21.9374    -4.5722     5.7840 C.3     
  75 C75          -28.1329    -2.9568     7.5790 C.2     
  76 O76          -27.5507    -3.9197     8.0316 O.2     
  77 N77          -26.0715    -2.5278     6.3725 N.am    
  78 C78          -27.4336    -2.0420     6.6068 C.3     
  79 C79          -28.2021    -2.0205     5.2839 C.3     
  80 C80          -27.5646    -0.9985     4.3405 C.3     
  81 C81          -28.3330    -0.9769     3.0176 C.3     
  82 N82          -27.7226     0.0016     2.1142 N.pl3   
  83 C83          -28.2459     0.1974     0.8580 C.2     
  84 N84          -29.2850    -0.4876     0.4708 N.2     
  85 N85          -27.6731     1.1157     0.0102 N.pl3   
  86 C86          -31.5747    -3.5047     8.6821 C.2     
  87 O87          -32.0244    -2.7704     7.8281 O.2     
  88 N88          -29.4051    -2.7049     7.9456 N.am    
  89 C89          -30.0849    -3.5942     8.8907 C.3     
  90 C90          -29.7441    -3.1739    10.3218 C.3     
  91 C91          -28.2494    -3.3831    10.5726 C.3     
  92 C92          -27.9086    -2.9627    12.0037 C.3     
  93 C93          -26.4139    -3.1719    12.2545 C.3     
  94 N94          -26.0867    -2.7683    13.6286 N.3     
  95 C95          -34.5650    -4.5329    10.5162 C.2     
  96 O96          -33.9239    -4.8451    11.4973 O.2     
  97 N97          -32.4073    -4.2407     9.4447 N.am    
  98 C98          -33.8556    -4.1537     9.2419 C.3     
  99 C99          -34.2722    -5.1098     8.1224 C.3     
 100 C100         -33.6597    -4.6578     6.8218 C.2     
 101 C101         -34.2408    -3.8832     5.8922 C.2     
 102 N102         -33.3801    -3.6828     4.8474 N.pl3   
 103 C103         -32.1940    -4.3403     5.0854 C.ar    
 104 C104         -31.0083    -4.4658     4.3692 C.ar    
 105 C105         -29.9719    -5.2118     4.8868 C.ar    
 106 C106         -30.0982    -5.8407     6.1176 C.ar    
 107 C107         -31.2544    -5.7311     6.8378 C.ar    
 108 C108         -32.3148    -4.9751     6.3353 C.ar    
 109 C109         -37.9836    -5.3984    11.4791 C.2     
 110 O110         -38.3560    -5.4455    10.3259 O.2     
 111 N111         -35.9118    -4.5251    10.5658 N.am    
 112 C112         -36.6014    -4.8937    11.8046 C.3     
 113 C113         -36.7071    -3.6677    12.7137 C.3     
 114 C114         -35.3058    -3.2304    13.1452 C.3     
 115 S115         -35.4312    -1.7767    14.2230 S.3     
 116 C116         -33.6992    -1.4146    14.6228 C.3     
 117 C117         -41.0506    -6.0887    13.3446 C.2     
 118 O118         -40.6134    -5.5863    14.3582 O.2     
 119 N119         -38.8059    -5.7974    12.4696 N.am    
 120 C120         -40.1496    -6.2880    12.1532 C.3     
 121 C121         -40.0809    -7.7772    11.8092 C.3     
 122 C122         -39.2804    -7.9646    10.5462 C.ar    
 123 C123         -37.9129    -8.1544    10.6164 C.ar    
 124 C124         -37.1786    -8.3263     9.4579 C.ar    
 125 C125         -37.8118    -8.3087     8.2292 C.ar    
 126 C126         -39.1794    -8.1198     8.1591 C.ar    
 127 C127         -39.9143    -7.9523     9.3178 C.ar    
 128 C128         -43.0697    -7.4412    15.3847 C.2     
 129 O129         -42.3101    -8.3418    15.1167 O.2     
 130 N130         -42.3423    -6.4687    13.2837 N.am    
 131 C131         -43.2182    -6.2750    14.4419 C.3     
 132 C132         -44.6713    -6.1806    13.9723 C.3     
 133 C133         -45.5725    -5.8543    15.1649 C.3     
 134 C134         -47.0061    -5.6371    14.6764 C.3     
 135 C135         -45.0976    -7.5170    13.3615 C.3     
 136 O136         -43.7812    -7.4795    16.5223 O.3     
 137 C137           2.6662     5.7420    -8.7255 C.2     
 138 O138           2.6125     6.9386    -8.5353 O.2     
 139 C139          20.3994     8.2752   -14.2306 C.3     
 140 C140          19.1077     8.9101   -13.7115 C.3     
 141 C141          18.0478     7.8240   -13.5172 C.3     
 142 C142          16.7562     8.4589   -12.9981 C.3     
 143 C143          15.6962     7.3727   -12.8038 C.3     
 144 C144          14.4046     8.0077   -12.2847 C.3     
 145 C145          13.3447     6.9215   -12.0903 C.3     
 146 C146          12.0530     7.5564   -11.5713 C.3     
 147 C147          10.9931     6.4703   -11.3769 C.3     
 148 C148           9.7015     7.1052   -10.8579 C.3     
 149 C149           8.6416     6.0191   -10.6635 C.3     
 150 C150           7.3499     6.6540   -10.1445 C.3     
 151 C151           6.2900     5.5678    -9.9501 C.3     
 152 C152           4.9983     6.2028    -9.4311 C.3     
 153 C153           3.9384     5.1166    -9.2367 C.3     
 154 H154           1.6310     4.0145    -8.6317 H       
 155 H155           0.5953     6.4077    -7.3174 H       
 156 H156          -0.6645     5.2824    -9.8590 H       
 157 H157          -1.6086     7.4703    -7.9515 H       
 158 H158          -2.3854     7.0322    -9.4919 H       
 159 H159          -2.3569     5.8671    -8.1465 H       
 160 H160           1.2519     6.8084   -10.2429 H       
 161 H161          -0.2816     7.5763   -10.7194 H       
 162 H162           0.4974     8.0227    -9.1825 H       
 163 H163          -1.5438     5.8795    -6.1841 H       
 164 H164          -2.4055     3.0881    -6.4103 H       
 165 H165          -0.6344     3.0719    -4.6457 H       
 166 H166          -1.5522     4.3013    -3.7432 H       
 167 H167          -3.5151     2.7168    -3.7082 H       
 168 H168          -3.1211     0.3603    -4.2921 H       
 169 H169          -2.8075     1.3929    -5.7076 H       
 170 H170          -1.4471     0.7371    -4.7655 H       
 171 H171          -1.8641     2.9047    -1.8215 H       
 172 H172          -2.5978     1.2879    -1.9468 H       
 173 H173          -0.9429     1.5627    -2.5418 H       
 174 H174          -4.5266     2.8051    -4.9870 H       
 175 H175          -5.7795     5.4168    -4.4182 H       
 176 H176          -7.8129     4.7971    -5.6325 H       
 177 H177          -5.3135     4.3807    -7.3345 H       
 178 H178          -6.9217     4.8368    -7.9461 H       
 179 H179          -6.0195     5.9543    -6.8947 H       
 180 H180          -6.3959     2.3677    -6.3532 H       
 181 H181          -8.2130     4.7211    -3.4249 H       
 182 H182          -7.6639     2.4632    -1.5857 H       
 183 H183          -8.5736     5.2711    -0.8103 H       
 184 H184          -8.5063     3.8790     0.2969 H       
 185 H185          -6.5170     6.2337    -1.7196 H       
 186 H186          -4.1266     6.6682    -1.3253 H       
 187 H187          -2.4238     5.9466     1.0348 H       
 188 H188          -4.0087     3.4395     1.4723 H       
 189 H189          -6.4017     3.0175     1.0795 H       
 190 H190          -9.9298     2.2322    -0.1453 H       
 191 H191         -12.2588     2.9038    -1.7738 H       
 192 H192         -12.9656     0.5819    -2.0937 H       
 193 H193         -11.3494     0.8016    -2.8062 H       
 194 H194         -11.4527    -1.1375    -1.4152 H       
 195 H195         -14.2925     1.6179    -0.5601 H       
 196 H196         -13.7537     1.2988     2.2922 H       
 197 H197         -15.3663     3.0631     2.9550 H       
 198 H198         -13.1287     4.0404     1.1236 H       
 199 H199         -13.9471     5.0221     2.3624 H       
 200 H200         -12.9635     3.6194     2.8451 H       
 201 H201         -16.5832     3.1319     0.9007 H       
 202 H202         -16.0576     0.8252     3.4345 H       
 203 H203         -17.7458    -0.5898     1.4494 H       
 204 H204         -16.6586    -1.7151     4.0696 H       
 205 H205         -17.8616    -2.5198     3.0336 H       
 206 H206         -14.6887    -3.9306     1.8905 H       
 207 H207         -19.8308    -1.4979     2.8954 H       
 208 H208         -20.5009     0.3801     5.0288 H       
 209 H209         -21.9957     0.3352     2.3694 H       
 210 H210         -22.5807     1.1430     3.8437 H       
 211 H211         -20.5403     2.5515     3.8816 H       
 212 H212         -19.9553     1.7437     2.4073 H       
 213 H213         -21.9603     2.5320     1.1798 H       
 214 H214         -22.5453     3.3398     2.6541 H       
 215 H215         -19.9320     4.2627     2.1109 H       
 216 H216         -22.9632     5.8490     0.0389 H       
 217 H217         -19.6921     6.3793     1.0464 H       
 218 H218         -20.9738     7.0336     0.1793 H       
 219 H219         -23.0881    -0.1469     5.5688 H       
 220 H220         -23.7227    -2.9301     4.9536 H       
 221 H221         -23.0564    -1.9983     7.7814 H       
 222 H222         -23.8348    -3.5494     7.3858 H       
 223 H223         -21.1276    -2.6458     6.3073 H       
 224 H224         -21.8280    -4.6429     8.5068 H       
 225 H225         -20.1960    -4.3330     7.8675 H       
 226 H226         -21.0629    -3.0547     8.7522 H       
 227 H227         -22.3710    -4.2188     4.8485 H       
 228 H228         -20.9599    -5.0128     5.5878 H       
 229 H229         -22.5919    -5.3228     6.2272 H       
 230 H230         -25.8621    -3.4659     6.5023 H       
 231 H231         -27.3939    -1.0343     7.0204 H       
 232 H232         -28.1659    -3.0092     4.8266 H       
 233 H233         -29.2398    -1.7444     5.4710 H       
 234 H234         -27.6008    -0.0097     4.7978 H       
 235 H235         -26.5269    -1.2745     4.1534 H       
 236 H236         -28.2968    -1.9657     2.5602 H       
 237 H237         -29.3708    -0.7009     3.2047 H       
 238 H238         -26.9493     0.5114     2.4024 H       
 239 H239         -29.6541    -0.3494    -0.4155 H       
 240 H240         -26.8998     1.6255     0.2984 H       
 241 H241         -28.0422     1.2539    -0.8761 H       
 242 H242         -29.8707    -1.9348     7.5836 H       
 243 H243         -29.7558    -4.6201     8.7253 H       
 244 H244         -29.9920    -2.1215    10.4602 H       
 245 H245         -30.3184    -3.7778    11.0244 H       
 246 H246         -28.0016    -4.4355    10.4343 H       
 247 H247         -27.6751    -2.7792     9.8701 H       
 248 H248         -28.1565    -1.9103    12.1421 H       
 249 H249         -28.4829    -3.5666    12.7063 H       
 250 H250         -26.1661    -4.2243    12.1162 H       
 251 H251         -25.8396    -2.5680    11.5520 H       
 252 H252         -26.6533    -3.2687    14.2970 H       
 253 H253         -25.1043    -2.8971    13.8191 H       
 254 H254         -32.0477    -4.8281    10.1277 H       
 255 H255         -34.1233    -3.1335     8.9668 H       
 256 H256         -33.9259    -6.1164     8.3566 H       
 257 H257         -35.3584    -5.1113     8.0313 H       
 258 H258         -35.2398    -3.4784     5.9587 H       
 259 H259         -33.5764    -3.1560     4.0569 H       
 260 H260         -30.9004    -3.9805     3.4105 H       
 261 H261         -29.0521    -5.3084     4.3291 H       
 262 H262         -29.2763    -6.4218     6.5091 H       
 263 H263         -31.3456    -6.2236     7.7946 H       
 264 H264         -36.4246    -4.2754     9.7811 H       
 265 H265         -36.0395    -5.6765    12.3142 H       
 266 H266         -37.1909    -2.8546    12.1724 H       
 267 H267         -37.2969    -3.9188    13.5953 H       
 268 H268         -34.8221    -4.0434    13.6865 H       
 269 H269         -34.7160    -2.9793    12.2636 H       
 270 H270         -33.2556    -2.2731    15.1272 H       
 271 H271         -33.1496    -1.2090    13.7043 H       
 272 H272         -33.6517    -0.5443    15.2773 H       
 273 H273         -38.5081    -5.7597    13.3920 H       
 274 H274         -40.5465    -5.7361    11.3011 H       
 275 H275         -39.6023    -8.3171    12.6262 H       
 276 H276         -41.0896    -8.1627    11.6606 H       
 277 H277         -37.4182    -8.1681    11.5763 H       
 278 H278         -36.1101    -8.4739     9.5127 H       
 279 H279         -37.2380    -8.4423     7.3241 H       
 280 H280         -39.6740    -8.1058     7.1991 H       
 281 H281         -40.9833    -7.8084     9.2633 H       
 282 H282         -42.6919    -6.8705    12.4730 H       
 283 H283         -42.9421    -5.3545    14.9563 H       
 284 H284         -44.7607    -5.3938    13.2233 H       
 285 H285         -45.5516    -6.6824    15.8734 H       
 286 H286         -45.2142    -4.9486    15.6540 H       
 287 H287         -47.0270    -4.8090    13.9679 H       
 288 H288         -47.3644    -6.5429    14.1873 H       
 289 H289         -47.6481    -5.4047    15.5260 H       
 290 H290         -46.1328    -7.4498    13.0269 H       
 291 H291         -44.4555    -7.7495    12.5119 H       
 292 H292         -45.0082    -8.3039    14.1105 H       
 293 H293         -43.6522    -8.2478    17.0951 H       
 294 H294          20.7590     7.5415   -13.5091 H       
 295 H295          20.2048     7.7827   -15.1833 H       
 296 H296          21.1545     9.0490   -14.3690 H       
 297 H297          19.3023     9.4026   -12.7588 H       
 298 H298          18.7481     9.6438   -14.4330 H       
 299 H299          17.8533     7.3315   -14.4699 H       
 300 H300          18.4075     7.0903   -12.7957 H       
 301 H301          16.9507     8.9514   -12.0454 H       
 302 H302          16.3965     9.1925   -13.7196 H       
 303 H303          15.5017     6.8803   -13.7565 H       
 304 H304          16.0559     6.6391   -12.0823 H       
 305 H305          14.5991     8.5001   -11.3320 H       
 306 H306          14.0449     8.7413   -13.0062 H       
 307 H307          13.1501     6.4290   -13.0431 H       
 308 H308          13.7043     6.1879   -11.3689 H       
 309 H309          12.2476     8.0489   -10.6186 H       
 310 H310          11.6934     8.2901   -12.2928 H       
 311 H311          10.7986     5.9778   -12.3297 H       
 312 H312          11.3528     5.7366   -10.6555 H       
 313 H313           9.8960     7.5977    -9.9052 H       
 314 H314           9.3418     7.8389   -11.5794 H       
 315 H315           8.4470     5.5266   -11.6163 H       
 316 H316           9.0012     5.2854    -9.9421 H       
 317 H317           7.5444     7.1464    -9.1918 H       
 318 H318           6.9903     7.3876   -10.8660 H       
 319 H319           6.0955     5.0754   -10.9029 H       
 320 H320           6.6496     4.8342    -9.2287 H       
 321 H321           5.1929     6.6952    -8.4784 H       
 322 H322           4.6387     6.9364   -10.1526 H       
 323 H323           4.2981     4.3829    -8.5153 H       
 324 H324           3.7439     4.6241   -10.1895 H       
@<TRIPOS>BOND
   1    1    2 2
   2    1    4 1
   3    1   10 am
   4    3  137 am
   5    3    4 1
   6    3  154 1
   7    4    5 1
   8    4  155 1
   9    5    6 1
  10    5    7 1
  11    5  156 1
  12    6  157 1
  13    6  158 1
  14    6  159 1
  15    7  160 1
  16    7  161 1
  17    7  162 1
  18    8    9 2
  19    8   11 1
  20    8   18 am
  21   10   11 1
  22   10  163 1
  23   11   12 1
  24   11  164 1
  25   12   13 1
  26   12  165 1
  27   12  166 1
  28   13   14 1
  29   13   15 1
  30   13  167 1
  31   14  168 1
  32   14  169 1
  33   14  170 1
  34   15  171 1
  35   15  172 1
  36   15  173 1
  37   16   17 2
  38   16   19 1
  39   16   25 am
  40   18   19 1
  41   18  174 1
  42   19   20 1
  43   19  175 1
  44   20   21 1
  45   20   22 1
  46   20  176 1
  47   21  177 1
  48   21  178 1
  49   21  179 1
  50   22  180 1
  51   23   24 2
  52   23   26 1
  53   23   37 am
  54   25   26 1
  55   25  181 1
  56   26   27 1
  57   26  182 1
  58   27   28 1
  59   27  183 1
  60   27  184 1
  61   28   29 ar
  62   28   34 ar
  63   29   30 ar
  64   29  185 1
  65   30   31 ar
  66   30  186 1
  67   31   32 1
  68   31   33 ar
  69   32  187 1
  70   33   34 ar
  71   33  188 1
  72   34  189 1
  73   35   36 2
  74   35   38 1
  75   35   43 am
  76   37   38 1
  77   37  190 1
  78   38   39 1
  79   38  191 1
  80   39   40 1
  81   39  192 1
  82   39  193 1
  83   40  194 1
  84   41   42 2
  85   41   44 1
  86   41   50 am
  87   43   44 1
  88   43  195 1
  89   44   45 1
  90   44  196 1
  91   45   46 1
  92   45   47 1
  93   45  197 1
  94   46  198 1
  95   46  199 1
  96   46  200 1
  97   47  201 1
  98   48   49 2
  99   48   51 1
 100   48   58 am
 101   50   51 1
 102   50  202 1
 103   51   52 1
 104   51  203 1
 105   52   53 1
 106   52  204 1
 107   52  205 1
 108   53   54 2
 109   53   55 1
 110   55  206 1
 111   56   57 2
 112   56   59 1
 113   56   69 am
 114   58   59 1
 115   58  207 1
 116   59   60 1
 117   59  208 1
 118   60   61 1
 119   60  209 1
 120   60  210 1
 121   61   62 1
 122   61  211 1
 123   61  212 1
 124   62   63 1
 125   62  213 1
 126   62  214 1
 127   63   64 1
 128   63  215 1
 129   64   65 2
 130   64   66 1
 131   65  216 1
 132   66  217 1
 133   66  218 1
 134   67   68 2
 135   67   70 1
 136   67   77 am
 137   69   70 1
 138   69  219 1
 139   70   71 1
 140   70  220 1
 141   71   72 1
 142   71  221 1
 143   71  222 1
 144   72   73 1
 145   72   74 1
 146   72  223 1
 147   73  224 1
 148   73  225 1
 149   73  226 1
 150   74  227 1
 151   74  228 1
 152   74  229 1
 153   75   76 2
 154   75   78 1
 155   75   88 am
 156   77   78 1
 157   77  230 1
 158   78   79 1
 159   78  231 1
 160   79   80 1
 161   79  232 1
 162   79  233 1
 163   80   81 1
 164   80  234 1
 165   80  235 1
 166   81   82 1
 167   81  236 1
 168   81  237 1
 169   82   83 1
 170   82  238 1
 171   83   84 2
 172   83   85 1
 173   84  239 1
 174   85  240 1
 175   85  241 1
 176   86   87 2
 177   86   89 1
 178   86   97 am
 179   88   89 1
 180   88  242 1
 181   89   90 1
 182   89  243 1
 183   90   91 1
 184   90  244 1
 185   90  245 1
 186   91   92 1
 187   91  246 1
 188   91  247 1
 189   92   93 1
 190   92  248 1
 191   92  249 1
 192   93   94 1
 193   93  250 1
 194   93  251 1
 195   94  252 1
 196   94  253 1
 197   95   96 2
 198   95   98 1
 199   95  111 am
 200   97   98 1
 201   97  254 1
 202   98   99 1
 203   98  255 1
 204   99  100 1
 205   99  256 1
 206   99  257 1
 207  100  101 2
 208  100  108 1
 209  101  102 1
 210  101  258 1
 211  102  103 1
 212  102  259 1
 213  103  104 ar
 214  103  108 ar
 215  104  105 ar
 216  104  260 1
 217  105  106 ar
 218  105  261 1
 219  106  107 ar
 220  106  262 1
 221  107  108 ar
 222  107  263 1
 223  109  110 2
 224  109  112 1
 225  109  119 am
 226  111  112 1
 227  111  264 1
 228  112  113 1
 229  112  265 1
 230  113  114 1
 231  113  266 1
 232  113  267 1
 233  114  115 1
 234  114  268 1
 235  114  269 1
 236  115  116 1
 237  116  270 1
 238  116  271 1
 239  116  272 1
 240  117  118 2
 241  117  120 1
 242  117  130 am
 243  119  120 1
 244  119  273 1
 245  120  121 1
 246  120  274 1
 247  121  122 1
 248  121  275 1
 249  121  276 1
 250  122  123 ar
 251  122  127 ar
 252  123  124 ar
 253  123  277 1
 254  124  125 ar
 255  124  278 1
 256  125  126 ar
 257  125  279 1
 258  126  127 ar
 259  126  280 1
 260  127  281 1
 261  128  129 2
 262  128  131 1
 263  128  136 1
 264  130  131 1
 265  130  282 1
 266  131  132 1
 267  131  283 1
 268  132  133 1
 269  132  135 1
 270  132  284 1
 271  133  134 1
 272  133  285 1
 273  133  286 1
 274  134  287 1
 275  134  288 1
 276  134  289 1
 277  135  290 1
 278  135  291 1
 279  135  292 1
 280  136  293 1
 281  137  138 2
 282  137  153 1
 283  139  140 1
 284  139  294 1
 285  139  295 1
 286  139  296 1
 287  140  141 1
 288  140  297 1
 289  140  298 1
 290  141  142 1
 291  141  299 1
 292  141  300 1
 293  142  143 1
 294  142  301 1
 295  142  302 1
 296  143  144 1
 297  143  303 1
 298  143  304 1
 299  144  145 1
 300  144  305 1
 301  144  306 1
 302  145  146 1
 303  145  307 1
 304  145  308 1
 305  146  147 1
 306  146  309 1
 307  146  310 1
 308  147  148 1
 309  147  311 1
 310  147  312 1
 311  148  149 1
 312  148  313 1
 313  148  314 1
 314  149  150 1
 315  149  315 1
 316  149  316 1
 317  150  151 1
 318  150  317 1
 319  150  318 1
 320  151  152 1
 321  151  319 1
 322  151  320 1
 323  152  153 1
 324  152  321 1
 325  152  322 1
 326  153  323 1
 327  153  324 1

#	End of record

