#	Name: ASD01913218
#	Creating user name:	WinNT
#	Creation time:	15. 06. 2019 20:01

#	Modifying user name:	WinNT
#	Modification time:	15. 06. 2019 20:01

#	Program:	/corina/corina34_cracker 3.40 0067  02.08.2006

@<TRIPOS>MOLECULE
ASD01913218
  50   53    0    0    0
SMALL
NO_CHARGES


@<TRIPOS>ATOM
   1 N1             6.1837     0.0305    -3.1909 N.pl3   
   2 C2             5.6617    -1.2991    -2.8320 C.3     
   3 C3             4.5810    -1.1551    -1.7760 C.3     
   4 N4             3.4705    -0.3318    -2.2624 N.am    
   5 C5             3.6557     1.0901    -2.5511 C.3     
   6 C6             4.2419     1.2501    -3.9431 C.ar    
   7 C7             5.5208     0.7500    -4.1771 C.ar    
   8 C8             3.5389     1.8809    -4.9407 C.ar    
   9 C9             4.1256     2.0666    -6.1819 C.ar    
  10 C10            5.4151     1.6222    -6.4091 C.ar    
  11 C11            6.1139     0.9656    -5.4153 C.ar    
  12 C12            2.2596    -0.8939    -2.4472 C.2     
  13 O13            1.3076    -0.2010    -2.7503 O.2     
  14 C14            2.0890    -2.3510    -2.2816 C.ar    
  15 C15            3.0117    -3.2297    -2.8475 C.ar    
  16 C16            2.8454    -4.6036    -2.6879 C.ar    
  17 C17            1.7495    -5.0930    -1.9580 C.ar    
  18 C18            0.8377    -4.2091    -1.3993 C.ar    
  19 C19            1.0051    -2.8498    -1.5522 C.ar    
  20 C20            3.7879    -5.5136    -3.2660 C.1     
  21 C21            4.5606    -6.2597    -3.7400 C.1     
  22 C22            5.5031    -7.1697    -4.3182 C.ar    
  23 C23            5.3290    -8.5467    -4.1534 C.ar    
  24 C24            6.2478    -9.4117    -4.7184 C.ar    
  25 C25            7.3127    -8.8759    -5.4310 C.ar    
  26 C26            7.4253    -7.5035    -5.5556 C.ar    
  27 N27            6.5346    -6.6989    -5.0127 N.ar    
  28 O28            1.5825    -6.4294    -1.7999 O.3     
  29 C29            0.4461    -6.8565    -1.0460 C.3     
  30 H30            6.9660     0.3952    -2.7482 H       
  31 H31            5.2420    -1.7753    -3.7181 H       
  32 H32            6.4723    -1.9134    -2.4401 H       
  33 H33            4.2044    -2.1436    -1.5131 H       
  34 H34            5.0088    -0.6893    -0.8882 H       
  35 H35            2.6934     1.5995    -2.5011 H       
  36 H36            4.3357     1.5243    -1.8181 H       
  37 H37            2.5333     2.2301    -4.7582 H       
  38 H38            3.5764     2.5584    -6.9712 H       
  39 H39            5.8788     1.7897    -7.3700 H       
  40 H40            7.1204     0.6204    -5.6000 H       
  41 H41            3.8519    -2.8468    -3.4078 H       
  42 H42           -0.0043    -4.5877    -0.8389 H       
  43 H43            0.2941    -2.1672    -1.1106 H       
  44 H44            4.4892    -8.9295    -3.5925 H       
  45 H45            6.1400   -10.4805    -4.6078 H       
  46 H46            8.0470    -9.5258    -5.8836 H       
  47 H47            8.2530    -7.0853    -6.1091 H       
  48 H48            0.5044    -6.4473    -0.0375 H       
  49 H49           -0.4645    -6.5028    -1.5296 H       
  50 H50            0.4315    -7.9453    -0.9961 H       
@<TRIPOS>BOND
   1    1    2 1
   2    1    7 1
   3    1   30 1
   4    2    3 1
   5    2   31 1
   6    2   32 1
   7    3    4 1
   8    3   33 1
   9    3   34 1
  10    4    5 1
  11    4   12 am
  12    5    6 1
  13    5   35 1
  14    5   36 1
  15    6    7 ar
  16    6    8 ar
  17    7   11 ar
  18    8    9 ar
  19    8   37 1
  20    9   10 ar
  21    9   38 1
  22   10   11 ar
  23   10   39 1
  24   11   40 1
  25   12   13 2
  26   12   14 1
  27   14   15 ar
  28   14   19 ar
  29   15   16 ar
  30   15   41 1
  31   16   17 ar
  32   16   20 1
  33   17   18 ar
  34   17   28 1
  35   18   19 ar
  36   18   42 1
  37   19   43 1
  38   20   21 3
  39   21   22 1
  40   22   23 ar
  41   22   27 ar
  42   23   24 ar
  43   23   44 1
  44   24   25 ar
  45   24   45 1
  46   25   26 ar
  47   25   46 1
  48   26   27 ar
  49   26   47 1
  50   28   29 1
  51   29   48 1
  52   29   49 1
  53   29   50 1

#	End of record

