#	Name: ASD01412037
#	Creating user name:	WinNT
#	Creation time:	15. 06. 2019 19:19

#	Modifying user name:	WinNT
#	Modification time:	15. 06. 2019 19:19

#	Program:	/corina/corina34_cracker 3.40 0067  02.08.2006

@<TRIPOS>MOLECULE
ASD01412037
  82   86    0    0    0
SMALL
NO_CHARGES


@<TRIPOS>ATOM
   1 C1            -1.1719     3.2495    -0.6280 C.ar    
   2 C2            -0.9743     1.9109    -1.0237 C.ar    
   3 C3            -2.0425     1.0032    -0.9800 C.ar    
   4 C4            -3.2688     1.4144    -0.5564 C.ar    
   5 C5            -3.4748     2.7444    -0.1613 C.ar    
   6 C6            -2.4227     3.6580    -0.1933 C.ar    
   7 N7             0.0359     3.9017    -0.7731 N.pl3   
   8 C8             0.9677     3.0077    -1.2447 C.2     
   9 C9             0.3836     1.7929    -1.4059 C.2     
  10 C10            1.0604     0.5414    -1.9026 C.3     
  11 C11            0.9727    -0.5459    -0.8297 C.3     
  12 C12            1.6599    -1.8165    -1.3339 C.3     
  13 C13            0.9654    -2.3004    -2.6084 C.3     
  14 C14            1.0531    -1.2131    -3.6813 C.3     
  15 C15            0.3659     0.0575    -3.1771 C.3     
  16 C16           -4.8094     3.1768     0.2948 C.2     
  17 O17           -4.9909     4.3292     0.6379 O.2     
  18 N18           -5.8277     2.2946     0.3311 N.am    
  19 C19           -7.1531     2.7240     0.7840 C.3     
  20 C20           -8.1049     1.5569     0.7299 C.2     
  21 C21           -7.0588     3.2390     2.2216 C.3     
  22 C22           -7.6653     3.8425    -0.1258 C.3     
  23 C23           -8.8161    -0.4854    -0.2523 C.ar    
  24 O24           -8.9752     1.4448     1.5671 O.2     
  25 C25           -9.1918    -1.0738     0.9516 C.ar    
  26 C26          -10.0118    -2.1789     0.9534 C.ar    
  27 C27          -10.4686    -2.7110    -0.2585 C.ar    
  28 C28          -10.0883    -2.1154    -1.4672 C.ar    
  29 C29           -9.2676    -1.0108    -1.4593 C.ar    
  30 C30          -11.3439    -3.8912    -0.2618 C.2     
  31 C31          -12.3917    -3.9574     0.5886 C.2     
  32 N32           -7.9891     0.6377    -0.2490 N.am    
  33 C33            0.2840     5.3143    -0.4744 C.3     
  34 C34            2.3838     3.3203    -1.5317 C.ar    
  35 C35            3.3977     2.4597    -1.1117 C.ar    
  36 N36            4.6605     2.7357    -1.3660 N.ar    
  37 C37            5.0169     3.8277    -2.0233 C.ar    
  38 C38            4.0639     4.7338    -2.4741 C.ar    
  39 C39            2.7270     4.4825    -2.2348 C.ar    
  40 C40          -12.7901    -2.8061     1.3138 C.2     
  41 O41          -12.2160    -1.7480     1.1384 O.2     
  42 O42          -13.8059    -2.8840     2.1984 O.3     
  43 O43            6.3310     4.0665    -2.2600 O.3     
  44 C44            7.2640     3.1002    -1.7723 C.3     
  45 H45           -1.8920    -0.0225    -1.2830 H       
  46 H46           -4.0887     0.7122    -0.5247 H       
  47 H47           -2.5836     4.6816     0.1115 H       
  48 H48            2.1072     0.7555    -2.1181 H       
  49 H49            1.4675    -0.2011     0.0783 H       
  50 H50           -0.0741    -0.7600    -0.6141 H       
  51 H51            2.7067    -1.6024    -1.5495 H       
  52 H52            1.5974    -2.5911    -0.5696 H       
  53 H53            1.4549    -3.2056    -2.9677 H       
  54 H54           -0.0814    -2.5146    -2.3929 H       
  55 H55            2.0999    -0.9990    -3.8969 H       
  56 H56            0.5583    -1.5579    -4.5893 H       
  57 H57           -0.6809    -0.1567    -2.9615 H       
  58 H58            0.4284     0.8321    -3.9414 H       
  59 H59           -5.6830     1.3754     0.0573 H       
  60 H60           -6.3703     4.0831     2.2607 H       
  61 H61           -8.0449     3.5584     2.5586 H       
  62 H62           -6.6938     2.4422     2.8697 H       
  63 H63           -7.7325     3.4756    -1.1500 H       
  64 H64           -8.6515     4.1619     0.2112 H       
  65 H65           -6.9769     4.6866    -0.0867 H       
  66 H66           -8.8390    -0.6627     1.8860 H       
  67 H67          -10.3023    -2.6353     1.8881 H       
  68 H68          -10.4380    -2.5226    -2.4044 H       
  69 H69           -8.9741    -0.5505    -2.3912 H       
  70 H70          -11.1498    -4.7056    -0.9440 H       
  71 H71          -12.9259    -4.8874     0.7159 H       
  72 H72           -7.3306     0.7572    -0.9511 H       
  73 H73            0.5959     5.4165     0.5650 H       
  74 H74            1.0702     5.6914    -1.1284 H       
  75 H75           -0.6296     5.8860    -0.6374 H       
  76 H76            3.1453     1.5587    -0.5725 H       
  77 H77            4.3652     5.6222    -3.0093 H       
  78 H78            1.9655     5.1694    -2.5737 H       
  79 H79          -14.0047    -2.0489     2.6437 H       
  80 H80            7.1714     3.0200    -0.6892 H       
  81 H81            7.0556     2.1319    -2.2275 H       
  82 H82            8.2767     3.4116    -2.0283 H       
@<TRIPOS>BOND
   1    1    2 ar
   2    1    7 1
   3    1    6 ar
   4    2    3 ar
   5    2    9 1
   6    3    4 ar
   7    3   45 1
   8    4    5 ar
   9    4   46 1
  10    5    6 ar
  11    5   16 1
  12    6   47 1
  13    7    8 1
  14    7   33 1
  15    8    9 2
  16    8   34 1
  17    9   10 1
  18   10   11 1
  19   10   15 1
  20   10   48 1
  21   11   12 1
  22   11   49 1
  23   11   50 1
  24   12   13 1
  25   12   51 1
  26   12   52 1
  27   13   14 1
  28   13   53 1
  29   13   54 1
  30   14   15 1
  31   14   55 1
  32   14   56 1
  33   15   57 1
  34   15   58 1
  35   16   17 2
  36   16   18 am
  37   18   19 1
  38   18   59 1
  39   19   20 1
  40   19   21 1
  41   19   22 1
  42   20   24 2
  43   20   32 am
  44   21   60 1
  45   21   61 1
  46   21   62 1
  47   22   63 1
  48   22   64 1
  49   22   65 1
  50   23   25 ar
  51   23   29 ar
  52   23   32 1
  53   25   26 ar
  54   25   66 1
  55   26   27 ar
  56   26   67 1
  57   27   28 ar
  58   27   30 1
  59   28   29 ar
  60   28   68 1
  61   29   69 1
  62   30   31 2
  63   30   70 1
  64   31   40 1
  65   31   71 1
  66   32   72 1
  67   33   73 1
  68   33   74 1
  69   33   75 1
  70   34   35 ar
  71   34   39 ar
  72   35   36 ar
  73   35   76 1
  74   36   37 ar
  75   37   38 ar
  76   37   43 1
  77   38   39 ar
  78   38   77 1
  79   39   78 1
  80   40   41 2
  81   40   42 1
  82   42   79 1
  83   43   44 1
  84   44   80 1
  85   44   81 1
  86   44   82 1

#	End of record

