#	Name: ASD00170769
#	Creating user name:	WinNT
#	Creation time:	15. 06. 2019 18:32

#	Modifying user name:	WinNT
#	Modification time:	15. 06. 2019 18:32

#	Program:	/corina/corina34_cracker 3.40 0067  02.08.2006

@<TRIPOS>MOLECULE
ASD00170769
  57   61    0    0    0
SMALL
NO_CHARGES


@<TRIPOS>ATOM
   1 Cl1            1.6633     3.5127    -4.3922 Cl      
   2 C2             1.2504     4.1758    -2.8419 C.ar    
   3 C3             2.1794     4.1584    -1.8146 C.ar    
   4 C4             1.8573     4.6836    -0.5810 C.ar    
   5 C5             0.5918     5.2342    -0.3687 C.ar    
   6 C6            -0.3402     5.2493    -1.4082 C.ar    
   7 C7            -0.0048     4.7254    -2.6389 C.ar    
   8 C8             0.2400     5.7985     0.9517 C.2     
   9 O9             1.0271     5.7186     1.8771 O.2     
  10 C10           -1.0560     6.4538     1.1467 C.2     
  11 C11           -2.1443     5.8326     1.7102 C.2     
  12 S12           -3.4781     6.8909     1.7799 S.3     
  13 C13           -2.5775     8.2030     1.0411 C.2     
  14 C14           -1.3228     7.8231     0.7723 C.2     
  15 C15           -0.2982     8.7265     0.1358 C.3     
  16 C16            0.5050     9.4359     1.2278 C.3     
  17 C17            1.3265     8.4066     2.0067 C.3     
  18 C18            1.4448    10.4589     0.5866 C.3     
  19 C19           -0.4531    10.1514     2.1822 C.3     
  20 C20           -3.1283     9.5483     0.7598 C.2     
  21 C21           -4.4322     9.9316     0.8958 C.2     
  22 N22           -4.5143    11.2307     0.5394 N.pl3   
  23 N23           -3.2349    11.6661     0.1738 N.2     
  24 C24           -2.4014    10.6688     0.3087 C.2     
  25 N25           -2.1558     4.5204     2.1614 N.am    
  26 C26           -1.7318     4.1296     3.3768 C.2     
  27 O27           -1.2855     4.8582     4.2398 O.2     
  28 C28           -1.9004     2.6655     3.4861 C.ar    
  29 C29           -2.4474     2.2473     2.2557 C.ar    
  30 C30           -2.5978     3.4724     1.4430 C.2     
  31 O31           -3.0391     3.5235     0.3127 O.2     
  32 C32           -2.7247     0.9060     2.0454 C.ar    
  33 C33           -2.4619    -0.0154     3.0471 C.ar    
  34 C34           -1.9256     0.3947     4.2534 C.ar    
  35 C35           -1.6427     1.7329     4.4781 C.ar    
  36 H36            3.1579     3.7322    -1.9800 H       
  37 H37            2.5822     4.6688     0.2194 H       
  38 H38           -1.3206     5.6738    -1.2499 H       
  39 H39           -0.7247     4.7368    -3.4438 H       
  40 H40            0.3750     8.1331    -0.4829 H       
  41 H41           -0.8025     9.4679    -0.4840 H       
  42 H42            2.0091     7.8969     1.3268 H       
  43 H43            1.8987     8.9120     2.7847 H       
  44 H44            0.6570     7.6778     2.4635 H       
  45 H45            0.8595    11.1922     0.0317 H       
  46 H46            2.0170    10.9643     1.3646 H       
  47 H47            2.1274     9.9491    -0.0933 H       
  48 H48           -1.3119     9.5108     2.3829 H       
  49 H49            0.0623    10.3716     3.1171 H       
  50 H50           -0.7924    11.0817     1.7266 H       
  51 H51           -5.2493     9.3082     1.2276 H       
  52 H52           -5.3207    11.7698     0.5368 H       
  53 H53           -1.3415    10.6962     0.1034 H       
  54 H54           -3.1440     0.5800     1.1050 H       
  55 H55           -2.6781    -1.0609     2.8841 H       
  56 H56           -1.7257    -0.3328     5.0262 H       
  57 H57           -1.2242     2.0475     5.4227 H       
@<TRIPOS>BOND
   1    1    2 1
   2    2    3 ar
   3    2    7 ar
   4    3    4 ar
   5    3   36 1
   6    4    5 ar
   7    4   37 1
   8    5    6 ar
   9    5    8 1
  10    6    7 ar
  11    6   38 1
  12    7   39 1
  13    8    9 2
  14    8   10 1
  15   10   11 2
  16   10   14 1
  17   11   12 1
  18   11   25 1
  19   12   13 1
  20   13   14 2
  21   13   20 1
  22   14   15 1
  23   15   16 1
  24   15   40 1
  25   15   41 1
  26   16   17 1
  27   16   18 1
  28   16   19 1
  29   17   42 1
  30   17   43 1
  31   17   44 1
  32   18   45 1
  33   18   46 1
  34   18   47 1
  35   19   48 1
  36   19   49 1
  37   19   50 1
  38   20   21 2
  39   20   24 1
  40   21   22 1
  41   21   51 1
  42   22   23 1
  43   22   52 1
  44   23   24 2
  45   24   53 1
  46   25   26 am
  47   25   30 am
  48   26   27 2
  49   26   28 1
  50   28   29 ar
  51   28   35 ar
  52   29   30 1
  53   29   32 ar
  54   30   31 2
  55   32   33 ar
  56   32   54 1
  57   33   34 ar
  58   33   55 1
  59   34   35 ar
  60   34   56 1
  61   35   57 1

#	End of record

