#	Name: ASD09116465
#	Creating user name:	WinNT
#	Creation time:	15. 06. 2019 21:21

#	Modifying user name:	WinNT
#	Modification time:	15. 06. 2019 21:21

#	Program:	/corina/corina34_cracker 3.40 0067  02.08.2006

@<TRIPOS>MOLECULE
ASD09116465
  75   81    0    0    0
SMALL
NO_CHARGES


@<TRIPOS>ATOM
   1 N1             0.1405     1.3987     0.5245 N.2     
   2 N2             0.0920    -0.0038     0.4746 N.pl3   
   3 C3             1.4051     1.7351     0.6104 C.2     
   4 N4             2.1523     0.6249     0.6172 N.2     
   5 C5             1.3743    -0.4331     0.5358 C.2     
   6 N6             1.7924    -1.7501     0.5166 N.pl3   
   7 C7            -1.0527    -0.7985     0.3811 C.ar    
   8 N8             1.8929     3.0400     0.6825 N.pl3   
   9 C9             3.2624     3.2663     0.8675 C.ar    
  10 C10            3.8577     4.3999     0.3297 C.ar    
  11 C11            4.0242     2.3601     1.5936 C.ar    
  12 C12            5.3744     2.5835     1.7763 C.ar    
  13 C13            5.9706     3.7146     1.2344 C.ar    
  14 C14            5.2080     4.6233     0.5124 C.ar    
  15 N15           -0.9634    -2.0110    -0.1419 N.ar    
  16 C16           -2.0235    -2.7999    -0.2519 C.ar    
  17 C17           -3.2697    -2.3837     0.2035 C.ar    
  18 C18           -3.4063    -1.1091     0.7517 C.ar    
  19 C19           -2.2661    -0.3067     0.8435 C.ar    
  20 C20           -1.9190    -4.1345    -0.8910 C.ar    
  21 C21           -2.8348    -4.4832    -1.8829 C.ar    
  22 C22           -3.8708    -3.4821    -2.3168 C.3     
  23 C23           -4.9995    -3.3784    -1.2945 C.3     
  24 C24           -4.4411    -3.3217     0.1238 C.3     
  25 C25           -0.9281    -5.0335    -0.5109 C.ar    
  26 C26           -0.8683    -6.2772    -1.1085 C.ar    
  27 C27           -1.7908    -6.6266    -2.0786 C.ar    
  28 C28           -2.7731    -5.7319    -2.4647 C.ar    
  29 C29           -4.7237    -0.6210     1.2295 C.ar    
  30 C30           -5.4285    -1.3402     2.1926 C.ar    
  31 C31           -6.6534    -0.8816     2.6334 C.ar    
  32 C32           -7.1814     0.2897     2.1209 C.ar    
  33 C33           -6.4863     1.0074     1.1644 C.ar    
  34 C34           -5.2577     0.5613     0.7209 C.ar    
  35 N35            7.3392     3.9416     1.4205 N.3     
  36 C36            7.7598     5.1889     0.7670 C.3     
  37 C37            8.1324     2.8032     0.9361 C.3     
  38 C38            9.6133     3.0553     1.2292 C.3     
  39 N39           10.0340     4.3026     0.5758 N.3     
  40 C40            9.2407     5.4409     1.0601 C.3     
  41 C41           11.4703     4.5407     0.7710 C.3     
  42 H42            2.7383    -1.9594     0.5653 H       
  43 H43            1.1400    -2.4652     0.4545 H       
  44 H44            1.2835     3.7906     0.6046 H       
  45 H45            3.2646     5.1065    -0.2318 H       
  46 H46            3.5603     1.4808     2.0156 H       
  47 H47            5.9668     1.8788     2.3410 H       
  48 H48            5.6718     5.5028     0.0907 H       
  49 H49           -2.3295     0.6873     1.2611 H       
  50 H50           -3.3994    -2.5058    -2.4289 H       
  51 H51           -4.2853    -3.7901    -3.2767 H       
  52 H52           -5.5777    -2.4750    -1.4889 H       
  53 H53           -5.6504    -4.2475    -1.3893 H       
  54 H54           -4.1215    -4.3199     0.4230 H       
  55 H55           -5.2217    -2.9781     0.8025 H       
  56 H56           -0.2091    -4.7604     0.2472 H       
  57 H57           -0.0997    -6.9782    -0.8182 H       
  58 H58           -1.7439    -7.6034    -2.5370 H       
  59 H59           -3.4906    -6.0110    -3.2222 H       
  60 H60           -5.0173    -2.2550     2.5931 H       
  61 H61           -7.2007    -1.4384     3.3795 H       
  62 H62           -8.1402     0.6449     2.4686 H       
  63 H63           -6.9035     1.9209     0.7671 H       
  64 H64           -4.7158     1.1224    -0.0260 H       
  65 H65            7.6116     5.1033    -0.3094 H       
  66 H66            7.1667     6.0187     1.1513 H       
  67 H67            7.8110     1.8938     1.4437 H       
  68 H68            7.9884     2.6906    -0.1384 H       
  69 H69            9.7616     3.1408     2.3057 H       
  70 H70           10.2065     2.2255     0.8449 H       
  71 H71            9.5622     6.3504     0.5525 H       
  72 H72            9.3847     5.5535     2.1347 H       
  73 H73           12.0372     3.7138     0.3434 H       
  74 H74           11.7549     5.4700     0.2774 H       
  75 H75           11.6846     4.6152     1.8372 H       
@<TRIPOS>BOND
   1    1    2 1
   2    1    3 2
   3    2    7 1
   4    2    5 1
   5    3    4 1
   6    3    8 1
   7    4    5 2
   8    5    6 1
   9    6   42 1
  10    6   43 1
  11    7   15 ar
  12    7   19 ar
  13    8    9 1
  14    8   44 1
  15    9   10 ar
  16    9   11 ar
  17   10   14 ar
  18   10   45 1
  19   11   12 ar
  20   11   46 1
  21   12   13 ar
  22   12   47 1
  23   13   14 ar
  24   13   35 1
  25   14   48 1
  26   15   16 ar
  27   16   17 ar
  28   16   20 1
  29   17   18 ar
  30   17   24 1
  31   18   19 ar
  32   18   29 1
  33   19   49 1
  34   20   21 ar
  35   20   25 ar
  36   21   22 1
  37   21   28 ar
  38   22   23 1
  39   22   50 1
  40   22   51 1
  41   23   24 1
  42   23   52 1
  43   23   53 1
  44   24   54 1
  45   24   55 1
  46   25   26 ar
  47   25   56 1
  48   26   27 ar
  49   26   57 1
  50   27   28 ar
  51   27   58 1
  52   28   59 1
  53   29   30 ar
  54   29   34 ar
  55   30   31 ar
  56   30   60 1
  57   31   32 ar
  58   31   61 1
  59   32   33 ar
  60   32   62 1
  61   33   34 ar
  62   33   63 1
  63   34   64 1
  64   35   36 1
  65   35   37 1
  66   36   40 1
  67   36   65 1
  68   36   66 1
  69   37   38 1
  70   37   67 1
  71   37   68 1
  72   38   39 1
  73   38   69 1
  74   38   70 1
  75   39   40 1
  76   39   41 1
  77   40   71 1
  78   40   72 1
  79   41   73 1
  80   41   74 1
  81   41   75 1

#	End of record

