#	Name: ASD01200245
#	Creating user name:	WinNT
#	Creation time:	15. 06. 2019 19:08

#	Modifying user name:	WinNT
#	Modification time:	15. 06. 2019 19:08

#	Program:	/corina/corina34_cracker 3.40 0067  02.08.2006

@<TRIPOS>MOLECULE
ASD01200245
  43   45    0    0    0
SMALL
NO_CHARGES


@<TRIPOS>ATOM
   1 C1             0.2729     0.8379     0.0938 C.ar    
   2 C2             0.5136    -0.5231     0.0700 C.ar    
   3 C3             1.8119    -0.9945     0.0127 C.ar    
   4 C4             2.8693    -0.1048    -0.0212 C.ar    
   5 C5             2.6286     1.2562     0.0018 C.ar    
   6 C6             1.3304     1.7276     0.0604 C.ar    
   7 C7             3.7815     2.2260    -0.0342 C.3     
   8 C8             3.6588     3.1186    -1.2708 C.3     
   9 C9             3.7576     3.0809     1.2067 C.2     
  10 C10            3.8274     2.2688    -2.5319 C.3     
  11 N11            4.7807     3.9186     1.4676 N.am    
  12 O12            2.8179     3.0150     1.9705 O.2     
  13 C13            3.5743     3.1271    -3.7836 C.3     
  14 C14            4.8811     3.1075    -4.6031 C.3     
  15 C15            5.5941     1.8092    -4.1500 C.3     
  16 C16            5.2793     1.7575    -2.6343 C.3     
  17 C17            4.8053     4.6358     2.6581 C.2     
  18 S18            6.0367     5.7295     3.1171 S.3     
  19 C19            5.1952     6.0585     4.6295 C.2     
  20 C20            4.0802     5.3256     4.6505 C.2     
  21 N21            3.8953     4.5770     3.5793 N.2     
  22 N22           -0.6187    -1.4757     0.1062 N.pl3   
  23 O23           -1.7626    -1.0604     0.1571 O.2     
  24 O24           -0.4066    -2.6749     0.0852 O.2     
  25 H25           -0.7416     1.2062     0.1340 H       
  26 H26            2.0000    -2.0578    -0.0052 H       
  27 H27            3.8837    -0.4731    -0.0652 H       
  28 H28            1.1423     2.7909     0.0780 H       
  29 H29            4.7200     1.6734    -0.0767 H       
  30 H30            2.6773     3.5927    -1.2807 H       
  31 H31            4.4326     3.8857    -1.2434 H       
  32 H32            3.1351     1.4271    -2.5100 H       
  33 H33            5.4997     4.0210     0.8247 H       
  34 H34            2.7597     2.7015    -4.3697 H       
  35 H35            3.3313     4.1491    -3.4927 H       
  36 H36            4.6618     3.0698    -5.6701 H       
  37 H37            5.4915     3.9796    -4.3687 H       
  38 H38            5.1775     0.9412    -4.6609 H       
  39 H39            6.6686     1.8795    -4.3191 H       
  40 H40            5.9539     2.4116    -2.0820 H       
  41 H41            5.3505     0.7346    -2.2646 H       
  42 H42            5.5243     6.7351     5.4043 H       
  43 H43            3.3836     5.3463     5.4755 H       
@<TRIPOS>BOND
   1    1    2 ar
   2    1    6 ar
   3    1   25 1
   4    2    3 ar
   5    2   22 1
   6    3    4 ar
   7    3   26 1
   8    4    5 ar
   9    4   27 1
  10    5    6 ar
  11    5    7 1
  12    6   28 1
  13    7    8 1
  14    7    9 1
  15    7   29 1
  16    8   10 1
  17    8   30 1
  18    8   31 1
  19    9   11 am
  20    9   12 2
  21   10   13 1
  22   10   16 1
  23   10   32 1
  24   11   17 1
  25   11   33 1
  26   13   14 1
  27   13   34 1
  28   13   35 1
  29   14   15 1
  30   14   36 1
  31   14   37 1
  32   15   16 1
  33   15   38 1
  34   15   39 1
  35   16   40 1
  36   16   41 1
  37   17   18 1
  38   17   21 2
  39   18   19 1
  40   19   20 2
  41   19   42 1
  42   20   21 1
  43   20   43 1
  44   22   23 2
  45   22   24 2

#	End of record

