#	Name: ASD01917287
#	Creating user name:	WinNT
#	Creation time:	15. 06. 2019 20:09

#	Modifying user name:	WinNT
#	Modification time:	15. 06. 2019 20:09

#	Program:	/corina/corina34_cracker 3.40 0067  02.08.2006

@<TRIPOS>MOLECULE
ASD01917287
  50   53    0    0    0
SMALL
NO_CHARGES


@<TRIPOS>ATOM
   1 C1            -0.0158     1.3116     0.0093 C.ar    
   2 N2             0.0021    -0.0041     0.0020 N.ar    
   3 C3             1.1550    -0.6685    -0.0125 C.ar    
   4 C4             2.3492     0.0531    -0.0200 C.ar    
   5 C5             2.2795     1.4390    -0.0119 C.ar    
   6 N6             1.0941     2.0240     0.0025 N.ar    
   7 C7             1.1703    -2.1530    -0.0202 C.2     
   8 O8             2.2285    -2.7494    -0.0335 O.2     
   9 N9             0.0102    -2.8389    -0.0124 N.am    
  10 C10            0.0253    -4.3038    -0.0199 C.3     
  11 C11            0.7451    -4.8800    -1.2519 C.3     
  12 C12            0.9365    -6.3855    -1.0587 C.3     
  13 C13           -0.4094    -7.0635    -0.7951 C.3     
  14 C14           -1.0794    -6.3934     0.4173 C.3     
  15 C15           -0.0011    -6.2369     1.5142 C.3     
  16 C16            0.7064    -4.8987     1.2343 C.3     
  17 C17           -1.3933    -4.9320     0.0014 C.3     
  18 N18           -2.2574    -7.1281     0.8851 N.am    
  19 C19           -2.1369    -8.4083     1.2886 C.2     
  20 O20           -1.0510    -8.9533     1.2645 O.2     
  21 C21           -3.3283    -9.1513     1.7617 C.ar    
  22 C22           -3.1971   -10.4744     2.1776 C.ar    
  23 C23           -4.3204   -11.1562     2.6179 C.ar    
  24 C24           -5.5365   -10.4907     2.6270 C.ar    
  25 C25           -5.5934    -9.1740     2.1993 C.ar    
  26 N26           -4.5106    -8.5490     1.7910 N.ar    
  27 C27           -6.9131    -8.4464     2.2074 C.3     
  28 H28           -0.9670     1.8230     0.0165 H       
  29 H29            3.3028    -0.4537    -0.0315 H       
  30 H30            3.1821     2.0320    -0.0170 H       
  31 H31           -0.8348    -2.3627    -0.0017 H       
  32 H32            0.1435    -4.7002    -2.1429 H       
  33 H33            1.7173    -4.4001    -1.3637 H       
  34 H34            1.3845    -6.8103    -1.9570 H       
  35 H35            1.5999    -6.5590    -0.2114 H       
  36 H36           -1.0494    -6.9564    -1.6708 H       
  37 H37           -0.2500    -8.1212    -0.5853 H       
  38 H38           -0.4686    -6.2147     2.4987 H       
  39 H39            0.7137    -7.0577     1.4568 H       
  40 H40            1.7655    -5.0682     1.0406 H       
  41 H41            0.5832    -4.2252     2.0824 H       
  42 H42           -2.0264    -4.4424     0.7414 H       
  43 H43           -1.8512    -4.8967    -0.9871 H       
  44 H44           -3.1242    -6.6930     0.9044 H       
  45 H45           -2.2336   -10.9620     2.1567 H       
  46 H46           -4.2501   -12.1827     2.9461 H       
  47 H47           -6.4308   -10.9937     2.9640 H       
  48 H48           -7.0491    -7.9513     3.1689 H       
  49 H49           -6.9225    -7.7022     1.4110 H       
  50 H50           -7.7221    -9.1593     2.0481 H       
@<TRIPOS>BOND
   1    1    2 ar
   2    1    6 ar
   3    1   28 1
   4    2    3 ar
   5    3    4 ar
   6    3    7 1
   7    4    5 ar
   8    4   29 1
   9    5    6 ar
  10    5   30 1
  11    7    8 2
  12    7    9 am
  13    9   10 1
  14    9   31 1
  15   10   11 1
  16   10   16 1
  17   10   17 1
  18   11   12 1
  19   11   32 1
  20   11   33 1
  21   12   13 1
  22   12   34 1
  23   12   35 1
  24   13   14 1
  25   13   36 1
  26   13   37 1
  27   14   15 1
  28   14   17 1
  29   14   18 1
  30   15   16 1
  31   15   38 1
  32   15   39 1
  33   16   40 1
  34   16   41 1
  35   17   42 1
  36   17   43 1
  37   18   19 am
  38   18   44 1
  39   19   20 2
  40   19   21 1
  41   21   22 ar
  42   21   26 ar
  43   22   23 ar
  44   22   45 1
  45   23   24 ar
  46   23   46 1
  47   24   25 ar
  48   24   47 1
  49   25   26 ar
  50   25   27 1
  51   27   48 1
  52   27   49 1
  53   27   50 1

#	End of record

