#	Name: ASD02198345
#	Creating user name:	WinNT
#	Creation time:	15. 06. 2019 20:19

#	Modifying user name:	WinNT
#	Modification time:	15. 06. 2019 20:19

#	Program:	/corina/corina34_cracker 3.40 0067  02.08.2006

@<TRIPOS>MOLECULE
ASD02198345
  33   35    0    0    0
SMALL
NO_CHARGES


@<TRIPOS>ATOM
   1 C1            -0.0921     1.3340     0.1644 C.2     
   2 C2            -0.0981    -0.0488     0.1927 C.2     
   3 S3             1.5826     1.8647     0.2972 S.3     
   4 C4             2.1084     0.2409     0.3762 C.2     
   5 N5             1.0980    -0.5770     0.3065 N.2     
   6 N6            -1.2564    -0.8044     0.1094 N.pl3   
   7 C7            -1.2202     2.1670     0.0448 C.2     
   8 C8            -1.0734     3.6344     0.1721 C.ar    
   9 O9            -2.3184     1.6800    -0.1636 O.2     
  10 N10            3.4243    -0.1501     0.4975 N.pl3   
  11 C11           -1.9582     4.4870    -0.4892 C.ar    
  12 C12           -0.0532     4.1709     0.9585 C.ar    
  13 C13            0.0779     5.5395     1.0734 C.ar    
  14 C14           -0.7997     6.3795     0.4113 C.ar    
  15 C15           -1.8163     5.8538    -0.3662 C.ar    
  16 C16            3.7381    -1.4965     0.6613 C.ar    
  17 N17            2.7792    -2.4069     0.5909 N.ar    
  18 C18            3.0337    -3.6927     0.7398 C.ar    
  19 C19            4.3196    -4.1373     0.9768 C.ar    
  20 C20            5.3537    -3.2147     1.0578 C.ar    
  21 C21            5.0566    -1.8736     0.8916 C.ar    
  22 H22           -2.1172    -0.3649     0.0265 H       
  23 H23           -1.2066    -1.7728     0.1338 H       
  24 H24            4.1318     0.5128     0.4687 H       
  25 H25           -2.7522     4.0778    -1.0963 H       
  26 H26            0.6320     3.5162     1.4764 H       
  27 H27            0.8671     5.9560     1.6817 H       
  28 H28           -0.6933     7.4502     0.5050 H       
  29 H29           -2.4980     6.5148    -0.8808 H       
  30 H30            2.2261    -4.4069     0.6761 H       
  31 H31            4.5185    -5.1918     1.0982 H       
  32 H32            6.3679    -3.5369     1.2422 H       
  33 H33            5.8369    -1.1290     0.9480 H       
@<TRIPOS>BOND
   1    1    2 2
   2    1    3 1
   3    1    7 1
   4    2    6 1
   5    2    5 1
   6    3    4 1
   7    4    5 2
   8    4   10 1
   9    6   22 1
  10    6   23 1
  11    7    8 1
  12    7    9 2
  13    8   11 ar
  14    8   12 ar
  15   10   16 1
  16   10   24 1
  17   11   15 ar
  18   11   25 1
  19   12   13 ar
  20   12   26 1
  21   13   14 ar
  22   13   27 1
  23   14   15 ar
  24   14   28 1
  25   15   29 1
  26   16   17 ar
  27   16   21 ar
  28   17   18 ar
  29   18   19 ar
  30   18   30 1
  31   19   20 ar
  32   19   31 1
  33   20   21 ar
  34   20   32 1
  35   21   33 1

#	End of record

