#	Name: ASD01903253
#	Creating user name:	WinNT
#	Creation time:	15. 06. 2019 19:54

#	Modifying user name:	WinNT
#	Modification time:	15. 06. 2019 19:54

#	Program:	/corina/corina34_cracker 3.40 0067  02.08.2006

@<TRIPOS>MOLECULE
ASD01903253
  38   41    0    0    0
SMALL
NO_CHARGES


@<TRIPOS>ATOM
   1 S1             0.0343     1.7819     0.6233 S.3     
   2 C2             0.0796     0.0314     0.8106 C.2     
   3 N3             1.2944    -0.3888     0.6333 N.2     
   4 C4             2.2136     0.5270     0.3613 C.2     
   5 C5             1.7669     1.7928     0.3023 C.2     
   6 N6            -1.0129    -0.7729     1.1027 N.pl3   
   7 C7            -2.2662    -0.2052     1.2705 C.ar    
   8 C8             3.6389     0.1778     0.1377 C.2     
   9 C9             4.1783    -1.1302     0.0562 C.2     
  10 N10            5.4730    -1.0203    -0.1489 N.2     
  11 N11            5.7981     0.3403    -0.2043 N.pl3   
  12 C12            4.6661     1.0562    -0.0325 C.2     
  13 N13           -3.2983    -0.9875     1.5489 N.ar    
  14 C14           -4.5076    -0.4778     1.7156 C.ar    
  15 C15           -4.6866     0.8912     1.5956 C.ar    
  16 C16           -3.5849     1.6805     1.3035 C.ar    
  17 N17           -2.4023     1.1076     1.1540 N.ar    
  18 C18            3.4184    -2.3975     0.1808 C.ar    
  19 C19           -5.6764    -1.3750     2.0316 C.3     
  20 C20            2.1915    -2.5438    -0.4641 C.ar    
  21 C21            1.4888    -3.7256    -0.3450 C.ar    
  22 C22            1.9998    -4.7637     0.4131 C.ar    
  23 C23            3.2169    -4.6242     1.0554 C.ar    
  24 C24            3.9310    -3.4490     0.9387 C.ar    
  25 H25            2.3666     2.6666     0.0939 H       
  26 H26           -0.8995    -1.7323     1.1893 H       
  27 H27            6.6851     0.7065    -0.3456 H       
  28 H28            4.5897     2.1334    -0.0249 H       
  29 H29           -5.6632     1.3335     1.7264 H       
  30 H30           -3.6904     2.7507     1.2034 H       
  31 H31           -5.7726    -1.4794     3.1123 H       
  32 H32           -6.5893    -0.9389     1.6261 H       
  33 H33           -5.5128    -2.3558     1.5850 H       
  34 H34            1.7913    -1.7337    -1.0557 H       
  35 H35            0.5381    -3.8401    -0.8443 H       
  36 H36            1.4462    -5.6865     0.5042 H       
  37 H37            3.6111    -5.4379     1.6460 H       
  38 H38            4.8812    -3.3411     1.4406 H       
@<TRIPOS>BOND
   1    1    2 1
   2    1    5 1
   3    2    3 2
   4    2    6 1
   5    3    4 1
   6    4    5 2
   7    4    8 1
   8    5   25 1
   9    6    7 1
  10    6   26 1
  11    7   13 ar
  12    7   17 ar
  13    8    9 1
  14    8   12 2
  15    9   10 2
  16    9   18 1
  17   10   11 1
  18   11   12 1
  19   11   27 1
  20   12   28 1
  21   13   14 ar
  22   14   15 ar
  23   14   19 1
  24   15   16 ar
  25   15   29 1
  26   16   17 ar
  27   16   30 1
  28   18   20 ar
  29   18   24 ar
  30   19   31 1
  31   19   32 1
  32   19   33 1
  33   20   21 ar
  34   20   34 1
  35   21   22 ar
  36   21   35 1
  37   22   23 ar
  38   22   36 1
  39   23   24 ar
  40   23   37 1
  41   24   38 1

#	End of record

