#	Name: ASD03910044
#	Creating user name:	WinNT
#	Creation time:	15. 06. 2019 20:47

#	Modifying user name:	WinNT
#	Modification time:	15. 06. 2019 20:47

#	Program:	/corina/corina34_cracker 3.40 0067  02.08.2006

@<TRIPOS>MOLECULE
ASD03910044
  67   68    0    0    0
SMALL
NO_CHARGES


@<TRIPOS>ATOM
   1 C1             1.5312     0.9360     2.3288 C.ar    
   2 C2             2.0820     1.5804     3.4213 C.ar    
   3 C3             1.4762     2.7105     3.9390 C.ar    
   4 C4             0.3182     3.1989     3.3663 C.ar    
   5 C5            -0.2375     2.5541     2.2691 C.ar    
   6 C6             0.3767     1.4229     1.7478 C.ar    
   7 N7            -1.4106     3.0464     1.6866 N.am    
   8 C8            -1.6208     4.3757     1.6146 C.2     
   9 O9            -0.8265     5.1433     2.1155 O.2     
  10 C10           -2.8409     6.4141     0.9725 C.ar    
  11 C11           -2.2298     7.1445    -0.0299 C.ar    
  12 C12           -2.2315     8.5250     0.0205 C.ar    
  13 C13           -2.8472     9.1785     1.0781 C.ar    
  14 C14           -3.4597     8.4435     2.0826 C.ar    
  15 C15           -3.4552     7.0631     2.0276 C.ar    
  16 O16           -2.8499    10.5365     1.1302 O.3     
  17 C17           -3.4379    11.1403     2.2842 C.3     
  18 C18           -4.8669    10.6809     2.4185 C.2     
  19 C19            2.1946    -0.2953     1.7678 C.3     
  20 C20            2.0800     3.4096     5.1297 C.3     
  21 O21           -5.3598     9.9752     1.5642 O.2     
  22 N22           -5.5971    11.0543     3.4880 N.am    
  23 C23           -2.8429     4.9084     0.9118 C.3     
  24 C24           -2.6512    10.7307     3.5309 C.3     
  25 C25           -3.4034    12.6628     2.1367 C.3     
  26 C26           -6.9624    10.5501     3.6550 C.3     
  27 C27           -7.8801    11.6923     4.0074 C.2     
  28 O28           -8.6988    12.0786     3.2070 O.2     
  29 O29           -7.7881    12.2806     5.2104 O.3     
  30 S30           -6.9932     9.3199     4.9823 Du      
  31 C31           -6.0856     8.1609     3.9291 C.3     
  32 C32           -6.0909    10.4602     6.0601 C.3     
  33 C33           -7.0239     8.0897     6.3096 C.3     
  34 H34            2.9871     1.2000     3.8714 H       
  35 H35           -0.1548     4.0812     3.7716 H       
  36 H36           -0.0528     0.9194     0.8943 H       
  37 H37           -2.0726     2.4309     1.3346 H       
  38 H38           -1.7503     6.6352    -0.8528 H       
  39 H39           -1.7537     9.0950    -0.7625 H       
  40 H40           -3.9394     8.9499     2.9072 H       
  41 H41           -3.9319     6.4904     2.8094 H       
  42 H42            1.7947    -1.1807     2.2620 H       
  43 H43            1.9994    -0.3574     0.6972 H       
  44 H44            3.2697    -0.2384     1.9384 H       
  45 H45            2.7855     4.1667     4.7874 H       
  46 H46            1.2900     3.8855     5.7108 H       
  47 H47            2.6012     2.6824     5.7523 H       
  48 H48           -5.2186    11.6569     4.1472 H       
  49 H49           -2.8322     4.5867    -0.1296 H       
  50 H50           -3.7388     4.5262     1.4010 H       
  51 H51           -1.6201    11.0717     3.4381 H       
  52 H52           -3.1056    11.1833     4.4122 H       
  53 H53           -2.6674     9.6454     3.6304 H       
  54 H54           -4.0365    12.9614     1.3011 H       
  55 H55           -3.7697    13.1250     3.0534 H       
  56 H56           -2.3794    12.9867     1.9506 H       
  57 H57           -7.2959    10.0897     2.7250 H       
  58 H58           -8.3980    13.0091     5.3906 H       
  59 H59           -6.7903     7.4981     3.4268 H       
  60 H60           -5.5155     8.7165     3.1845 H       
  61 H61           -5.4046     7.5701     4.5417 H       
  62 H62           -5.5106     9.8913     6.7865 H       
  63 H63           -5.4197    11.0738     5.4592 H       
  64 H64           -6.7992    11.1024     6.5837 H       
  65 H65           -7.5453     8.5008     7.1740 H       
  66 H66           -7.5423     7.1953     5.9641 H       
  67 H67           -6.0026     7.8321     6.5900 H       
@<TRIPOS>BOND
   1    1    2 ar
   2    1   19 1
   3    1    6 ar
   4    2    3 ar
   5    2   34 1
   6    3    4 ar
   7    3   20 1
   8    4    5 ar
   9    4   35 1
  10    5    6 ar
  11    5    7 1
  12    6   36 1
  13    7    8 am
  14    7   37 1
  15    8    9 2
  16    8   23 1
  17   10   11 ar
  18   10   15 ar
  19   10   23 1
  20   11   12 ar
  21   11   38 1
  22   12   13 ar
  23   12   39 1
  24   13   14 ar
  25   13   16 1
  26   14   15 ar
  27   14   40 1
  28   15   41 1
  29   16   17 1
  30   17   18 1
  31   17   24 1
  32   17   25 1
  33   18   21 2
  34   18   22 am
  35   19   42 1
  36   19   43 1
  37   19   44 1
  38   20   45 1
  39   20   46 1
  40   20   47 1
  41   22   26 1
  42   22   48 1
  43   23   49 1
  44   23   50 1
  45   24   51 1
  46   24   52 1
  47   24   53 1
  48   25   54 1
  49   25   55 1
  50   25   56 1
  51   26   27 1
  52   26   30 1
  53   26   57 1
  54   27   28 2
  55   27   29 1
  56   29   58 1
  57   30   31 1
  58   30   32 1
  59   30   33 1
  60   31   59 1
  61   31   60 1
  62   31   61 1
  63   32   62 1
  64   32   63 1
  65   32   64 1
  66   33   65 1
  67   33   66 1
  68   33   67 1

#	End of record

