#	Name: ASD01914466
#	Creating user name:	WinNT
#	Creation time:	15. 06. 2019 20:03

#	Modifying user name:	WinNT
#	Modification time:	15. 06. 2019 20:03

#	Program:	/corina/corina34_cracker 3.40 0067  02.08.2006

@<TRIPOS>MOLECULE
ASD01914466
  50   54    0    0    0
SMALL
NO_CHARGES


@<TRIPOS>ATOM
   1 S1            -0.0218     1.7567     0.0117 S.3     
   2 C2             0.0021    -0.0041     0.0020 C.2     
   3 N3             1.2427    -0.4104    -0.0120 N.2     
   4 C4             2.1514     0.5291    -0.0156 C.2     
   5 C5             1.6885     1.7890    -0.0045 C.2     
   6 C6            -1.1843    -0.8763     0.0091 C.2     
   7 O7            -2.2981    -0.3879     0.0228 O.2     
   8 N8            -1.0360    -2.2158     0.0004 N.am    
   9 C9            -2.2163    -3.0836     0.0075 C.3     
  10 C10           -1.7729    -4.5479    -0.0048 C.3     
  11 C11           -3.0056    -5.4541     0.0026 C.3     
  12 C12           -3.8561    -5.1684    -1.2368 C.3     
  13 C13           -4.2995    -3.7041    -1.2245 C.3     
  14 C14           -5.1252    -3.4318     0.0345 C.3     
  15 C15           -4.2747    -3.7175     1.2738 C.3     
  16 C16           -3.0420    -2.8113     1.2665 C.3     
  17 C17           -3.8313    -5.1818     1.2616 C.3     
  18 C18           -3.0668    -2.7979    -1.2319 C.3     
  19 N19           -2.5810    -6.8562    -0.0091 N.am    
  20 C20           -3.5028    -7.8395    -0.0053 C.2     
  21 O21           -4.6865    -7.5629     0.0079 O.2     
  22 N22           -1.8245   -10.9814    -0.0380 N.pl3   
  23 N23           -1.8335    -9.6967    -0.0313 N.2     
  24 C24           -3.0747    -9.2531    -0.0171 C.2     
  25 C25           -3.9190   -10.3887    -0.0148 C.2     
  26 C26           -3.0882   -11.4573    -0.0283 C.2     
  27 C27           -0.6170   -11.8106    -0.0595 C.3     
  28 H28            3.2080     0.3057    -0.0266 H       
  29 H29            2.2983     2.6804    -0.0062 H       
  30 H30           -0.1477    -2.6054    -0.0105 H       
  31 H31           -1.1847    -4.7419    -0.9017 H       
  32 H32           -1.1670    -4.7514     0.8782 H       
  33 H33           -3.2678    -5.3624    -2.1337 H       
  34 H34           -4.7343    -5.8140    -1.2315 H       
  35 H35           -4.9054    -3.5006    -2.1074 H       
  36 H36           -5.4411    -2.3886     0.0432 H       
  37 H37           -6.0034    -4.0774     0.0397 H       
  38 H38           -4.8630    -3.5235     2.1707 H       
  39 H39           -2.4361    -3.0148     2.1494 H       
  40 H40           -3.3579    -1.7681     1.2752 H       
  41 H41           -4.7095    -5.8274     1.2668 H       
  42 H42           -3.2254    -5.3854     2.1445 H       
  43 H43           -3.3827    -1.7547    -1.2231 H       
  44 H44           -2.4786    -2.9919    -2.1288 H       
  45 H45           -1.6365    -7.0768    -0.0197 H       
  46 H46           -4.9988   -10.4003    -0.0038 H       
  47 H47           -3.3813   -12.4967    -0.0305 H       
  48 H48           -0.3031   -12.0219     0.9627 H       
  49 H49           -0.8285   -12.7472    -0.5755 H       
  50 H50            0.1791   -11.2799    -0.5816 H       
@<TRIPOS>BOND
   1    1    2 1
   2    1    5 1
   3    2    3 2
   4    2    6 1
   5    3    4 1
   6    4    5 2
   7    4   28 1
   8    5   29 1
   9    6    7 2
  10    6    8 am
  11    8    9 1
  12    8   30 1
  13    9   10 1
  14    9   16 1
  15    9   18 1
  16   10   11 1
  17   10   31 1
  18   10   32 1
  19   11   12 1
  20   11   17 1
  21   11   19 1
  22   12   13 1
  23   12   33 1
  24   12   34 1
  25   13   14 1
  26   13   18 1
  27   13   35 1
  28   14   15 1
  29   14   36 1
  30   14   37 1
  31   15   16 1
  32   15   17 1
  33   15   38 1
  34   16   39 1
  35   16   40 1
  36   17   41 1
  37   17   42 1
  38   18   43 1
  39   18   44 1
  40   19   20 am
  41   19   45 1
  42   20   21 2
  43   20   24 1
  44   22   23 1
  45   22   26 1
  46   22   27 1
  47   23   24 2
  48   24   25 1
  49   25   26 2
  50   25   46 1
  51   26   47 1
  52   27   48 1
  53   27   49 1
  54   27   50 1

#	End of record

