#	Name: ASD01812414
#	Creating user name:	WinNT
#	Creation time:	15. 06. 2019 19:28

#	Modifying user name:	WinNT
#	Modification time:	15. 06. 2019 19:28

#	Program:	/corina/corina34_cracker 3.40 0067  02.08.2006

@<TRIPOS>MOLECULE
ASD01812414
  62   66    0    0    0
SMALL
NO_CHARGES


@<TRIPOS>ATOM
   1 C1            -0.2210     1.1527     0.1202 C.ar    
   2 C2            -0.1186    -0.2365     0.1005 C.ar    
   3 C3             1.0972    -0.8487     0.0552 C.ar    
   4 C4             2.2662    -0.0725     0.0275 C.ar    
   5 C5             2.1680     1.3434     0.0469 C.ar    
   6 C6             0.8910     1.9400     0.0944 C.ar    
   7 C7             3.5398    -0.6709    -0.0188 C.ar    
   8 C8             4.6351     0.1429    -0.0434 C.ar    
   9 C9             4.4696     1.5361    -0.0223 C.ar    
  10 N10            3.2725     2.0877     0.0212 N.ar    
  11 C11            5.6681     2.4081    -0.0489 C.2     
  12 O12            6.7778     1.9146    -0.0886 O.2     
  13 N13            5.5270     3.7484    -0.0292 N.am    
  14 C14            6.7114     4.6101    -0.0555 C.3     
  15 C15            3.6896    -2.1703    -0.0402 C.3     
  16 C16            6.3755     5.9624     0.5807 C.3     
  17 C17            7.5945     6.8829     0.4779 C.3     
  18 O18            7.9678     7.0253    -0.8942 O.3     
  19 C19            8.3381     5.7994    -1.5283 C.3     
  20 C20            7.1490     4.8354    -1.5061 C.3     
  21 O21            6.0355     5.7720     1.9556 O.3     
  22 C22            3.5723    -2.6666    -1.4582 C.ar    
  23 C23            4.6989    -2.7778    -2.2584 C.ar    
  24 C24            4.5433    -3.2396    -3.5567 C.ar    
  25 C25            3.2795    -3.5713    -4.0065 C.ar    
  26 N26            2.2297    -3.4524    -3.2171 N.ar    
  27 C27            2.3409    -3.0223    -1.9757 C.ar    
  28 F28            0.7706     3.2855     0.1133 F       
  29 C29            3.0987    -4.0742    -5.4156 C.3     
  30 C30            4.0659    -3.3499    -6.3739 C.3     
  31 N31            4.9481    -4.4031    -6.9265 N.3     
  32 N32            4.1830    -5.6533    -6.8307 N.3     
  33 C33            3.5008    -5.5635    -5.5126 C.3     
  34 C34            5.3070    -4.1111    -8.3208 C.3     
  35 H35           -1.1974     1.6132     0.1519 H       
  36 H36           -1.0162    -0.8367     0.1217 H       
  37 H37            1.1615    -1.9267     0.0411 H       
  38 H38            5.6264    -0.2842    -0.0787 H       
  39 H39            4.6412     4.1423     0.0025 H       
  40 H40            7.5198     4.1360     0.5011 H       
  41 H41            4.6656    -2.4436     0.3609 H       
  42 H42            2.9069    -2.6223     0.5689 H       
  43 H43            5.5334     6.4130     0.0554 H       
  44 H44            7.3473     7.8609     0.8908 H       
  45 H45            8.4243     6.4510     1.0374 H       
  46 H46            8.6267     5.9969    -2.5607 H       
  47 H47            9.1777     5.3534    -0.9950 H       
  48 H48            7.4429     3.8842    -1.9498 H       
  49 H49            6.3226     5.2632    -2.0736 H       
  50 H50            5.8109     6.5888     2.4220 H       
  51 H51            5.6745    -2.5108    -1.8798 H       
  52 H52            5.3990    -3.3385    -4.2081 H       
  53 H53            1.4583    -2.9380    -1.3589 H       
  54 H54            2.0672    -3.9348    -5.7390 H       
  55 H55            3.5086    -2.8666    -7.1764 H       
  56 H56            4.6554    -2.6135    -5.8278 H       
  57 H57            3.5122    -5.7251    -7.5810 H       
  58 H58            4.1853    -5.8296    -4.7072 H       
  59 H59            2.6173    -6.2016    -5.4935 H       
  60 H60            5.8302    -3.1561    -8.3689 H       
  61 H61            5.9552    -4.9001    -8.7020 H       
  62 H62            4.4018    -4.0603    -8.9259 H       
@<TRIPOS>BOND
   1    1    2 ar
   2    1    6 ar
   3    1   35 1
   4    2    3 ar
   5    2   36 1
   6    3    4 ar
   7    3   37 1
   8    4    5 ar
   9    4    7 ar
  10    5    6 ar
  11    5   10 ar
  12    6   28 1
  13    7    8 ar
  14    7   15 1
  15    8    9 ar
  16    8   38 1
  17    9   10 ar
  18    9   11 1
  19   11   12 2
  20   11   13 am
  21   13   14 1
  22   13   39 1
  23   14   16 1
  24   14   20 1
  25   14   40 1
  26   15   22 1
  27   15   41 1
  28   15   42 1
  29   16   17 1
  30   16   21 1
  31   16   43 1
  32   17   18 1
  33   17   44 1
  34   17   45 1
  35   18   19 1
  36   19   20 1
  37   19   46 1
  38   19   47 1
  39   20   48 1
  40   20   49 1
  41   21   50 1
  42   22   23 ar
  43   22   27 ar
  44   23   24 ar
  45   23   51 1
  46   24   25 ar
  47   24   52 1
  48   25   26 ar
  49   25   29 1
  50   26   27 ar
  51   27   53 1
  52   29   30 1
  53   29   33 1
  54   29   54 1
  55   30   31 1
  56   30   55 1
  57   30   56 1
  58   31   32 1
  59   31   34 1
  60   32   33 1
  61   32   57 1
  62   33   58 1
  63   33   59 1
  64   34   60 1
  65   34   61 1
  66   34   62 1

#	End of record

