#	Name: ASD08150476
#	Creating user name:	WinNT
#	Creation time:	15. 06. 2019 21:16

#	Modifying user name:	WinNT
#	Modification time:	15. 06. 2019 21:16

#	Program:	/corina/corina34_cracker 3.40 0067  02.08.2006

@<TRIPOS>MOLECULE
ASD08150476
  40   44    0    0    0
SMALL
NO_CHARGES


@<TRIPOS>ATOM
   1 N1             1.0095     3.1215    -1.6839 N.am    
   2 C2             1.4503     2.5159    -2.8036 C.2     
   3 C3             2.6575     1.7880    -2.8054 C.2     
   4 C4             3.3964     1.6877    -1.6712 C.2     
   5 C5             2.9360     2.3239    -0.4913 C.ar    
   6 C6             3.6640     2.2511     0.7117 C.ar    
   7 N7             3.2367     2.8386     1.7987 N.ar    
   8 C8             2.0925     3.5386     1.8336 C.ar    
   9 C9             1.2957     3.6651     0.6692 C.ar    
  10 C10            1.7297     3.0404    -0.5234 C.ar    
  11 C11            0.1044     4.3961     0.7165 C.ar    
  12 C12           -0.2844     4.9903     1.9055 C.ar    
  13 C13            0.5089     4.8609     3.0534 C.ar    
  14 C14            1.6704     4.1536     3.0235 C.ar    
  15 O15            0.7961     2.5982    -3.8292 O.2     
  16 C16           -1.5472     5.7683     1.9641 C.2     
  17 C17           -0.1903     3.8433    -1.7093 C.ar    
  18 C18           -0.1785     5.2018    -1.9972 C.ar    
  19 C19           -1.3628     5.9116    -2.0222 C.ar    
  20 C20           -2.5616     5.2697    -1.7600 C.ar    
  21 C21           -2.5755     3.9151    -1.4722 C.ar    
  22 C22           -1.3941     3.2004    -1.4522 C.ar    
  23 F23           -3.7191     5.9660    -1.7845 F       
  24 C24           -1.7598     6.9075     2.6846 C.2     
  25 N25           -3.0320     7.2970     2.4657 N.pl3   
  26 N26           -3.6257     6.3805     1.5894 N.2     
  27 C27           -2.7422     5.4684     1.2812 C.2     
  28 H28            2.9954     1.3083    -3.7121 H       
  29 H29            4.3217     1.1308    -1.6677 H       
  30 H30            4.5922     1.6996     0.7371 H       
  31 H31           -0.5076     4.4969    -0.1676 H       
  32 H32            0.1940     5.3293     3.9742 H       
  33 H33            2.2695     4.0642     3.9177 H       
  34 H34            0.7562     5.7029    -2.2011 H       
  35 H35           -1.3541     6.9681    -2.2461 H       
  36 H36           -3.5114     3.4165    -1.2676 H       
  37 H37           -1.4053     2.1440    -1.2277 H       
  38 H38           -1.0397     7.4064     3.3161 H       
  39 H39           -3.4619     8.0773     2.8494 H       
  40 H40           -2.9026     4.6268     0.6237 H       
@<TRIPOS>BOND
   1    1    2 am
   2    1   10 1
   3    1   17 1
   4    2    3 1
   5    2   15 2
   6    3    4 2
   7    3   28 1
   8    4    5 1
   9    4   29 1
  10    5    6 ar
  11    5   10 ar
  12    6    7 ar
  13    6   30 1
  14    7    8 ar
  15    8    9 ar
  16    8   14 ar
  17    9   10 ar
  18    9   11 ar
  19   11   12 ar
  20   11   31 1
  21   12   13 ar
  22   12   16 1
  23   13   14 ar
  24   13   32 1
  25   14   33 1
  26   16   24 2
  27   16   27 1
  28   17   18 ar
  29   17   22 ar
  30   18   19 ar
  31   18   34 1
  32   19   20 ar
  33   19   35 1
  34   20   21 ar
  35   20   23 1
  36   21   22 ar
  37   21   36 1
  38   22   37 1
  39   24   25 1
  40   24   38 1
  41   25   26 1
  42   25   39 1
  43   26   27 2
  44   27   40 1

#	End of record

