#	Name: ASD01900179
#	Creating user name:	WinNT
#	Creation time:	15. 06. 2019 19:51

#	Modifying user name:	WinNT
#	Modification time:	15. 06. 2019 19:51

#	Program:	/corina/corina34_cracker 3.40 0067  02.08.2006

@<TRIPOS>MOLECULE
ASD01900179
  32   35    0    0    0
SMALL
NO_CHARGES


@<TRIPOS>ATOM
   1 N1            -0.0167     1.3833     0.0096 N.pl3   
   2 S2            -1.2739    -1.0589     0.1204 S.3     
   3 C3             0.0643    -0.0017    -0.0076 C.2     
   4 N4             1.1656    -0.6771    -0.1235 N.2     
   5 C5             1.0623    -1.9938    -0.1374 C.2     
   6 C6             2.1286    -3.0151    -0.3973 C.2     
   7 C7             1.8523    -4.1036    -1.2507 C.2     
   8 C8             0.5749    -4.2286    -2.0231 C.3     
   9 C9            -0.6129    -4.6638    -1.1474 C.3     
  10 C10           -0.5453    -3.8971     0.1833 C.3     
  11 C11           -0.2039    -2.4481     0.0354 C.2     
  12 N12            2.8998    -4.8756    -1.2485 N.2     
  13 N13            3.8867    -4.2836    -0.4439 N.pl3   
  14 C14            3.3863    -3.1284     0.0605 C.2     
  15 C15            3.4366     2.2848     0.0979 C.ar    
  16 N16            2.3340     1.5634     0.0984 N.ar    
  17 C17            1.1420     2.1459     0.0092 C.ar    
  18 C18            1.0753     3.5375    -0.0853 C.ar    
  19 C19            2.2570     4.2520    -0.0821 C.ar    
  20 N20            3.4072     3.5992     0.0100 N.ar    
  21 H21           -0.8837     1.8183     0.0180 H       
  22 H22            0.3427    -3.2649    -2.4765 H       
  23 H23            0.7143    -4.9631    -2.8164 H       
  24 H24           -1.5480    -4.4312    -1.6569 H       
  25 H25           -0.5535    -5.7352    -0.9561 H       
  26 H26           -1.5126    -3.9769     0.6794 H       
  27 H27            0.2061    -4.3678     0.8173 H       
  28 H28            4.7736    -4.6395    -0.2775 H       
  29 H29            3.9008    -2.4324     0.7064 H       
  30 H30            4.3909     1.7851     0.1760 H       
  31 H31            0.1234     4.0423    -0.1595 H       
  32 H32            2.2444     5.3296    -0.1536 H       
@<TRIPOS>BOND
   1    1    3 1
   2    1   17 1
   3    1   21 1
   4    2    3 1
   5    2   11 1
   6    3    4 2
   7    4    5 1
   8    5    6 1
   9    5   11 2
  10    6    7 1
  11    6   14 2
  12    7    8 1
  13    7   12 2
  14    8    9 1
  15    8   22 1
  16    8   23 1
  17    9   10 1
  18    9   24 1
  19    9   25 1
  20   10   11 1
  21   10   26 1
  22   10   27 1
  23   12   13 1
  24   13   14 1
  25   13   28 1
  26   14   29 1
  27   15   16 ar
  28   15   20 ar
  29   15   30 1
  30   16   17 ar
  31   17   18 ar
  32   18   19 ar
  33   18   31 1
  34   19   20 ar
  35   19   32 1

#	End of record

