#	Name: ASD08150171
#	Creating user name:	WinNT
#	Creation time:	15. 06. 2019 21:15

#	Modifying user name:	WinNT
#	Modification time:	15. 06. 2019 21:15

#	Program:	/corina/corina34_cracker 3.40 0067  02.08.2006

@<TRIPOS>MOLECULE
ASD08150171
  40   40    0    0    0
SMALL
NO_CHARGES


@<TRIPOS>ATOM
   1 O1            -0.0174     1.4331     0.0099 O.3     
   2 C2             0.0021    -0.0041     0.0020 C.3     
   3 N3             1.2790    -0.4518     0.5813 N.am    
   4 C4             2.0350     0.7773     0.9090 C.3     
   5 C5             1.3704     1.8405    -0.0011 C.3     
   6 C6             1.6786    -1.7243     0.7748 C.2     
   7 O7             0.9512    -2.6445     0.4576 O.2     
   8 O8             2.8838    -1.9759     1.3197 O.3     
   9 C9            -1.1608    -0.5407     0.8391 C.3     
  10 C10           -0.1197    -0.5140    -1.4353 C.3     
  11 C11            3.5153     0.6129     0.5589 C.3     
  12 O12            3.6568     0.4652    -0.8554 O.3     
  13 C13            5.0083     0.3040    -1.2906 C.3     
  14 C14            3.2483    -3.3700     1.4987 C.3     
  15 C15            3.2563    -4.0736     0.1401 C.3     
  16 C16            4.6410    -3.4565     2.1262 C.3     
  17 C17            2.2314    -4.0488     2.4186 C.3     
  18 H18            1.9121     1.0376     1.9603 H       
  19 H19            1.7792     1.7967    -1.0106 H       
  20 H20            1.4847     2.8386     0.4216 H       
  21 H21           -2.1042    -0.2113     0.4038 H       
  22 H22           -1.1271    -1.6301     0.8517 H       
  23 H23           -1.0794    -0.1629     1.8583 H       
  24 H24            0.7015    -0.1173    -2.0324 H       
  25 H25           -0.0785    -1.6032    -1.4391 H       
  26 H26           -1.0687    -0.1848    -1.8585 H       
  27 H27            4.0667     1.4932     0.8892 H       
  28 H28            3.9106    -0.2718     1.0580 H       
  29 H29            5.4345    -0.5871    -0.8299 H       
  30 H30            5.0305     0.1984    -2.3753 H       
  31 H31            5.5907     1.1779    -0.9987 H       
  32 H32            3.9807    -3.5899    -0.5152 H       
  33 H33            3.5299    -5.1201     0.2745 H       
  34 H34            2.2641    -4.0119    -0.3069 H       
  35 H35            4.6353    -2.9553     3.0941 H       
  36 H36            4.9146    -4.5030     2.2606 H       
  37 H37            5.3654    -2.9729     1.4709 H       
  38 H38            1.2392    -3.9872     1.9716 H       
  39 H39            2.5050    -5.0954     2.5530 H       
  40 H40            2.2257    -3.5476     3.3865 H       
@<TRIPOS>BOND
   1    1    2 1
   2    1    5 1
   3    2    3 1
   4    2    9 1
   5    2   10 1
   6    3    4 1
   7    3    6 am
   8    4    5 1
   9    4   11 1
  10    4   18 1
  11    5   19 1
  12    5   20 1
  13    6    7 2
  14    6    8 1
  15    8   14 1
  16    9   21 1
  17    9   22 1
  18    9   23 1
  19   10   24 1
  20   10   25 1
  21   10   26 1
  22   11   12 1
  23   11   27 1
  24   11   28 1
  25   12   13 1
  26   13   29 1
  27   13   30 1
  28   13   31 1
  29   14   15 1
  30   14   17 1
  31   14   16 1
  32   15   32 1
  33   15   33 1
  34   15   34 1
  35   16   35 1
  36   16   36 1
  37   16   37 1
  38   17   38 1
  39   17   39 1
  40   17   40 1

#	End of record

