#	Name: ASD08150636
#	Creating user name:	WinNT
#	Creation time:	15. 06. 2019 21:16

#	Modifying user name:	WinNT
#	Modification time:	15. 06. 2019 21:16

#	Program:	/corina/corina34_cracker 3.40 0067  02.08.2006

@<TRIPOS>MOLECULE
ASD08150636
  64   70    0    0    0
SMALL
NO_CHARGES


@<TRIPOS>ATOM
   1 N1            -0.0484     1.2825     0.1084 N.am    
   2 C2            -0.0027    -0.0113    -0.2643 C.2     
   3 C3             1.2188    -0.7144    -0.2899 C.2     
   4 C4             2.3726    -0.0923     0.0626 C.2     
   5 C5             2.3285     1.2691     0.4548 C.ar    
   6 C6             3.4959     1.9614     0.8293 C.ar    
   7 N7             3.4523     3.2173     1.1903 N.ar    
   8 C8             2.3066     3.9145     1.2254 C.ar    
   9 C9             1.0830     3.2981     0.8648 C.ar    
  10 C10            1.0959     1.9398     0.4698 C.ar    
  11 C11           -0.1056     4.0333     0.9052 C.ar    
  12 C12           -0.0733     5.3614     1.2989 C.ar    
  13 C13            1.1414     5.9645     1.6544 C.ar    
  14 C14            2.3056     5.2625     1.6201 C.ar    
  15 O15           -1.0319    -0.5819    -0.5833 O.2     
  16 C16           -1.3294     6.1486     1.3441 C.ar    
  17 C17           -1.2720     1.9595     0.1204 C.ar    
  18 C18           -1.8672     2.2952     1.3313 C.ar    
  19 C19           -3.0730     2.9617     1.3466 C.ar    
  20 C20           -3.6970     3.3006     0.1443 C.ar    
  21 C21           -3.0966     2.9625    -1.0697 C.ar    
  22 C22           -1.8878     2.3003    -1.0782 C.ar    
  23 C23           -4.9902     4.0149     0.1570 C.2     
  24 C24           -2.5257     5.6000     0.8552 C.ar    
  25 N25           -3.6487     6.2719     0.8820 N.ar    
  26 C26           -3.7130     7.5128     1.3761 C.ar    
  27 C27           -2.5475     8.1359     1.8893 C.ar    
  28 C28           -1.3320     7.4304     1.8751 C.ar    
  29 C29           -5.1000     5.1333    -0.5266 C.2     
  30 C30           -4.9284     8.2191     1.3953 C.ar    
  31 C31           -4.9692     9.4814     1.9023 C.ar    
  32 C32           -3.8223    10.0921     2.4059 C.ar    
  33 C33           -2.6269     9.4408     2.4047 C.ar    
  34 C34           -6.3641     5.9423    -0.5759 C.3     
  35 N35           -7.5039     5.1319    -0.1285 N.3     
  36 C36           -7.2035     4.5006     1.1670 C.3     
  37 C37           -6.1289     3.4309     0.9458 C.3     
  38 C38           -3.7665     3.3262    -2.3696 C.3     
  39 F39           -2.9795     2.8858    -3.4391 F       
  40 F40           -5.0236     2.7156    -2.4332 F       
  41 F41           -3.9184     4.7150    -2.4434 F       
  42 H42            1.2367    -1.7515    -0.5907 H       
  43 H43            3.3108    -0.6271     0.0448 H       
  44 H44            4.4446     1.4455     0.8186 H       
  45 H45           -1.0417     3.5697     0.6312 H       
  46 H46            1.1528     7.0005     1.9591 H       
  47 H47            3.2323     5.7429     1.8976 H       
  48 H48           -1.3841     2.0328     2.2609 H       
  49 H49           -3.5352     3.2216     2.2875 H       
  50 H50           -1.4208     2.0421    -2.0171 H       
  51 H51           -2.5192     4.6002     0.4471 H       
  52 H52           -0.4258     7.8757     2.2585 H       
  53 H53           -4.2409     5.4863    -1.0777 H       
  54 H54           -5.8269     7.7614     1.0084 H       
  55 H55           -5.9059    10.0188     1.9143 H       
  56 H56           -3.8825    11.0951     2.8019 H       
  57 H57           -1.7448     9.9241     2.7979 H       
  58 H58           -6.2621     6.8115     0.0739 H       
  59 H59           -6.5386     6.2774    -1.5983 H       
  60 H60           -8.3438     5.6884    -0.0735 H       
  61 H61           -6.8374     5.2535     1.8650 H       
  62 H62           -8.1051     4.0354     1.5655 H       
  63 H63           -6.5605     2.5901     0.4027 H       
  64 H64           -5.7566     3.0859     1.9104 H       
@<TRIPOS>BOND
   1    1    2 am
   2    1   10 1
   3    1   17 1
   4    2    3 1
   5    2   15 2
   6    3    4 2
   7    3   42 1
   8    4    5 1
   9    4   43 1
  10    5    6 ar
  11    5   10 ar
  12    6    7 ar
  13    6   44 1
  14    7    8 ar
  15    8    9 ar
  16    8   14 ar
  17    9   10 ar
  18    9   11 ar
  19   11   12 ar
  20   11   45 1
  21   12   13 ar
  22   12   16 1
  23   13   14 ar
  24   13   46 1
  25   14   47 1
  26   16   24 ar
  27   16   28 ar
  28   17   18 ar
  29   17   22 ar
  30   18   19 ar
  31   18   48 1
  32   19   20 ar
  33   19   49 1
  34   20   21 ar
  35   20   23 1
  36   21   22 ar
  37   21   38 1
  38   22   50 1
  39   23   29 2
  40   23   37 1
  41   24   25 ar
  42   24   51 1
  43   25   26 ar
  44   26   27 ar
  45   26   30 ar
  46   27   28 ar
  47   27   33 ar
  48   28   52 1
  49   29   34 1
  50   29   53 1
  51   30   31 ar
  52   30   54 1
  53   31   32 ar
  54   31   55 1
  55   32   33 ar
  56   32   56 1
  57   33   57 1
  58   34   35 1
  59   34   58 1
  60   34   59 1
  61   35   36 1
  62   35   60 1
  63   36   37 1
  64   36   61 1
  65   36   62 1
  66   37   63 1
  67   37   64 1
  68   38   39 1
  69   38   40 1
  70   38   41 1

#	End of record

