#	Name: ASD00840006
#	Creating user name:	WinNT
#	Creation time:	15. 06. 2019 18:37

#	Modifying user name:	WinNT
#	Modification time:	15. 06. 2019 18:37

#	Program:	/corina/corina34_cracker 3.40 0067  02.08.2006

@<TRIPOS>MOLECULE
ASD00840006
  31   32    0    0    0
SMALL
NO_CHARGES


@<TRIPOS>ATOM
   1 O1            -0.8338     1.1054    -0.5353 O.2     
   2 C2             0.0401     1.2349     0.2952 C.2     
   3 C3             1.2827     2.0210    -0.0349 C.3     
   4 C4             2.4899     1.1273     0.0878 C.ar    
   5 C5             3.7673     1.6533    -0.0279 C.ar    
   6 C6             4.8485     0.7934     0.0923 C.ar    
   7 C7             4.6184    -0.5497     0.3219 C.ar    
   8 N8             3.3889    -1.0153     0.4260 N.ar    
   9 C9             2.3376    -0.2263     0.3228 C.ar    
  10 C10            1.1848     2.5523    -1.4664 C.3     
  11 C11            1.4166     3.1952     0.9368 C.3     
  12 C12           -0.1154     0.6297     1.6276 C.ar    
  13 C13           -1.3204     0.0132     1.9952 C.ar    
  14 C14           -1.4138    -0.5407     3.2593 C.ar    
  15 C15           -0.3269    -0.4699     4.1123 C.ar    
  16 N16            0.7956     0.1164     3.7404 N.ar    
  17 C17            0.9377     0.6538     2.5474 C.ar    
  18 H18            3.9168     2.7077    -0.2079 H       
  19 H19            5.8577     1.1685     0.0073 H       
  20 H20            5.4551    -1.2260     0.4168 H       
  21 H21            1.3458    -0.6439     0.4136 H       
  22 H22            0.3615     3.2634    -1.5345 H       
  23 H23            2.1173     3.0493    -1.7340 H       
  24 H24            1.0060     1.7227    -2.1504 H       
  25 H25            1.5818     2.8154     1.9451 H       
  26 H26            2.2607     3.8179     0.6403 H       
  27 H27            0.5027     3.7889     0.9175 H       
  28 H28           -2.1537    -0.0276     1.3094 H       
  29 H29           -2.3262    -1.0233     3.5773 H       
  30 H30           -0.3982    -0.9015     5.0997 H       
  31 H31            1.8720     1.1248     2.2798 H       
@<TRIPOS>BOND
   1    1    2 2
   2    2    3 1
   3    2   12 1
   4    3    4 1
   5    3   10 1
   6    3   11 1
   7    4    5 ar
   8    4    9 ar
   9    5    6 ar
  10    5   18 1
  11    6    7 ar
  12    6   19 1
  13    7    8 ar
  14    7   20 1
  15    8    9 ar
  16    9   21 1
  17   10   22 1
  18   10   23 1
  19   10   24 1
  20   11   25 1
  21   11   26 1
  22   11   27 1
  23   12   13 ar
  24   12   17 ar
  25   13   14 ar
  26   13   28 1
  27   14   15 ar
  28   14   29 1
  29   15   16 ar
  30   15   30 1
  31   16   17 ar
  32   17   31 1

#	End of record

