#	Name: ASD09530032
#	Creating user name:	WinNT
#	Creation time:	15. 06. 2019 21:22

#	Modifying user name:	WinNT
#	Modification time:	15. 06. 2019 21:22

#	Program:	/corina/corina34_cracker 3.40 0067  02.08.2006

@<TRIPOS>MOLECULE
ASD09530032
  61   65    0    0    0
SMALL
NO_CHARGES


@<TRIPOS>ATOM
   1 C1            -0.0168     1.3842     0.0097 C.ar    
   2 C2             0.0021    -0.0041     0.0020 C.ar    
   3 C3             1.2154    -0.6790    -0.0132 C.ar    
   4 C4             2.3994     0.0320    -0.0207 C.ar    
   5 C5             2.3774     1.4146    -0.0126 C.ar    
   6 C6             1.1707     2.0896     0.0021 C.ar    
   7 C7             3.6712     2.1873    -0.0203 C.3     
   8 C8             4.0892     2.4530    -1.4436 C.2     
   9 N9             5.2245     3.1338    -1.6966 N.am    
  10 O10            3.4040     2.0541    -2.3613 O.2     
  11 C11            5.6308     3.3921    -3.0803 C.3     
  12 C12            6.5086     4.6162    -3.1259 C.ar    
  13 N13            7.1874     4.9701    -2.0524 N.ar    
  14 C14            7.9681     6.0325    -2.0435 C.ar    
  15 C15            8.1025     6.8216    -3.1762 C.ar    
  16 C16            7.4004     6.4770    -4.3270 C.ar    
  17 C17            6.5957     5.3498    -4.2945 C.ar    
  18 O18            8.9082     7.9161    -3.1622 O.3     
  19 C19            9.5938     8.2013    -1.9413 C.3     
  20 C20           10.4456     9.4601    -2.1167 C.3     
  21 C21            6.4068     2.1877    -3.6172 C.3     
  22 N22           -1.2009    -0.7225     0.0101 N.pl3   
  23 F23            9.6200    10.5390    -2.4510 F       
  24 F24           11.1168     9.7394    -0.9215 F       
  25 F25           11.3788     9.2530    -3.1382 F       
  26 C26           -1.6670    -1.5297    -0.9840 C.2     
  27 N27           -2.8150    -2.0392    -0.6441 N.2     
  28 C28           -3.1654    -1.5950     0.5905 C.ar    
  29 C29           -2.1331    -0.7493     1.0305 C.ar    
  30 C30           -4.2694    -1.8194     1.4172 C.ar    
  31 C31           -4.3392    -1.2127     2.6393 C.ar    
  32 C32           -3.3227    -0.3728     3.0717 C.ar    
  33 C33           -2.2203    -0.1430     2.2760 C.ar    
  34 C34           -0.9568    -1.7933    -2.2868 C.3     
  35 C35           -0.5794    -3.2414    -2.6052 C.3     
  36 C36           -1.7216    -2.5638    -3.3649 C.3     
  37 H37           -0.9590     1.9120     0.0170 H       
  38 H38            1.2332    -1.7588    -0.0188 H       
  39 H39            3.3435    -0.4924    -0.0325 H       
  40 H40            1.1567     3.1695     0.0084 H       
  41 H41            3.5317     3.1347     0.5003 H       
  42 H42            4.4443     1.6066     0.4830 H       
  43 H43            5.7726     3.4528    -0.9626 H       
  44 H44            4.7454     3.5568    -3.6942 H       
  45 H45            8.5084     6.2911    -1.1448 H       
  46 H46            7.4840     7.0713    -5.2249 H       
  47 H47            6.0363     5.0524    -5.1692 H       
  48 H48            8.8667     8.3627    -1.1454 H       
  49 H49           10.2370     7.3608    -1.6808 H       
  50 H50            5.7720     1.3023    -3.5842 H       
  51 H51            6.7092     2.3799    -4.6466 H       
  52 H52            7.2923     2.0230    -3.0032 H       
  53 H53           -5.0663    -2.4710     1.0905 H       
  54 H54           -5.1942    -1.3884     3.2752 H       
  55 H55           -3.3927     0.0994     4.0405 H       
  56 H56           -1.4318     0.5113     2.6173 H       
  57 H57           -0.2731    -1.0109    -2.6162 H       
  58 H58            0.3525    -3.4117    -3.1444 H       
  59 H59           -0.8447    -4.0034    -1.8724 H       
  60 H60           -2.7383    -2.8801    -3.1319 H       
  61 H61           -1.5412    -2.2883    -4.4040 H       
@<TRIPOS>BOND
   1    1    2 ar
   2    1    6 ar
   3    1   37 1
   4    2    3 ar
   5    2   22 1
   6    3    4 ar
   7    3   38 1
   8    4    5 ar
   9    4   39 1
  10    5    6 ar
  11    5    7 1
  12    6   40 1
  13    7    8 1
  14    7   41 1
  15    7   42 1
  16    8    9 am
  17    8   10 2
  18    9   11 1
  19    9   43 1
  20   11   12 1
  21   11   21 1
  22   11   44 1
  23   12   13 ar
  24   12   17 ar
  25   13   14 ar
  26   14   15 ar
  27   14   45 1
  28   15   16 ar
  29   15   18 1
  30   16   17 ar
  31   16   46 1
  32   17   47 1
  33   18   19 1
  34   19   20 1
  35   19   48 1
  36   19   49 1
  37   20   23 1
  38   20   24 1
  39   20   25 1
  40   21   50 1
  41   21   51 1
  42   21   52 1
  43   22   26 1
  44   22   29 1
  45   26   27 2
  46   26   34 1
  47   27   28 1
  48   28   29 ar
  49   28   30 ar
  50   29   33 ar
  51   30   31 ar
  52   30   53 1
  53   31   32 ar
  54   31   54 1
  55   32   33 ar
  56   32   55 1
  57   33   56 1
  58   34   35 1
  59   34   36 1
  60   34   57 1
  61   35   36 1
  62   35   58 1
  63   35   59 1
  64   36   60 1
  65   36   61 1

#	End of record

