#	Name: ASD01910422
#	Creating user name:	WinNT
#	Creation time:	15. 06. 2019 19:55

#	Modifying user name:	WinNT
#	Modification time:	15. 06. 2019 19:55

#	Program:	/corina/corina34_cracker 3.40 0067  02.08.2006

@<TRIPOS>MOLECULE
ASD01910422
  45   47    0    0    0
SMALL
NO_CHARGES


@<TRIPOS>ATOM
   1 C1            -0.2067     1.7356     0.3678 C.ar    
   2 N2            -0.2106     0.3549     0.1326 N.am    
   3 C3            -1.3576    -0.3443     0.2428 C.2     
   4 N4            -1.3844    -1.6511    -0.0859 N.am    
   5 O5            -2.3681     0.2039     0.6387 O.2     
   6 C6            -2.7834    -2.9205     1.4706 C.3     
   7 C7            -2.6312    -2.4110     0.0339 C.3     
   8 C8            -2.5968    -3.6033    -0.9249 C.3     
   9 C9            -3.9122    -4.3791    -0.8244 C.3     
  10 C10           -4.0789    -4.9108     0.6026 C.3     
  11 N11           -3.9680    -3.7867     1.5421 N.am    
  12 C12           -4.9347    -3.5543     2.4520 C.2     
  13 O13           -4.7960    -2.6693     3.2738 O.2     
  14 C14           -6.1630    -4.3751     2.4508 C.ar    
  15 C15           -6.0774    -5.7642     2.3349 C.ar    
  16 C16           -7.2265    -6.5253     2.3342 C.ar    
  17 C17           -8.4659    -5.9142     2.4484 C.ar    
  18 C18           -8.5566    -4.5353     2.5633 C.ar    
  19 C19           -7.4135    -3.7653     2.5713 C.ar    
  20 F20           -9.5892    -6.6648     2.4473 F       
  21 C21            0.9012     2.3389     0.9477 C.ar    
  22 C22            0.9031     3.7006     1.1788 C.ar    
  23 C23           -0.1990     4.4640     0.8325 C.ar    
  24 C24           -1.3050     3.8643     0.2541 C.ar    
  25 C25           -1.3085     2.5037     0.0160 C.ar    
  26 F26           -0.1955     5.7957     1.0598 F       
  27 H27            0.6122    -0.0982    -0.1096 H       
  28 H28           -0.5783    -2.0884    -0.4017 H       
  29 H29           -1.8973    -3.4892     1.7524 H       
  30 H30           -2.9078    -2.0748     2.1469 H       
  31 H31           -3.4752    -1.7679    -0.2154 H       
  32 H32           -2.4638    -3.2447    -1.9456 H       
  33 H33           -1.7674    -4.2589    -0.6596 H       
  34 H34           -4.7441    -3.7174    -1.0656 H       
  35 H35           -3.8963    -5.2144    -1.5244 H       
  36 H36           -5.0581    -5.3784     0.7062 H       
  37 H37           -3.2984    -5.6419     0.8136 H       
  38 H38           -5.1125    -6.2412     2.2455 H       
  39 H39           -7.1615    -7.5996     2.2442 H       
  40 H40           -9.5245    -4.0643     2.6517 H       
  41 H41           -7.4852    -2.6914     2.6613 H       
  42 H42            1.7609     1.7437     1.2182 H       
  43 H43            1.7646     4.1701     1.6301 H       
  44 H44           -2.1638     4.4614    -0.0149 H       
  45 H45           -2.1713     2.0363    -0.4351 H       
@<TRIPOS>BOND
   1    1    2 1
   2    1   21 ar
   3    1   25 ar
   4    2    3 am
   5    2   27 1
   6    3    4 am
   7    3    5 2
   8    4    7 1
   9    4   28 1
  10    6    7 1
  11    6   11 1
  12    6   29 1
  13    6   30 1
  14    7    8 1
  15    7   31 1
  16    8    9 1
  17    8   32 1
  18    8   33 1
  19    9   10 1
  20    9   34 1
  21    9   35 1
  22   10   11 1
  23   10   36 1
  24   10   37 1
  25   11   12 am
  26   12   13 2
  27   12   14 1
  28   14   15 ar
  29   14   19 ar
  30   15   16 ar
  31   15   38 1
  32   16   17 ar
  33   16   39 1
  34   17   18 ar
  35   17   20 1
  36   18   19 ar
  37   18   40 1
  38   19   41 1
  39   21   22 ar
  40   21   42 1
  41   22   23 ar
  42   22   43 1
  43   23   24 ar
  44   23   26 1
  45   24   25 ar
  46   24   44 1
  47   25   45 1

#	End of record

