#	Name: ASD03331140
#	Creating user name:	WinNT
#	Creation time:	15. 06. 2019 20:38

#	Modifying user name:	WinNT
#	Modification time:	15. 06. 2019 20:38

#	Program:	/corina/corina34_cracker 3.40 0067  02.08.2006

@<TRIPOS>MOLECULE
ASD03331140
  26   27    0    0    0
SMALL
NO_CHARGES


@<TRIPOS>ATOM
   1 C1            -0.0393     1.3725    -0.1422 C.2     
   2 N2             0.0230     0.0382     0.0375 N.am    
   3 O3             0.9823     2.0143    -0.2873 O.2     
   4 O4            -1.2340     1.9937    -0.1665 O.3     
   5 C5             3.6132    -0.6900     0.3300 C.ar    
   6 C6             2.4184    -0.0063     0.4192 C.ar    
   7 C7             1.2517    -0.6191    -0.0352 C.ar    
   8 C8             1.3442    -1.9056    -0.5638 C.ar    
   9 C9             2.5776    -2.5211    -0.6176 C.ar    
  10 N10            3.6597    -1.9075    -0.1770 N.ar    
  11 C11           -1.2226     3.3496    -0.2622 C.ar    
  12 C12           -0.9684     3.9579    -1.4828 C.ar    
  13 C13           -0.9579     5.3360    -1.5775 C.ar    
  14 C14           -1.2006     6.1091    -0.4571 C.ar    
  15 C15           -1.4538     5.5052     0.7606 C.ar    
  16 C16           -1.4710     4.1274     0.8594 C.ar    
  17 H17           -0.7864    -0.4652     0.2174 H       
  18 H18            4.5227    -0.2212     0.6755 H       
  19 H19            2.3873     0.9898     0.8355 H       
  20 H20            0.4626    -2.4136    -0.9257 H       
  21 H21            2.6586    -3.5180    -1.0252 H       
  22 H22           -0.7784     3.3545    -2.3581 H       
  23 H23           -0.7596     5.8101    -2.5275 H       
  24 H24           -1.1919     7.1863    -0.5332 H       
  25 H25           -1.6424     6.1112     1.6345 H       
  26 H26           -1.6733     3.6561     1.8099 H       
@<TRIPOS>BOND
   1    1    2 am
   2    1    3 2
   3    1    4 1
   4    2    7 1
   5    2   17 1
   6    4   11 1
   7    5    6 ar
   8    5   10 ar
   9    5   18 1
  10    6    7 ar
  11    6   19 1
  12    7    8 ar
  13    8    9 ar
  14    8   20 1
  15    9   10 ar
  16    9   21 1
  17   11   12 ar
  18   11   16 ar
  19   12   13 ar
  20   12   22 1
  21   13   14 ar
  22   13   23 1
  23   14   15 ar
  24   14   24 1
  25   15   16 ar
  26   15   25 1
  27   16   26 1

#	End of record

