#	Name: ASD01180043
#	Creating user name:	WinNT
#	Creation time:	15. 06. 2019 19:06

#	Modifying user name:	WinNT
#	Modification time:	15. 06. 2019 19:06

#	Program:	/corina/corina34_cracker 3.40 0067  02.08.2006

@<TRIPOS>MOLECULE
ASD01180043
  74   78    0    0    0
SMALL
NO_CHARGES


@<TRIPOS>ATOM
   1 C1            -0.0132     1.4804     0.0024 C.3     
   2 O2             0.0102     0.0517     0.0126 O.3     
   3 C3            -1.1910    -0.5854     0.0350 C.ar    
   4 C4            -2.3658     0.1485     0.0468 C.ar    
   5 C5            -3.5865    -0.5009     0.0696 C.ar    
   6 C6            -3.6379    -1.8820     0.0810 C.ar    
   7 C7            -2.4689    -2.6206     0.0693 C.ar    
   8 C8            -1.2429    -1.9764     0.0402 C.ar    
   9 O9            -0.0923    -2.7012     0.0287 O.3     
  10 C10           -0.2218    -4.1242     0.0478 C.3     
  11 C11           -4.8636     0.2991     0.0824 C.3     
  12 C12           -5.7001    -0.0480    -1.1511 C.3     
  13 C13           -7.0010     0.7150    -1.1117 C.2     
  14 C14           -7.5816     1.0392     0.0631 C.2     
  15 C15           -6.9867     0.6886     1.2875 C.2     
  16 O16           -7.5415     0.9856     2.3270 O.2     
  17 C17           -5.6759    -0.0481     1.3344 C.3     
  18 C18           -8.8914     1.7860     0.0945 C.3     
  19 C19           -9.1656     2.4474    -1.2242 C.2     
  20 C20           -8.5184     2.0730    -2.3398 C.2     
  21 N21           -7.5826     1.0761    -2.2971 N.pl3   
  22 C22           -8.8252     2.7558    -3.6477 C.3     
  23 C23          -10.1259     3.4866    -1.2938 C.2     
  24 O24           -9.8566     4.5942    -0.8654 O.2     
  25 N25          -11.3376     3.2493    -1.8341 N.am    
  26 C26          -12.3264     4.2405    -1.7986 C.ar    
  27 C27          -12.2931     5.2212    -0.8185 C.ar    
  28 C28          -13.2703     6.1985    -0.7855 C.ar    
  29 C29          -14.2819     6.2013    -1.7276 C.ar    
  30 C30          -14.3220     5.2264    -2.7076 C.ar    
  31 C31          -13.3433     4.2473    -2.7514 C.ar    
  32 O32          -13.3814     3.2881    -3.7145 O.3     
  33 C33          -14.4600     3.3504    -4.6499 C.3     
  34 C34          -10.0051     0.8191     0.4041 C.ar    
  35 C35          -10.7861     1.0019     1.5299 C.ar    
  36 C36          -11.8076     0.1149     1.8139 C.ar    
  37 C37          -12.0484    -0.9547     0.9719 C.ar    
  38 C38          -11.2679    -1.1369    -0.1544 C.ar    
  39 C39          -10.2492    -0.2475    -0.4407 C.ar    
  40 C40          -13.1613    -1.9222     1.2820 C.3     
  41 H41            1.0082     1.8605    -0.0154 H       
  42 H42           -0.5460     1.8288    -0.8825 H       
  43 H43           -0.5198     1.8419     0.8973 H       
  44 H44           -2.3284     1.2278     0.0386 H       
  45 H45           -4.5932    -2.3855     0.0995 H       
  46 H46           -2.5118    -3.6997     0.0783 H       
  47 H47           -0.7819    -4.4499    -0.8288 H       
  48 H48            0.7686    -4.5794     0.0358 H       
  49 H49           -0.7508    -4.4289     0.9508 H       
  50 H50           -4.6289     1.3635     0.0781 H       
  51 H51           -5.1482     0.2219    -2.0515 H       
  52 H52           -5.9071    -1.1181    -1.1599 H       
  53 H53           -5.8617    -1.1217     1.3624 H       
  54 H54           -5.1211     0.2509     2.2237 H       
  55 H55           -8.8514     2.5461     0.8747 H       
  56 H56           -7.3287     0.6206    -3.1150 H       
  57 H57           -8.2307     3.6656    -3.7309 H       
  58 H58           -8.5822     2.0863    -4.4728 H       
  59 H59           -9.8846     3.0093    -3.6855 H       
  60 H60          -11.5248     2.3921    -2.2476 H       
  61 H61          -11.5041     5.2212    -0.0810 H       
  62 H62          -13.2435     6.9614    -0.0216 H       
  63 H63          -15.0432     6.9667    -1.6979 H       
  64 H64          -15.1140     5.2313    -3.4419 H       
  65 H65          -14.4237     4.3000    -5.1836 H       
  66 H66          -14.3713     2.5298    -5.3618 H       
  67 H67          -15.4077     3.2687    -4.1175 H       
  68 H68          -10.5980     1.8375     2.1878 H       
  69 H69          -12.4174     0.2573     2.6939 H       
  70 H70          -11.4558    -1.9727    -0.8121 H       
  71 H71           -9.6394    -0.3899    -1.3207 H       
  72 H72          -14.0827    -1.5791     0.8114 H       
  73 H73          -12.9027    -2.9089     0.8977 H       
  74 H74          -13.3037    -1.9784     2.3612 H       
@<TRIPOS>BOND
   1    1    2 1
   2    1   41 1
   3    1   42 1
   4    1   43 1
   5    2    3 1
   6    3    4 ar
   7    3    8 ar
   8    4    5 ar
   9    4   44 1
  10    5    6 ar
  11    5   11 1
  12    6    7 ar
  13    6   45 1
  14    7    8 ar
  15    7   46 1
  16    8    9 1
  17    9   10 1
  18   10   47 1
  19   10   48 1
  20   10   49 1
  21   11   12 1
  22   11   17 1
  23   11   50 1
  24   12   13 1
  25   12   51 1
  26   12   52 1
  27   13   14 2
  28   13   21 1
  29   14   15 1
  30   14   18 1
  31   15   16 2
  32   15   17 1
  33   17   53 1
  34   17   54 1
  35   18   19 1
  36   18   34 1
  37   18   55 1
  38   19   20 2
  39   19   23 1
  40   20   21 1
  41   20   22 1
  42   21   56 1
  43   22   57 1
  44   22   58 1
  45   22   59 1
  46   23   24 2
  47   23   25 am
  48   25   26 1
  49   25   60 1
  50   26   27 ar
  51   26   31 ar
  52   27   28 ar
  53   27   61 1
  54   28   29 ar
  55   28   62 1
  56   29   30 ar
  57   29   63 1
  58   30   31 ar
  59   30   64 1
  60   31   32 1
  61   32   33 1
  62   33   65 1
  63   33   66 1
  64   33   67 1
  65   34   35 ar
  66   34   39 ar
  67   35   36 ar
  68   35   68 1
  69   36   37 ar
  70   36   69 1
  71   37   38 ar
  72   37   40 1
  73   38   39 ar
  74   38   70 1
  75   39   71 1
  76   40   72 1
  77   40   73 1
  78   40   74 1

#	End of record

