#	Name: ASD00170264
#	Creating user name:	WinNT
#	Creation time:	15. 06. 2019 18:31

#	Modifying user name:	WinNT
#	Modification time:	15. 06. 2019 18:31

#	Program:	/corina/corina34_cracker 3.40 0067  02.08.2006

@<TRIPOS>MOLECULE
ASD00170264
  28   30    0    0    0
SMALL
NO_CHARGES


@<TRIPOS>ATOM
   1 C1            -0.0381     1.3652    -0.1425 C.2     
   2 C2             0.0053     0.0022    -0.0033 C.2     
   3 C3            -1.3087    -0.6096     0.1735 C.ar    
   4 C4            -2.3376     0.3331     0.1630 C.ar    
   5 S5            -1.6876     1.9507    -0.0553 S.3     
   6 C6            -1.6604    -1.9648     0.3462 C.ar    
   7 C7            -2.9731    -2.3013     0.4945 C.ar    
   8 N8            -3.9227    -1.3821     0.4796 N.ar    
   9 C9            -3.6529    -0.1042     0.3217 C.ar    
  10 N10            1.0643     2.1656    -0.3205 N.pl3   
  11 C11            1.2100    -0.7419    -0.0287 C.2     
  12 C12            1.9165    -1.0489     1.2343 C.ar    
  13 O13            1.6645    -1.1291    -1.0905 O.2     
  14 C14            3.0432    -1.8727     1.2245 C.ar    
  15 C15            3.6976    -2.1554     2.4051 C.ar    
  16 C16            3.2387    -1.6241     3.5987 C.ar    
  17 C17            2.1212    -0.8066     3.6148 C.ar    
  18 C18            1.4623    -0.5114     2.4397 C.ar    
  19 Br19           4.1414    -2.0171     5.2132 Br      
  20 H20           -0.8969    -2.7286     0.3604 H       
  21 H21           -3.2424    -3.3389     0.6264 H       
  22 H22           -4.4588     0.6147     0.3159 H       
  23 H23            1.9542     1.7819    -0.2781 H       
  24 H24            0.9527     3.1143    -0.4887 H       
  25 H25            3.4016    -2.2882     0.2942 H       
  26 H26            4.5695    -2.7926     2.3987 H       
  27 H27            1.7677    -0.3954     4.5488 H       
  28 H28            0.5910     0.1266     2.4534 H       
@<TRIPOS>BOND
   1    1    2 2
   2    1   10 1
   3    1    5 1
   4    2    3 1
   5    2   11 1
   6    3    4 ar
   7    3    6 ar
   8    4    5 1
   9    4    9 ar
  10    6    7 ar
  11    6   20 1
  12    7    8 ar
  13    7   21 1
  14    8    9 ar
  15    9   22 1
  16   10   23 1
  17   10   24 1
  18   11   12 1
  19   11   13 2
  20   12   14 ar
  21   12   18 ar
  22   14   15 ar
  23   14   25 1
  24   15   16 ar
  25   15   26 1
  26   16   17 ar
  27   16   19 1
  28   17   18 ar
  29   17   27 1
  30   18   28 1

#	End of record

