#	Name: ASD00460011
#	Creating user name:	WinNT
#	Creation time:	15. 06. 2019 18:36

#	Modifying user name:	WinNT
#	Modification time:	15. 06. 2019 18:36

#	Program:	/corina/corina34_cracker 3.40 0067  02.08.2006

@<TRIPOS>MOLECULE
ASD00460011
  71   75    0    0    0
SMALL
NO_CHARGES


@<TRIPOS>ATOM
   1 C1             0.0180     1.3774     0.2843 C.ar    
   2 C2             0.0365    -0.0050     0.2758 C.ar    
   3 C3             1.2072    -0.6817    -0.0126 C.ar    
   4 C4             2.3628     0.0218    -0.2938 C.ar    
   5 C5             2.3487     1.4083    -0.2868 C.ar    
   6 C6             1.1719     2.0869     0.0036 C.ar    
   7 O7             3.4847     2.1024    -0.5628 O.3     
   8 C8             4.6575     1.3388    -0.8515 C.3     
   9 C9             5.8256     2.2855    -1.1346 C.3     
  10 C10            7.1079     1.4719    -1.3208 C.3     
  11 N11            8.2490     2.3843    -1.4735 N.3     
  12 C12            9.5004     1.6366    -1.6548 C.3     
  13 C13           10.6634     2.6186    -1.8100 C.3     
  14 C14           11.9471     1.8516    -1.9960 C.ar    
  15 O15            5.5574     3.0306    -2.3241 O.3     
  16 C16            9.7440     0.7464    -0.4345 C.3     
  17 C17            9.3972     0.7661    -2.9088 C.3     
  18 C18            1.2231    -2.1886    -0.0199 C.3     
  19 C19            1.3700    -2.7376     1.4321 C.3     
  20 C20            0.3051    -1.9515     2.2563 C.3     
  21 C21           -1.0534    -2.5024     1.7658 C.3     
  22 C22           -0.6813    -3.5694     0.6914 C.3     
  23 C23           -0.1354    -2.7394    -0.5104 C.3     
  24 C24            0.6576    -4.1288     1.2896 C.3     
  25 C25           -0.5863    -2.7620     3.1995 C.3     
  26 C26           12.3695     1.5094    -3.2669 C.ar    
  27 C27           13.5469     0.8052    -3.4390 C.ar    
  28 C28           14.3027     0.4428    -2.3406 C.ar    
  29 C29           13.8808     0.7855    -1.0669 C.ar    
  30 C30           12.7047     1.4955    -0.8961 C.ar    
  31 F31           14.6190     0.4317     0.0078 F       
  32 C32           15.5855    -0.3255    -2.5285 C.3     
  33 F33            1.1541     3.4377     0.0109 F       
  34 C34           -1.2881    -2.0150     4.3043 C.2     
  35 O35           -1.1355    -0.8218     4.4185 O.2     
  36 O36           -2.0827    -2.6751     5.1613 O.3     
  37 H37           -0.8987     1.9036     0.5059 H       
  38 H38           -0.8653    -0.5574     0.4952 H       
  39 H39            3.2766    -0.5080    -0.5186 H       
  40 H40            4.9001     0.7081     0.0038 H       
  41 H41            4.4774     0.7125    -1.7253 H       
  42 H42            5.9489     2.9712    -0.2964 H       
  43 H43            7.2649     0.8365    -0.4491 H       
  44 H44            7.0178     0.8505    -2.2118 H       
  45 H45            8.0982     3.0274    -2.2363 H       
  46 H46           10.4898     3.2528    -2.6794 H       
  47 H47           10.7369     3.2389    -0.9167 H       
  48 H48            5.4362     2.4833    -3.1121 H       
  49 H49            8.9155     0.0468    -0.3240 H       
  50 H50           10.6725     0.1916    -0.5691 H       
  51 H51            9.8175     1.3666     0.4588 H       
  52 H52            9.2237     1.4003    -3.7781 H       
  53 H53           10.3258     0.2113    -3.0433 H       
  54 H54            8.5687     0.0664    -2.7982 H       
  55 H55            2.0337    -2.5562    -0.6490 H       
  56 H56            2.3808    -2.7413     1.8401 H       
  57 H57            0.4775    -0.8899     2.4336 H       
  58 H58           -1.9111    -1.8586     1.5712 H       
  59 H59           -1.4571    -4.2976     0.4544 H       
  60 H60           -0.8148    -1.9203    -0.7463 H       
  61 H61            0.0062    -3.3796    -1.3812 H       
  62 H62            1.1760    -4.7838     0.5894 H       
  63 H63            0.5041    -4.6103     2.2554 H       
  64 H64           -0.2656    -3.7737     3.4477 H       
  65 H65           11.7792     1.7919    -4.1260 H       
  66 H66           13.8758     0.5380    -4.4325 H       
  67 H67           12.3746     1.7633     0.0967 H       
  68 H68           16.4146     0.3733    -2.6398 H       
  69 H69           15.7594    -0.9602    -1.6596 H       
  70 H70           15.5102    -0.9453    -3.4220 H       
  71 H71           -2.5114    -2.1532     5.8534 H       
@<TRIPOS>BOND
   1    1    2 ar
   2    1    6 ar
   3    1   37 1
   4    2    3 ar
   5    2   38 1
   6    3    4 ar
   7    3   18 1
   8    4    5 ar
   9    4   39 1
  10    5    6 ar
  11    5    7 1
  12    6   33 1
  13    7    8 1
  14    8    9 1
  15    8   40 1
  16    8   41 1
  17    9   10 1
  18    9   15 1
  19    9   42 1
  20   10   11 1
  21   10   43 1
  22   10   44 1
  23   11   12 1
  24   11   45 1
  25   12   13 1
  26   12   16 1
  27   12   17 1
  28   13   14 1
  29   13   46 1
  30   13   47 1
  31   14   26 ar
  32   14   30 ar
  33   15   48 1
  34   16   49 1
  35   16   50 1
  36   16   51 1
  37   17   52 1
  38   17   53 1
  39   17   54 1
  40   18   19 1
  41   18   23 1
  42   18   55 1
  43   19   20 1
  44   19   24 1
  45   19   56 1
  46   20   21 1
  47   20   25 1
  48   20   57 1
  49   21   22 1
  50   21   25 1
  51   21   58 1
  52   22   23 1
  53   22   24 1
  54   22   59 1
  55   23   60 1
  56   23   61 1
  57   24   62 1
  58   24   63 1
  59   25   34 1
  60   25   64 1
  61   26   27 ar
  62   26   65 1
  63   27   28 ar
  64   27   66 1
  65   28   29 ar
  66   28   32 1
  67   29   30 ar
  68   29   31 1
  69   30   67 1
  70   32   68 1
  71   32   69 1
  72   32   70 1
  73   34   35 2
  74   34   36 1
  75   36   71 1

#	End of record

