#	Name: ASD05313051
#	Creating user name:	WinNT
#	Creation time:	15. 06. 2019 20:58

#	Modifying user name:	WinNT
#	Modification time:	15. 06. 2019 20:58

#	Program:	/corina/corina34_cracker 3.40 0067  02.08.2006

@<TRIPOS>MOLECULE
ASD05313051
  40   43    0    0    0
SMALL
NO_CHARGES


@<TRIPOS>ATOM
   1 C1            -0.1372     1.5930     0.1671 C.2     
   2 C2            -0.1234     0.0834     0.1335 C.3     
   3 N3             0.9925     2.3594     0.1483 N.pl3   
   4 N4             1.2575    -0.3263    -0.1853 N.am    
   5 C5             2.3620     0.3686     0.4928 C.3     
   6 C6             2.3593     1.8459     0.0815 C.3     
   7 N7            -0.7514     3.6181     0.2413 N.2     
   8 N8            -1.1561     2.3947     0.2224 N.2     
   9 C9             0.5675     3.6533     0.1993 C.2     
  10 N10            0.9748     6.1573     0.1712 N.pl3   
  11 C11            1.4154     4.8573     0.2093 C.2     
  12 C12            2.7794     4.8799     0.2588 C.2     
  13 C13            3.1753     6.2257     0.2506 C.2     
  14 C14            2.0575     6.9835     0.1969 C.2     
  15 C15           -0.4251     6.5842     0.1074 C.3     
  16 C16            1.5001    -1.3107    -1.0734 C.2     
  17 O17            2.6422    -1.5618    -1.4054 O.2     
  18 C18            0.3778    -2.0847    -1.6434 C.ar    
  19 C19            0.2515    -2.2215    -3.0281 C.ar    
  20 C20           -0.8012    -2.9470    -3.5536 C.ar    
  21 C21           -1.7278    -3.5359    -2.7107 C.ar    
  22 C22           -1.6072    -3.4028    -1.3387 C.ar    
  23 C23           -0.5578    -2.6872    -0.8007 C.ar    
  24 Cl24          -0.9617    -3.1194    -5.2735 Cl      
  25 Cl25           1.4129    -1.4820    -4.0855 Cl      
  26 H26           -0.4140    -0.3132     1.1064 H       
  27 H27           -0.8058    -0.2780    -0.6357 H       
  28 H28            2.2326     0.2911     1.5723 H       
  29 H29            3.3096    -0.0873     0.2057 H       
  30 H30            2.7349     1.9414    -0.9373 H       
  31 H31            2.9955     2.4141     0.7601 H       
  32 H32            3.4328     4.0208     0.2972 H       
  33 H33            4.1912     6.5908     0.2821 H       
  34 H34            2.0277     8.0629     0.1776 H       
  35 H35           -0.8411     6.6175     1.1143 H       
  36 H36           -0.4826     7.5754    -0.3424 H       
  37 H37           -0.9933     5.8774    -0.4973 H       
  38 H38           -2.5488    -4.1016    -3.1257 H       
  39 H39           -2.3341    -3.8648    -0.6871 H       
  40 H40           -0.4632    -2.5888     0.2706 H       
@<TRIPOS>BOND
   1    1    2 1
   2    1    3 1
   3    1    8 2
   4    2    4 1
   5    2   26 1
   6    2   27 1
   7    3    6 1
   8    3    9 1
   9    4    5 1
  10    4   16 am
  11    5    6 1
  12    5   28 1
  13    5   29 1
  14    6   30 1
  15    6   31 1
  16    7    8 1
  17    7    9 2
  18    9   11 1
  19   10   11 1
  20   10   14 1
  21   10   15 1
  22   11   12 2
  23   12   13 1
  24   12   32 1
  25   13   14 2
  26   13   33 1
  27   14   34 1
  28   15   35 1
  29   15   36 1
  30   15   37 1
  31   16   17 2
  32   16   18 1
  33   18   19 ar
  34   18   23 ar
  35   19   20 ar
  36   19   25 1
  37   20   21 ar
  38   20   24 1
  39   21   22 ar
  40   21   38 1
  41   22   23 ar
  42   22   39 1
  43   23   40 1

#	End of record

