#	Name: ASD01028746
#	Creating user name:	WinNT
#	Creation time:	15. 06. 2019 18:58

#	Modifying user name:	WinNT
#	Modification time:	15. 06. 2019 18:58

#	Program:	/corina/corina34_cracker 3.40 0067  02.08.2006

@<TRIPOS>MOLECULE
ASD01028746
  16   17    0    0    0
SMALL
NO_CHARGES


@<TRIPOS>ATOM
   1 N1            -0.0157     1.3064     0.0092 N.ar    
   2 C2             0.0021    -0.0041     0.0020 C.ar    
   3 C3             1.2016    -0.7190    -0.0133 C.ar    
   4 C4             2.3942    -0.0508    -0.0211 C.ar    
   5 C5             2.3688     1.3574    -0.0132 C.ar    
   6 N6             3.4994     2.0684    -0.0197 N.ar    
   7 C7             3.4802     3.3799    -0.0120 C.ar    
   8 C8             2.2845     4.0929     0.0031 C.ar    
   9 C9             1.0911     3.4259     0.0104 C.ar    
  10 C10            1.1152     2.0160     0.0022 C.ar    
  11 F11            1.1834    -2.0699    -0.0199 F       
  12 Cl12          -0.4136     4.2915     0.0299 Cl      
  13 H13           -0.9333    -0.5439     0.0084 H       
  14 H14            3.3308    -0.5884    -0.0325 H       
  15 H15            4.4153     3.9202    -0.0173 H       
  16 H16            2.2997     5.1727     0.0094 H       
@<TRIPOS>BOND
   1    1    2 ar
   2    1   10 ar
   3    2    3 ar
   4    2   13 1
   5    3    4 ar
   6    3   11 1
   7    4    5 ar
   8    4   14 1
   9    5    6 ar
  10    5   10 ar
  11    6    7 ar
  12    7    8 ar
  13    7   15 1
  14    8    9 ar
  15    8   16 1
  16    9   10 ar
  17    9   12 1

#	End of record

