#	Name: ASD01882301
#	Creating user name:	WinNT
#	Creation time:	15. 06. 2019 19:44

#	Modifying user name:	WinNT
#	Modification time:	15. 06. 2019 19:44

#	Program:	/corina/corina34_cracker 3.40 0067  02.08.2006

@<TRIPOS>MOLECULE
ASD01882301
  56   60    0    0    0
SMALL
NO_CHARGES


@<TRIPOS>ATOM
   1 C1            -1.1392     1.4499     0.9856 C.2     
   2 N2            -1.2289     0.1301     1.0809 N.2     
   3 C3            -0.1440    -0.6318     1.2545 C.2     
   4 C4             1.1337    -0.0230     1.3396 C.2     
   5 C5             1.2122     1.3206     1.2413 C.2     
   6 N6             0.0711     2.0519     1.0642 N.pl3   
   7 O7            -2.1471     2.3311     0.8050 O.3     
   8 C8            -0.1036     3.5081     0.9306 C.3     
   9 C9            -1.6218     3.6849     0.7548 C.3     
  10 O10           -0.2530    -1.8454     1.3398 O.2     
  11 C11           -1.9288     4.3283    -0.5990 C.3     
  12 O12           -3.3401     4.5088    -0.7316 O.3     
  13 C13           -3.7843     5.0727    -1.8855 C.ar    
  14 C14           -5.1424     5.2773    -2.0810 C.ar    
  15 C15           -5.5914     5.8508    -3.2548 C.ar    
  16 C16           -4.6885     6.2207    -4.2344 C.ar    
  17 C17           -3.3345     6.0175    -4.0422 C.ar    
  18 C18           -2.8799     5.4501    -2.8675 C.ar    
  19 C19           -5.1811     6.8461    -5.5140 C.3     
  20 C20           -4.5468     6.1307    -6.7085 C.3     
  21 C21           -4.9349     4.6510    -6.6816 C.3     
  22 C22           -6.4574     4.5216    -6.7594 C.3     
  23 C23           -7.0917     5.2370    -5.5649 C.3     
  24 C24           -6.7036     6.7167    -5.5918 C.3     
  25 C25           -4.7988     8.3036    -5.5405 C.ar    
  26 C26           -5.1807     9.1372    -4.5060 C.ar    
  27 C27           -4.8300    10.4741    -4.5303 C.ar    
  28 C28           -4.0972    10.9773    -5.5889 C.ar    
  29 C29           -3.7145    10.1435    -6.6229 C.ar    
  30 C30           -4.0615     8.8057    -6.5965 C.ar    
  31 H31            2.0226    -0.6201     1.4801 H       
  32 H32            2.1704     1.8150     1.3025 H       
  33 H33            0.2410     4.0187     1.8298 H       
  34 H34            0.4265     3.8778     0.0529 H       
  35 H35           -2.0351     4.2846     1.5657 H       
  36 H36           -1.4312     5.2961    -0.6625 H       
  37 H37           -1.5684     3.6814    -1.3988 H       
  38 H38           -5.8481     4.9882    -1.3163 H       
  39 H39           -6.6487     6.0100    -3.4077 H       
  40 H40           -2.6312     6.3067    -4.8092 H       
  41 H41           -1.8218     5.2959    -2.7158 H       
  42 H42           -4.9030     6.5830    -7.6340 H       
  43 H43           -3.4621     6.2229    -6.6531 H       
  44 H44           -4.4830     4.1413    -7.5326 H       
  45 H45           -4.5786     4.1987    -5.7561 H       
  46 H46           -6.8137     4.9739    -7.6849 H       
  47 H47           -6.7339     3.4674    -6.7402 H       
  48 H48           -8.1764     5.1448    -5.6203 H       
  49 H49           -6.7355     4.7847    -4.6394 H       
  50 H50           -7.1555     7.2264    -4.7409 H       
  51 H51           -7.0599     7.1690    -6.5173 H       
  52 H52           -5.7532     8.7440    -3.6790 H       
  53 H53           -5.1290    11.1255    -3.7224 H       
  54 H54           -3.8238    12.0220    -5.6082 H       
  55 H55           -3.1422    10.5367    -7.4501 H       
  56 H56           -3.7594     8.1534    -7.4025 H       
@<TRIPOS>BOND
   1    1    2 2
   2    1    6 1
   3    1    7 1
   4    2    3 1
   5    3    4 1
   6    3   10 2
   7    4    5 2
   8    4   31 1
   9    5    6 1
  10    5   32 1
  11    6    8 1
  12    7    9 1
  13    8    9 1
  14    8   33 1
  15    8   34 1
  16    9   11 1
  17    9   35 1
  18   11   12 1
  19   11   36 1
  20   11   37 1
  21   12   13 1
  22   13   14 ar
  23   13   18 ar
  24   14   15 ar
  25   14   38 1
  26   15   16 ar
  27   15   39 1
  28   16   17 ar
  29   16   19 1
  30   17   18 ar
  31   17   40 1
  32   18   41 1
  33   19   20 1
  34   19   24 1
  35   19   25 1
  36   20   21 1
  37   20   42 1
  38   20   43 1
  39   21   22 1
  40   21   44 1
  41   21   45 1
  42   22   23 1
  43   22   46 1
  44   22   47 1
  45   23   24 1
  46   23   48 1
  47   23   49 1
  48   24   50 1
  49   24   51 1
  50   25   26 ar
  51   25   30 ar
  52   26   27 ar
  53   26   52 1
  54   27   28 ar
  55   27   53 1
  56   28   29 ar
  57   28   54 1
  58   29   30 ar
  59   29   55 1
  60   30   56 1

#	End of record

