#	Name: ASD01911976
#	Creating user name:	WinNT
#	Creation time:	15. 06. 2019 19:58

#	Modifying user name:	WinNT
#	Modification time:	15. 06. 2019 19:58

#	Program:	/corina/corina34_cracker 3.40 0067  02.08.2006

@<TRIPOS>MOLECULE
ASD01911976
  35   37    0    0    0
SMALL
NO_CHARGES


@<TRIPOS>ATOM
   1 C1             0.7744     1.1511    -0.1307 C.ar    
   2 C2             0.5665    -0.2262    -0.1275 C.ar    
   3 C3             1.6752    -1.0606    -0.2485 C.ar    
   4 N4             2.8764    -0.5188    -0.3613 N.ar    
   5 C5             3.0313     0.7901    -0.3601 C.ar    
   6 N6             2.0081     1.6132    -0.2478 N.ar    
   7 N7            -0.7206    -0.7569    -0.0056 N.pl3   
   8 C8            -0.9084    -2.1427    -0.0045 C.ar    
   9 C9            -1.3073    -4.1880    -1.2010 C.ar    
  10 C10           -1.2813    -4.8903    -0.0105 C.ar    
  11 C11           -1.0745    -4.2208     1.1884 C.ar    
  12 C12           -0.8878    -2.8455     1.1914 C.ar    
  13 N13           -1.0485    -4.9334     2.3928 N.am    
  14 C14           -1.5521    -4.3805     3.5140 C.2     
  15 C15           -1.6187    -5.1670     4.7569 C.2     
  16 O16           -1.9516    -3.2316     3.4991 O.2     
  17 C17           -2.1111    -4.6763     5.9168 C.2     
  18 C18           -1.1218    -2.8179    -1.2025 C.ar    
  19 F19           -1.1481    -2.1342    -2.3674 F       
  20 C20           -1.8732     0.1385     0.1211 C.3     
  21 S21           -2.0147    -5.8917     7.1150 S.3     
  22 C22           -1.3232    -6.9841     5.9993 C.2     
  23 N23           -1.2037    -6.4336     4.8427 N.2     
  24 H24           -0.0597     1.8316    -0.0435 H       
  25 H25            1.5558    -2.1340    -0.2499 H       
  26 H26            4.0260     1.2002    -0.4540 H       
  27 H27           -1.4680    -4.7111    -2.1321 H       
  28 H28           -1.4269    -5.9604    -0.0125 H       
  29 H29           -0.7265    -2.3234     2.1229 H       
  30 H30           -0.6681    -5.8253     2.4205 H       
  31 H31           -2.5010    -3.6798     6.0624 H       
  32 H32           -2.2613     0.3736    -0.8700 H       
  33 H33           -2.6501    -0.3502     0.7090 H       
  34 H34           -1.5657     1.0584     0.6185 H       
  35 H35           -1.0311    -7.9977     6.2313 H       
@<TRIPOS>BOND
   1    1    2 ar
   2    1    6 ar
   3    1   24 1
   4    2    3 ar
   5    2    7 1
   6    3    4 ar
   7    3   25 1
   8    4    5 ar
   9    5    6 ar
  10    5   26 1
  11    7    8 1
  12    7   20 1
  13    8   18 ar
  14    8   12 ar
  15    9   10 ar
  16    9   18 ar
  17    9   27 1
  18   10   11 ar
  19   10   28 1
  20   11   12 ar
  21   11   13 1
  22   12   29 1
  23   13   14 am
  24   13   30 1
  25   14   15 1
  26   14   16 2
  27   15   17 2
  28   15   23 1
  29   17   21 1
  30   17   31 1
  31   18   19 1
  32   20   32 1
  33   20   33 1
  34   20   34 1
  35   21   22 1
  36   22   23 2
  37   22   35 1

#	End of record

