#	Name: ASD02398013
#	Creating user name:	WinNT
#	Creation time:	15. 06. 2019 20:20

#	Modifying user name:	WinNT
#	Modification time:	15. 06. 2019 20:20

#	Program:	/corina/corina34_cracker 3.40 0067  02.08.2006

@<TRIPOS>MOLECULE
ASD02398013
  61   64    0    0    0
SMALL
NO_CHARGES


@<TRIPOS>ATOM
   1 C1            -0.8248     0.9983     0.3589 C.ar    
   2 C2            -0.3847    -0.3286     0.3238 C.ar    
   3 C3            -1.2848    -1.3610     0.5757 C.ar    
   4 C4            -2.6045    -1.0706     0.8585 C.ar    
   5 C5            -3.0369     0.2431     0.8926 C.ar    
   6 C6            -2.1504     1.2757     0.6496 C.ar    
   7 C7            -3.5777    -2.1886     1.1305 C.3     
   8 C8            -3.5072    -2.5729     2.5859 C.2     
   9 O9            -2.6816    -2.0633     3.3060 O.2     
  10 O10           -4.3617    -3.4814     3.0823 O.3     
  11 C11            1.0341    -0.6351     0.0190 C.ar    
  12 C12            2.0358    -0.2725     0.9183 C.ar    
  13 C13            1.3681    -1.2912    -1.1644 C.ar    
  14 C14            2.6885    -1.5753    -1.4448 C.ar    
  15 C15            3.6840    -1.2088    -0.5496 C.ar    
  16 C16            3.3539    -0.5593     0.6324 C.ar    
  17 C17            1.6784     0.4324     2.2014 C.3     
  18 N18            2.8758     0.5663     3.0349 N.am    
  19 C19            3.7837     1.5477     2.9428 C.2     
  20 O20            4.7864     1.4413     3.8218 O.3     
  21 C21            4.5884     0.2544     4.6434 C.3     
  22 C22            3.2742    -0.3510     4.1135 C.3     
  23 O23            3.7036     2.4513     2.1344 O.2     
  24 O24            0.0461     2.0120     0.1144 O.3     
  25 C25           -0.4747     3.3417     0.1676 C.3     
  26 C26            3.5161    -1.7544     3.5541 C.3     
  27 C27            5.7312    -0.7109     4.4612 C.ar    
  28 C28            6.1520    -1.4918     5.5215 C.ar    
  29 C29            6.3549    -0.8196     3.2324 C.ar    
  30 C30            7.4032    -1.7051     3.0653 C.ar    
  31 C31            7.8280    -2.4816     4.1272 C.ar    
  32 C32            7.2003    -2.3772     5.3544 C.ar    
  33 O33            4.9838    -1.4904    -0.8284 O.3     
  34 C34            5.2519    -2.1647    -2.0594 C.3     
  35 H35           -0.9508    -2.3877     0.5496 H       
  36 H36           -4.0708     0.4631     1.1141 H       
  37 H37           -2.4937     2.2993     0.6780 H       
  38 H38           -4.5881    -1.8572     0.8907 H       
  39 H39           -3.3222    -3.0506     0.5143 H       
  40 H40           -4.2779    -3.6956     4.0216 H       
  41 H41            0.5940    -1.5773    -1.8609 H       
  42 H42            2.9480    -2.0837    -2.3616 H       
  43 H43            4.1307    -0.2750     1.3267 H       
  44 H44            1.2816     1.4218     1.9740 H       
  45 H45            0.9260    -0.1466     2.7368 H       
  46 H46            4.4828     0.5294     5.6928 H       
  47 H47            2.5197    -0.3760     4.8998 H       
  48 H48           -1.2672     3.4514    -0.5726 H       
  49 H49           -0.8771     3.5348     1.1620 H       
  50 H50            0.3230     4.0532    -0.0459 H       
  51 H51            3.9336    -2.3898     4.3351 H       
  52 H52            2.5719    -2.1757     3.2090 H       
  53 H53            4.2151    -1.6974     2.7197 H       
  54 H54            5.6620    -1.4098     6.4804 H       
  55 H55            6.0230    -0.2130     2.4028 H       
  56 H56            7.8901    -1.7905     2.1051 H       
  57 H57            8.6468    -3.1736     3.9966 H       
  58 H58            7.5322    -2.9839     6.1840 H       
  59 H59            6.3250    -2.3281    -2.1580 H       
  60 H60            4.7359    -3.1248    -2.0676 H       
  61 H61            4.8991    -1.5556    -2.8917 H       
@<TRIPOS>BOND
   1    1    2 ar
   2    1   24 1
   3    1    6 ar
   4    2    3 ar
   5    2   11 1
   6    3    4 ar
   7    3   35 1
   8    4    5 ar
   9    4    7 1
  10    5    6 ar
  11    5   36 1
  12    6   37 1
  13    7    8 1
  14    7   38 1
  15    7   39 1
  16    8    9 2
  17    8   10 1
  18   10   40 1
  19   11   12 ar
  20   11   13 ar
  21   12   17 1
  22   12   16 ar
  23   13   14 ar
  24   13   41 1
  25   14   15 ar
  26   14   42 1
  27   15   16 ar
  28   15   33 1
  29   16   43 1
  30   17   18 1
  31   17   44 1
  32   17   45 1
  33   18   19 am
  34   18   22 1
  35   19   20 1
  36   19   23 2
  37   20   21 1
  38   21   22 1
  39   21   27 1
  40   21   46 1
  41   22   26 1
  42   22   47 1
  43   24   25 1
  44   25   48 1
  45   25   49 1
  46   25   50 1
  47   26   51 1
  48   26   52 1
  49   26   53 1
  50   27   28 ar
  51   27   29 ar
  52   28   32 ar
  53   28   54 1
  54   29   30 ar
  55   29   55 1
  56   30   31 ar
  57   30   56 1
  58   31   32 ar
  59   31   57 1
  60   32   58 1
  61   33   34 1
  62   34   59 1
  63   34   60 1
  64   34   61 1

#	End of record

