#	Name: ASD03080035
#	Creating user name:	WinNT
#	Creation time:	15. 06. 2019 20:26

#	Modifying user name:	WinNT
#	Modification time:	15. 06. 2019 20:26

#	Program:	/corina/corina34_cracker 3.40 0067  02.08.2006

@<TRIPOS>MOLECULE
ASD03080035
  26   28    0    0    0
SMALL
NO_CHARGES


@<TRIPOS>ATOM
   1 O1            -0.0144     1.2085     0.0087 O.3     
   2 N2             0.0021    -0.0041     0.0020 N.2     
   3 C3             1.2348    -0.4424    -0.0121 C.2     
   4 N4             2.0460     0.6358    -0.0141 N.2     
   5 C5             1.2413     1.6828    -0.0008 C.2     
   6 C6             3.0150    -2.1963    -0.0374 C.ar    
   7 C7             1.6621    -1.8640    -0.0231 C.ar    
   8 C8             0.7142    -2.8902    -0.0188 C.ar    
   9 C9             1.1639    -4.1998    -0.0290 C.ar    
  10 C10            2.5241    -4.4475    -0.0429 C.ar    
  11 N11            3.3956    -3.4572    -0.0462 N.ar    
  12 C12            1.6453     3.1029     0.0026 C.ar    
  13 C13            0.6751     4.1098     0.0173 C.ar    
  14 C14            1.0618     5.4368     0.0203 C.ar    
  15 C15            2.4041     5.7699     0.0088 C.ar    
  16 C16            3.3701     4.7801    -0.0058 C.ar    
  17 C17            3.0004     3.4482    -0.0032 C.ar    
  18 F18            3.9454     2.4829    -0.0118 F       
  19 F19           -0.6366     3.7864     0.0281 F       
  20 H20            3.7583    -1.4129    -0.0453 H       
  21 H21           -0.3426    -2.6678    -0.0075 H       
  22 H22            0.4599    -5.0187    -0.0257 H       
  23 H23            2.8786    -5.4677    -0.0509 H       
  24 H24            0.3137     6.2156     0.0313 H       
  25 H25            2.6997     6.8086     0.0108 H       
  26 H26            4.4161     5.0486    -0.0151 H       
@<TRIPOS>BOND
   1    1    2 1
   2    1    5 1
   3    2    3 2
   4    3    4 1
   5    3    7 1
   6    4    5 2
   7    5   12 1
   8    6    7 ar
   9    6   11 ar
  10    6   20 1
  11    7    8 ar
  12    8    9 ar
  13    8   21 1
  14    9   10 ar
  15    9   22 1
  16   10   11 ar
  17   10   23 1
  18   12   13 ar
  19   12   17 ar
  20   13   14 ar
  21   13   19 1
  22   14   15 ar
  23   14   24 1
  24   15   16 ar
  25   15   25 1
  26   16   17 ar
  27   16   26 1
  28   17   18 1

#	End of record

