#	Name: ASD02690064
#	Creating user name:	WinNT
#	Creation time:	15. 06. 2019 20:26

#	Modifying user name:	WinNT
#	Modification time:	15. 06. 2019 20:26

#	Program:	/corina/corina34_cracker 3.40 0067  02.08.2006

@<TRIPOS>MOLECULE
ASD02690064
  63   65    0    0    0
SMALL
NO_CHARGES


@<TRIPOS>ATOM
   1 C1            -0.0321     1.1772    -0.0401 C.2     
   2 O2            -0.0088    -0.0338     0.0235 O.2     
   3 C3             1.2106     3.3295    -0.1974 C.ar    
   4 C4             1.2248     1.9326    -0.1236 C.ar    
   5 C5             2.4604     1.2635    -0.1301 C.ar    
   6 C6             3.6057     2.0096    -0.2088 C.ar    
   7 C7             3.5147     3.3966    -0.2794 C.ar    
   8 N8             2.3377     4.0051    -0.2713 N.ar    
   9 O9             4.6470     4.1360    -0.3573 O.3     
  10 C10            4.4918     5.5548    -0.4275 C.3     
  11 N11           -4.0827     2.0913     0.8777 N.3     
  12 C12           -3.7948     1.7045    -0.5093 C.3     
  13 C13           -2.4485     0.9793    -0.5691 C.3     
  14 C14           -1.3509     1.9065    -0.0398 C.3     
  15 C15           -1.6993     2.3333     1.3888 C.3     
  16 C16           -3.0673     3.0192     1.3918 C.3     
  17 C17           -6.4480     1.7270     0.3532 C.3     
  18 C18           -5.4292     2.6666     0.9951 C.3     
  19 C19           -5.7921     2.8339     2.4754 C.3     
  20 C20           -7.0816     3.6475     2.5660 C.3     
  21 C21           -8.1434     3.0587     1.6741 C.ar    
  22 C22           -9.4619     3.4321     1.9055 C.ar    
  23 C23          -10.4831     2.9337     1.1228 C.ar    
  24 C24          -10.1965     2.0544     0.0968 C.ar    
  25 C25           -8.8835     1.6770    -0.1374 C.ar    
  26 C26           -7.8518     2.1806     0.6566 C.ar    
  27 O27           -5.9903     1.5499     3.0706 O.3     
  28 N28           -8.5910     0.7874    -1.1736 N.pl3   
  29 H29            0.2682     3.8569    -0.1979 H       
  30 H30            2.5057     0.1859    -0.0739 H       
  31 H31            4.5714     1.5260    -0.2156 H       
  32 H32            5.4733     6.0252    -0.4860 H       
  33 H33            3.9116     5.8134    -1.3133 H       
  34 H34            3.9721     5.9079     0.4631 H       
  35 H35           -4.5806     1.0419    -0.8722 H       
  36 H36           -3.7548     2.5966    -1.1343 H       
  37 H37           -2.4922     0.0796     0.0447 H       
  38 H38           -2.2278     0.7061    -1.6010 H       
  39 H39           -1.2799     2.7878    -0.6772 H       
  40 H40           -1.7311     1.4549     2.0335 H       
  41 H41           -0.9433     3.0275     1.7558 H       
  42 H42           -3.0307     3.9052     0.7579 H       
  43 H43           -3.3247     3.3116     2.4099 H       
  44 H44           -6.2985     1.7183    -0.7265 H       
  45 H45           -6.3035     0.7195     0.7435 H       
  46 H46           -5.4590     3.6358     0.4974 H       
  47 H47           -4.9895     3.3591     2.9932 H       
  48 H48           -7.4362     3.6454     3.5966 H       
  49 H49           -6.8815     4.6736     2.2574 H       
  50 H50           -9.6897     4.1194     2.7068 H       
  51 H51          -11.5041     3.2303     1.3121 H       
  52 H52          -10.9919     1.6624    -0.5198 H       
  53 H53           -6.2231     1.5829     4.0085 H       
  54 H54           -9.3058     0.4355    -1.7269 H       
  55 H55           -7.6731     0.5214    -1.3400 H       
  56 C56           11.6475    14.1423     9.0363 C.2     
  57 C57           11.6678    12.6482     9.0281 C.2     
  58 O58           12.6892    14.7628     9.0297 O.2     
  59 O59           10.4733    14.7991     9.0455 O.3     
  60 O60           10.6261    12.0278     9.0347 O.2     
  61 O61           12.8419    11.9915     9.0134 O.3     
  62 H62           10.5108    15.7654     9.0505 H       
  63 H63           12.8044    11.0252     9.0085 H       
@<TRIPOS>BOND
   1    1    2 2
   2    1    4 1
   3    1   14 1
   4    3    4 ar
   5    3    8 ar
   6    3   29 1
   7    4    5 ar
   8    5    6 ar
   9    5   30 1
  10    6    7 ar
  11    6   31 1
  12    7    8 ar
  13    7    9 1
  14    9   10 1
  15   10   32 1
  16   10   33 1
  17   10   34 1
  18   11   12 1
  19   11   16 1
  20   11   18 1
  21   12   13 1
  22   12   35 1
  23   12   36 1
  24   13   14 1
  25   13   37 1
  26   13   38 1
  27   14   15 1
  28   14   39 1
  29   15   16 1
  30   15   40 1
  31   15   41 1
  32   16   42 1
  33   16   43 1
  34   17   18 1
  35   17   26 1
  36   17   44 1
  37   17   45 1
  38   18   19 1
  39   18   46 1
  40   19   20 1
  41   19   27 1
  42   19   47 1
  43   20   21 1
  44   20   48 1
  45   20   49 1
  46   21   22 ar
  47   21   26 ar
  48   22   23 ar
  49   22   50 1
  50   23   24 ar
  51   23   51 1
  52   24   25 ar
  53   24   52 1
  54   25   26 ar
  55   25   28 1
  56   27   53 1
  57   28   54 1
  58   28   55 1
  59   56   57 1
  60   56   58 2
  61   56   59 1
  62   57   60 2
  63   57   61 1
  64   59   62 1
  65   61   63 1

#	End of record

