#	Name: ASD03490091
#	Creating user name:	WinNT
#	Creation time:	15. 06. 2019 20:42

#	Modifying user name:	WinNT
#	Modification time:	15. 06. 2019 20:42

#	Program:	/corina/corina34_cracker 3.40 0067  02.08.2006

@<TRIPOS>MOLECULE
ASD03490091
  47   49    0    0    0
SMALL
NO_CHARGES


@<TRIPOS>ATOM
   1 C1            -0.0882     1.3518     0.1637 C.ar    
   2 C2            -0.0473    -0.0299     0.2036 C.ar    
   3 C3             1.1461    -0.6932    -0.0038 C.ar    
   4 C4             2.3062     0.0291    -0.2526 C.ar    
   5 C5             2.2617     1.4169    -0.2920 C.ar    
   6 C6             1.0649     2.0739    -0.0837 C.ar    
   7 N7             3.5160    -0.6392    -0.4625 N.pl3   
   8 N8             4.7590    -0.0461    -0.7228 N.pl3   
   9 C9             5.6852    -1.0379    -0.8667 C.2     
  10 C10            5.0773    -2.2323    -0.7079 C.2     
  11 C11            3.7093    -2.0009    -0.4461 C.2     
  12 C12            7.1498    -0.8327    -1.1566 C.3     
  13 C13            7.8477    -2.1914    -1.2436 C.3     
  14 C14            7.3076    -0.0922    -2.4862 C.3     
  15 C15            7.7809    -0.0061    -0.0345 C.3     
  16 N16            2.7805    -2.9267    -0.2271 N.2     
  17 C17            3.1119    -4.2230    -0.2404 C.2     
  18 N18            2.1704    -5.1616    -0.0185 N.am    
  19 O19            4.2648    -4.5550    -0.4532 O.2     
  20 C20            2.4952    -6.5181    -0.1285 C.ar    
  21 C21            3.7482    -6.9677     0.2670 C.ar    
  22 C22            1.5631    -7.4183    -0.6281 C.ar    
  23 C23            1.8861    -8.7568    -0.7352 C.ar    
  24 C24            3.1371    -9.2013    -0.3448 C.ar    
  25 C25            4.0661    -8.3072     0.1578 C.ar    
  26 Cl26           3.5395   -10.8846    -0.4797 Cl      
  27 H27           -1.0236     1.8680     0.3217 H       
  28 H28           -0.9496    -0.5908     0.3974 H       
  29 H29            1.1774    -1.7723     0.0278 H       
  30 H30            3.1619     1.9814    -0.4849 H       
  31 H31            1.0295     3.1529    -0.1145 H       
  32 H32            4.9313     0.9062    -0.7895 H       
  33 H33            5.5558    -3.1988    -0.7664 H       
  34 H34            7.3981    -2.7803    -2.0431 H       
  35 H35            8.9070    -2.0430    -1.4533 H       
  36 H36            7.7353    -2.7190    -0.2964 H       
  37 H37            6.8104     0.8758    -2.4242 H       
  38 H38            8.3669     0.0562    -2.6959 H       
  39 H39            6.8580    -0.6811    -3.2857 H       
  40 H40            7.6684    -0.5336     0.9127 H       
  41 H41            8.8402     0.1424    -0.2442 H       
  42 H42            7.2837     0.9619     0.0275 H       
  43 H43            1.2676    -4.8966     0.2175 H       
  44 H44            4.4736    -6.2703     0.6594 H       
  45 H45            0.5864    -7.0719    -0.9323 H       
  46 H46            1.1616    -9.4572    -1.1237 H       
  47 H47            5.0405    -8.6573     0.4650 H       
@<TRIPOS>BOND
   1    1    2 ar
   2    1    6 ar
   3    1   27 1
   4    2    3 ar
   5    2   28 1
   6    3    4 ar
   7    3   29 1
   8    4    5 ar
   9    4    7 1
  10    5    6 ar
  11    5   30 1
  12    6   31 1
  13    7    8 1
  14    7   11 1
  15    8    9 1
  16    8   32 1
  17    9   10 2
  18    9   12 1
  19   10   11 1
  20   10   33 1
  21   11   16 2
  22   12   13 1
  23   12   14 1
  24   12   15 1
  25   13   34 1
  26   13   35 1
  27   13   36 1
  28   14   37 1
  29   14   38 1
  30   14   39 1
  31   15   40 1
  32   15   41 1
  33   15   42 1
  34   16   17 1
  35   17   18 am
  36   17   19 2
  37   18   20 1
  38   18   43 1
  39   20   22 ar
  40   20   21 ar
  41   21   25 ar
  42   21   44 1
  43   22   23 ar
  44   22   45 1
  45   23   24 ar
  46   23   46 1
  47   24   25 ar
  48   24   26 1
  49   25   47 1

#	End of record

