#	Name: ASD01022014
#	Creating user name:	WinNT
#	Creation time:	15. 06. 2019 18:56

#	Modifying user name:	WinNT
#	Modification time:	15. 06. 2019 18:56

#	Program:	/corina/corina34_cracker 3.40 0067  02.08.2006

@<TRIPOS>MOLECULE
ASD01022014
  65   69    0    0    0
SMALL
NO_CHARGES


@<TRIPOS>ATOM
   1 C1            -0.0167     1.3831     0.0096 C.ar    
   2 C2             0.0021    -0.0041     0.0020 C.ar    
   3 C3             1.2141    -0.6789    -0.0132 C.ar    
   4 C4             2.3989     0.0314    -0.0207 C.ar    
   5 C5             2.3774     1.4139    -0.0126 C.ar    
   6 C6             1.1708     2.0889     0.0021 C.ar    
   7 O7            -1.1648    -0.7006     0.0099 O.3     
   8 C8             3.6714     2.1863    -0.0198 C.3     
   9 C9             4.0963     2.4560    -1.4647 C.3     
  10 O10            5.3233     3.1884    -1.4715 O.3     
  11 C11            5.8425     3.5118    -2.6860 C.ar    
  12 C12            5.1786     3.1284    -3.8481 C.ar    
  13 C13            5.6914     3.4472    -5.0859 C.ar    
  14 C14            6.8819     4.1584    -5.1840 C.ar    
  15 C15            7.5558     4.5489    -4.0110 C.ar    
  16 C16            7.0229     4.2238    -2.7615 C.ar    
  17 N17            7.6268     4.6132    -6.2532 N.pl3   
  18 C18            8.7353     5.2716    -5.8015 C.2     
  19 C19            8.7469     5.2659    -4.4548 C.2     
  20 C20            7.2803     4.4185    -7.6632 C.3     
  21 C21            6.4199     5.5890    -8.1433 C.3     
  22 C22            6.0581     5.3856    -9.6160 C.3     
  23 C23            5.2106     6.5385   -10.0889 C.ar    
  24 C24            9.8082     5.9203    -6.6458 C.3     
  25 C25           11.0414     6.1588    -5.7674 C.3     
  26 C26           10.6211     6.8698    -4.4780 C.3     
  27 C27            9.8165     5.9001    -3.6035 C.3     
  28 C28            5.8099     7.6603   -10.6304 C.ar    
  29 C29            5.0325     8.7178   -11.0642 C.ar    
  30 C30            3.6558     8.6534   -10.9568 C.ar    
  31 C31            3.0565     7.5312   -10.4161 C.ar    
  32 C32            3.8337     6.4718    -9.9863 C.ar    
  33 N33           11.8178     7.3102    -3.7485 N.3     
  34 Cl34          12.2799     8.8864    -4.2241 Cl      
  35 H35           -0.9590     1.9108     0.0170 H       
  36 H36            1.2314    -1.7588    -0.0188 H       
  37 H37            3.3426    -0.4935    -0.0325 H       
  38 H38            1.1567     3.1688     0.0084 H       
  39 H39           -1.5113    -0.8975    -0.8712 H       
  40 H40            3.5318     3.1338     0.5007 H       
  41 H41            4.4441     1.6055     0.4838 H       
  42 H42            4.2359     1.5085    -1.9852 H       
  43 H43            3.3236     3.0369    -1.9683 H       
  44 H44            4.2534     2.5757    -3.7783 H       
  45 H45            5.1684     3.1442    -5.9810 H       
  46 H46            7.5361     4.5208    -1.8588 H       
  47 H47            8.1924     4.3699    -8.2581 H       
  48 H48            6.7234     3.4882    -7.7754 H       
  49 H49            5.5078     5.6375    -7.5485 H       
  50 H50            6.9768     6.5192    -8.0312 H       
  51 H51            6.9701     5.3370   -10.2109 H       
  52 H52            5.5012     4.4553    -9.7281 H       
  53 H53           10.0705     5.2620    -7.4740 H       
  54 H54            9.4444     6.8724    -7.0322 H       
  55 H55           11.5023     5.2023    -5.5210 H       
  56 H56           11.7574     6.7786    -6.3071 H       
  57 H57           10.0053     7.7350    -4.7237 H       
  58 H58            9.3542     6.4459    -2.7810 H       
  59 H59           10.4772     5.1280    -3.2092 H       
  60 H60            6.8854     7.7106   -10.7143 H       
  61 H61            5.5007     9.5946   -11.4867 H       
  62 H62            3.0485     9.4799   -11.2950 H       
  63 H63            1.9810     7.4810   -10.3319 H       
  64 H64            3.3654     5.5951    -9.5639 H       
  65 H65           11.6717     7.2617    -2.7513 H       
@<TRIPOS>BOND
   1    1    2 ar
   2    1    6 ar
   3    1   35 1
   4    2    3 ar
   5    2    7 1
   6    3    4 ar
   7    3   36 1
   8    4    5 ar
   9    4   37 1
  10    5    6 ar
  11    5    8 1
  12    6   38 1
  13    7   39 1
  14    8    9 1
  15    8   40 1
  16    8   41 1
  17    9   10 1
  18    9   42 1
  19    9   43 1
  20   10   11 1
  21   11   12 ar
  22   11   16 ar
  23   12   13 ar
  24   12   44 1
  25   13   14 ar
  26   13   45 1
  27   14   15 ar
  28   14   17 1
  29   15   16 ar
  30   15   19 1
  31   16   46 1
  32   17   18 1
  33   17   20 1
  34   18   19 2
  35   18   24 1
  36   19   27 1
  37   20   21 1
  38   20   47 1
  39   20   48 1
  40   21   22 1
  41   21   49 1
  42   21   50 1
  43   22   23 1
  44   22   51 1
  45   22   52 1
  46   23   28 ar
  47   23   32 ar
  48   24   25 1
  49   24   53 1
  50   24   54 1
  51   25   26 1
  52   25   55 1
  53   25   56 1
  54   26   27 1
  55   26   33 1
  56   26   57 1
  57   27   58 1
  58   27   59 1
  59   28   29 ar
  60   28   60 1
  61   29   30 ar
  62   29   61 1
  63   30   31 ar
  64   30   62 1
  65   31   32 ar
  66   31   63 1
  67   32   64 1
  68   33   34 1
  69   33   65 1

#	End of record

