#	Name: ASD01915425
#	Creating user name:	WinNT
#	Creation time:	15. 06. 2019 20:05

#	Modifying user name:	WinNT
#	Modification time:	15. 06. 2019 20:05

#	Program:	/corina/corina34_cracker 3.40 0067  02.08.2006

@<TRIPOS>MOLECULE
ASD01915425
  42   45    0    0    0
SMALL
NO_CHARGES


@<TRIPOS>ATOM
   1 C1            -0.0167     1.3796     0.0096 C.ar    
   2 C2             0.0021    -0.0041     0.0020 C.ar    
   3 C3             1.2058    -0.6864    -0.0131 C.ar    
   4 C4             2.3967     0.0092    -0.0203 C.ar    
   5 C5             2.3856     1.4065    -0.0127 C.ar    
   6 C6             1.1662     2.0887     0.0021 C.ar    
   7 C7             3.6180     2.1358    -0.0195 C.1     
   8 C8             4.6283     2.7337    -0.0252 C.1     
   9 C9             5.8607     3.4630    -0.0321 C.ar    
  10 C10            7.0887     2.7877    -0.0523 C.ar    
  11 C11            5.8598     4.8600    -0.0245 C.ar    
  12 N12            6.9934     5.5299    -0.0318 N.ar    
  13 C13            8.1632     4.9202    -0.0458 C.ar    
  14 C14            8.2498     3.5393    -0.0587 C.ar    
  15 C15            9.5954     2.8611    -0.0795 C.3     
  16 C16           11.5664     4.0230    -0.0581 C.2     
  17 N17           10.5599     3.6506    -0.8606 N.am    
  18 C18           10.2072     2.8290     1.3344 C.3     
  19 O19           11.4392     3.5956     1.2031 O.3     
  20 O20           12.5086     4.6877    -0.4411 O.2     
  21 C21           10.5085     1.4114     1.7475 C.ar    
  22 C22            9.5153     0.6286     2.3115 C.ar    
  23 C23           11.7743     0.8910     1.5583 C.ar    
  24 C24           12.0511    -0.4117     1.9376 C.ar    
  25 C25           11.0597    -1.1924     2.5066 C.ar    
  26 C26            9.7921    -0.6736     2.6910 C.ar    
  27 F27            8.2762     1.1358     2.4919 F       
  28 F28           13.2886    -0.9209     1.7517 F       
  29 H29           -0.9600     1.9055     0.0169 H       
  30 H30           -0.9273    -0.5541     0.0083 H       
  31 H31            1.2128    -1.7664    -0.0190 H       
  32 H32            3.3355    -0.5247    -0.0314 H       
  33 H33            1.1501     3.1686     0.0077 H       
  34 H34            7.1273     1.7084    -0.0624 H       
  35 H35            4.9216     5.3949    -0.0131 H       
  36 H36            9.0686     5.5090    -0.0516 H       
  37 H37            9.5082     1.8519    -0.4820 H       
  38 H38           10.4804     3.8662    -1.8030 H       
  39 H39            9.5369     3.3027     2.0516 H       
  40 H40           12.5478     1.5001     1.1144 H       
  41 H41           11.2754    -2.2087     2.8018 H       
  42 H42            9.0176    -1.2839     3.1316 H       
@<TRIPOS>BOND
   1    1    2 ar
   2    1    6 ar
   3    1   29 1
   4    2    3 ar
   5    2   30 1
   6    3    4 ar
   7    3   31 1
   8    4    5 ar
   9    4   32 1
  10    5    6 ar
  11    5    7 1
  12    6   33 1
  13    7    8 3
  14    8    9 1
  15    9   11 ar
  16    9   10 ar
  17   10   14 ar
  18   10   34 1
  19   11   12 ar
  20   11   35 1
  21   12   13 ar
  22   13   14 ar
  23   13   36 1
  24   14   15 1
  25   15   18 1
  26   15   17 1
  27   15   37 1
  28   16   17 am
  29   16   19 1
  30   16   20 2
  31   17   38 1
  32   18   19 1
  33   18   21 1
  34   18   39 1
  35   21   23 ar
  36   21   22 ar
  37   22   26 ar
  38   22   27 1
  39   23   24 ar
  40   23   40 1
  41   24   25 ar
  42   24   28 1
  43   25   26 ar
  44   25   41 1
  45   26   42 1

#	End of record

