#	Name: ASD01885759
#	Creating user name:	WinNT
#	Creation time:	15. 06. 2019 19:50

#	Modifying user name:	WinNT
#	Modification time:	15. 06. 2019 19:50

#	Program:	/corina/corina34_cracker 3.40 0067  02.08.2006

@<TRIPOS>MOLECULE
ASD01885759
  58   60    0    0    0
SMALL
NO_CHARGES


@<TRIPOS>ATOM
   1 C1            -0.0160     1.3294     0.0094 C.ar    
   2 C2            -1.2520     2.0240     0.0189 C.ar    
   3 C3            -2.4596     1.2809     0.0210 C.ar    
   4 C4            -2.3700    -0.1047     0.0135 C.ar    
   5 C5            -1.1108    -0.7138     0.0043 C.ar    
   6 N6             0.0021    -0.0041     0.0020 N.ar    
   7 C7             1.1364     3.4285     0.0092 C.ar    
   8 C8            -0.0805     4.1065     0.0248 C.ar    
   9 C9            -1.2606     3.4246     0.0266 C.ar    
  10 C10           -3.7749     1.9611     0.0313 C.2     
  11 C11           -1.0240    -2.1941    -0.0038 C.2     
  12 C12            2.4227     4.2136     0.0081 C.3     
  13 N13            2.8505     4.4545     1.3926 N.3     
  14 C14            1.1821     2.0685     0.0019 C.ar    
  15 N15            0.1806    -2.7985    -0.0132 N.am    
  16 O16           -2.0389    -2.8622    -0.0018 O.2     
  17 C17            4.2126     5.0061     1.4348 C.3     
  18 C18            4.6399     5.1853     2.8940 C.3     
  19 O19            3.6948     6.0251     3.5624 O.3     
  20 C20            2.3578     5.5179     3.5412 C.3     
  21 C21            1.9074     5.3420     2.0886 C.3     
  22 C22           -4.8228     1.7078    -0.8092 C.2     
  23 N23           -5.8270     2.5383    -0.4692 N.pl3   
  24 N24           -5.3998     3.3274     0.6053 N.2     
  25 C25           -4.1778     2.9845     0.9139 C.2     
  26 C26           -7.1408     2.6051    -1.1139 C.3     
  27 C27            5.1751     4.0443     0.7351 C.3     
  28 H28           -3.2660    -0.7077     0.0151 H       
  29 H29           -0.0889     5.1864     0.0355 H       
  30 H30           -2.1976     3.9616     0.0336 H       
  31 H31            3.1928     3.6486    -0.5170 H       
  32 H32            2.2656     5.1678    -0.4949 H       
  33 H33            2.1338     1.5581    -0.0092 H       
  34 H34            0.9908    -2.2651    -0.0147 H       
  35 H35            0.2373    -3.7668    -0.0184 H       
  36 H36            4.2302     5.9715     0.9292 H       
  37 H37            4.6741     4.2129     3.3853 H       
  38 H38            5.6266     5.6471     2.9302 H       
  39 H39            2.3256     4.5551     4.0514 H       
  40 H40            1.6940     6.2201     4.0456 H       
  41 H41            1.8881     6.3128     1.5934 H       
  42 H42            0.9104     4.9020     2.0674 H       
  43 H43           -4.8419     0.9749    -1.6022 H       
  44 H44           -3.5796     3.4119     1.7050 H       
  45 H45           -7.8253     1.9186    -0.6157 H       
  46 H46           -7.5293     3.6210    -1.0426 H       
  47 H47           -7.0454     2.3254    -2.1631 H       
  48 H48            4.8681     3.9141    -0.3027 H       
  49 H49            6.1848     4.4538     0.7667 H       
  50 H50            5.1581     3.0799     1.2428 H       
  51 C51           12.1866    13.2199     9.9566 C.3     
  52 C52           12.2074    11.6901     9.9482 C.3     
  53 H53           13.2092    13.5972     9.9488 H       
  54 H54           11.6594    13.5810     9.0735 H       
  55 H55           11.6764    13.5714    10.8534 H       
  56 H56           12.7346    11.3290    10.8312 H       
  57 H57           11.1848    11.3128     9.9559 H       
  58 H58           12.7176    11.3386     9.0514 H       
@<TRIPOS>BOND
   1    1    6 ar
   2    1   14 ar
   3    1    2 ar
   4    2    3 ar
   5    2    9 ar
   6    3   10 1
   7    3    4 ar
   8    4    5 ar
   9    4   28 1
  10    5   11 1
  11    5    6 ar
  12    7   12 1
  13    7    8 ar
  14    7   14 ar
  15    8    9 ar
  16    8   29 1
  17    9   30 1
  18   10   22 2
  19   10   25 1
  20   11   15 am
  21   11   16 2
  22   12   13 1
  23   12   31 1
  24   12   32 1
  25   13   17 1
  26   13   21 1
  27   14   33 1
  28   15   34 1
  29   15   35 1
  30   17   18 1
  31   17   27 1
  32   17   36 1
  33   18   19 1
  34   18   37 1
  35   18   38 1
  36   19   20 1
  37   20   21 1
  38   20   39 1
  39   20   40 1
  40   21   41 1
  41   21   42 1
  42   22   23 1
  43   22   43 1
  44   23   26 1
  45   23   24 1
  46   24   25 2
  47   25   44 1
  48   26   45 1
  49   26   46 1
  50   26   47 1
  51   27   48 1
  52   27   49 1
  53   27   50 1
  54   51   52 1
  55   51   53 1
  56   51   54 1
  57   51   55 1
  58   52   56 1
  59   52   57 1
  60   52   58 1

#	End of record

