#	Name: ASD01150283
#	Creating user name:	WinNT
#	Creation time:	15. 06. 2019 19:03

#	Modifying user name:	WinNT
#	Modification time:	15. 06. 2019 19:03

#	Program:	/corina/corina34_cracker 3.40 0067  02.08.2006

@<TRIPOS>MOLECULE
ASD01150283
  59   62    0    0    0
SMALL
NO_CHARGES


@<TRIPOS>ATOM
   1 C1            -0.0158     1.3123     0.0093 C.2     
   2 N2             0.0021    -0.0041     0.0020 N.2     
   3 C3            -1.2465    -0.4793     0.0122 C.2     
   4 C4            -2.1135     0.6065     0.0268 C.2     
   5 N5            -1.3045     1.7452     0.0298 N.pl3   
   6 N6             1.0958     2.1230     0.0030 N.3     
   7 C7             2.3292     1.3252    -0.0137 C.3     
   8 C8             1.0586     3.0586    -1.1289 C.3     
   9 C9            -1.7377     3.0773     0.0439 C.ar    
  10 N10           -1.6126    -1.8194     0.0083 N.am    
  11 C11           -3.5222     0.5669     0.0406 C.2     
  12 O12           -4.2300     1.7169     0.0535 O.3     
  13 O13           -4.1012    -0.5045     0.0408 O.2     
  14 C14           -5.6543     1.6021     0.0670 C.3     
  15 C15           -6.0923     0.8357     1.3167 C.3     
  16 C16           -6.2785     2.9989     0.0804 C.3     
  17 C17           -6.1170     0.8486    -1.1816 C.3     
  18 C18           -1.4615     3.8872     1.1375 C.ar    
  19 C19           -1.8901     5.2001     1.1485 C.ar    
  20 C20           -2.5939     5.7082     0.0721 C.ar    
  21 C21           -2.8705     4.9042    -1.0185 C.ar    
  22 C22           -2.4393     3.5922    -1.0381 C.ar    
  23 C23           -0.6643    -2.7770    -0.0064 C.2     
  24 C24           -1.0515    -4.1945    -0.0105 C.2     
  25 O25            0.5123    -2.4678    -0.0163 O.2     
  26 C26           -0.1909    -5.2179    -0.0248 C.2     
  27 C27           -0.7702    -6.4969    -0.0257 C.ar    
  28 C28           -2.1700    -6.4530    -0.0111 C.ar    
  29 S29           -2.7067    -4.7770     0.0102 S.3     
  30 C30           -0.1324    -7.7607    -0.0389 C.ar    
  31 C31           -0.8672    -8.9042    -0.0380 C.ar    
  32 C32           -2.2560    -8.8550    -0.0235 C.ar    
  33 C33           -2.9043    -7.6437    -0.0093 C.ar    
  34 H34            2.3464     0.7016    -0.9074 H       
  35 H35            3.1924     1.9908    -0.0183 H       
  36 H36            2.3639     0.6914     0.8724 H       
  37 H37            0.1697     3.6849    -1.0537 H       
  38 H38            1.9488     3.6874    -1.1100 H       
  39 H39            1.0299     2.4977    -2.0631 H       
  40 H40           -2.5507    -2.0660     0.0162 H       
  41 H41           -5.7626     1.3725     2.2062 H       
  42 H42           -7.1787     0.7481     1.3270 H       
  43 H43           -5.6476    -0.1594     1.3071 H       
  44 H44           -5.9664     3.5448    -0.8099 H       
  45 H45           -7.3649     2.9112     0.0907 H       
  46 H46           -5.9488     3.5356     0.9699 H       
  47 H47           -5.6723    -0.1465    -1.1912 H       
  48 H48           -7.2034     0.7610    -1.1714 H       
  49 H49           -5.8049     1.3946    -2.0719 H       
  50 H50           -0.9125     3.4907     1.9788 H       
  51 H51           -1.6756     5.8305     1.9988 H       
  52 H52           -2.9285     6.7350     0.0833 H       
  53 H53           -3.4204     5.3039    -1.8577 H       
  54 H54           -2.6556     2.9648    -1.8901 H       
  55 H55            0.8790    -5.0705    -0.0352 H       
  56 H56            0.9461    -7.8167    -0.0503 H       
  57 H57           -0.3665    -9.8611    -0.0489 H       
  58 H58           -2.8273    -9.7715    -0.0233 H       
  59 H59           -3.9837    -7.6107     0.0021 H       
@<TRIPOS>BOND
   1    1    2 2
   2    1    6 1
   3    1    5 1
   4    2    3 1
   5    3    4 2
   6    3   10 1
   7    4    5 1
   8    4   11 1
   9    5    9 1
  10    6    7 1
  11    6    8 1
  12    7   34 1
  13    7   35 1
  14    7   36 1
  15    8   37 1
  16    8   38 1
  17    8   39 1
  18    9   18 ar
  19    9   22 ar
  20   10   23 am
  21   10   40 1
  22   11   12 1
  23   11   13 2
  24   12   14 1
  25   14   15 1
  26   14   16 1
  27   14   17 1
  28   15   41 1
  29   15   42 1
  30   15   43 1
  31   16   44 1
  32   16   45 1
  33   16   46 1
  34   17   47 1
  35   17   48 1
  36   17   49 1
  37   18   19 ar
  38   18   50 1
  39   19   20 ar
  40   19   51 1
  41   20   21 ar
  42   20   52 1
  43   21   22 ar
  44   21   53 1
  45   22   54 1
  46   23   24 1
  47   23   25 2
  48   24   26 2
  49   24   29 1
  50   26   27 1
  51   26   55 1
  52   27   28 ar
  53   27   30 ar
  54   28   29 1
  55   28   33 ar
  56   30   31 ar
  57   30   56 1
  58   31   32 ar
  59   31   57 1
  60   32   33 ar
  61   32   58 1
  62   33   59 1

#	End of record

