#	Name: ASD09116464
#	Creating user name:	WinNT
#	Creation time:	15. 06. 2019 21:21

#	Modifying user name:	WinNT
#	Modification time:	15. 06. 2019 21:21

#	Program:	/corina/corina34_cracker 3.40 0067  02.08.2006

@<TRIPOS>MOLECULE
ASD09116464
  88   95    0    0    0
SMALL
NO_CHARGES


@<TRIPOS>ATOM
   1 N1             0.1403     1.3987     0.5245 N.2     
   2 N2             0.0920    -0.0037     0.4742 N.pl3   
   3 C3             1.4050     1.7353     0.6104 C.2     
   4 N4             2.1522     0.6251     0.6169 N.2     
   5 C5             1.3743    -0.4330     0.5353 C.2     
   6 N6             1.7925    -1.7500     0.5163 N.pl3   
   7 C7            -1.0527    -0.7985     0.3804 C.ar    
   8 N8             1.8926     3.0401     0.6832 N.pl3   
   9 C9             3.2620     3.2664     0.8681 C.ar    
  10 C10            3.8571     4.4003     0.3306 C.ar    
  11 C11            4.0238     2.3599     1.5937 C.ar    
  12 C12            5.3758     2.5838     1.7760 C.ar    
  13 C13            5.9717     3.7165     1.2327 C.ar    
  14 C14            5.2078     4.6244     0.5125 C.ar    
  15 N15           -0.9632    -2.0109    -0.1429 N.ar    
  16 C16           -2.0232    -2.7998    -0.2533 C.ar    
  17 C17           -3.2696    -2.3838     0.2019 C.ar    
  18 C18           -3.4064    -1.1093     0.7503 C.ar    
  19 C19           -2.2662    -0.3068     0.8425 C.ar    
  20 C20           -1.9185    -4.1343    -0.8926 C.ar    
  21 C21           -2.8340    -4.4828    -1.8848 C.ar    
  22 C22           -3.8700    -3.4818    -2.3187 C.3     
  23 C23           -4.9989    -3.3783    -1.2967 C.3     
  24 C24           -4.4408    -3.3218     0.1217 C.3     
  25 C25           -0.9276    -5.0333    -0.5125 C.ar    
  26 C26           -0.8676    -6.2769    -1.1103 C.ar    
  27 C27           -1.7901    -6.6264    -2.0803 C.ar    
  28 C28           -2.7722    -5.7315    -2.4668 C.ar    
  29 C29           -4.7239    -0.6214     1.2279 C.ar    
  30 C30           -5.4289    -1.3408     2.1907 C.ar    
  31 C31           -6.6538    -0.8824     2.6313 C.ar    
  32 C32           -7.1821     0.2887     2.1186 C.ar    
  33 C33           -6.4865     1.0069     1.1627 C.ar    
  34 C34           -5.2579     0.5609     0.7194 C.ar    
  35 F35            6.1175     1.7026     2.4822 F       
  36 N36            7.3421     3.9442     1.4169 N.3     
  37 C37            8.0433     4.0091     0.1270 C.3     
  38 C38            7.9348     2.9165     2.2842 C.3     
  39 C39            9.4103     3.2447     2.5246 C.3     
  40 N40           10.1115     3.3095     1.2347 N.3     
  41 C41            9.5187     4.3372     0.3674 C.3     
  42 C42           11.5480     3.5482     1.4278 C.3     
  43 C43           12.2617     3.4854     0.0760 C.3     
  44 C44           11.7562     4.9301     2.0507 C.3     
  45 C45           13.2524     5.1788     2.2518 C.3     
  46 C46           13.9661     5.1159     0.9000 C.3     
  47 C47           13.7579     3.7340     0.2771 C.3     
  48 H48            2.7384    -1.9592     0.5653 H       
  49 H49            1.1401    -2.4651     0.4540 H       
  50 H50            1.2831     3.7907     0.6057 H       
  51 H51            3.2634     5.1071    -0.2301 H       
  52 H52            3.5601     1.4806     2.0158 H       
  53 H53            5.6708     5.5040     0.0902 H       
  54 H54           -2.3297     0.6869     1.2607 H       
  55 H55           -3.3986    -2.5054    -2.4306 H       
  56 H56           -4.2843    -3.7896    -3.2788 H       
  57 H57           -5.5771    -2.4750    -1.4910 H       
  58 H58           -5.6498    -4.2474    -1.3918 H       
  59 H59           -4.1212    -4.3201     0.4208 H       
  60 H60           -5.2217    -2.9784     0.8003 H       
  61 H61           -0.2087    -4.7603     0.2459 H       
  62 H62           -0.0988    -6.9778    -0.8203 H       
  63 H63           -1.7435    -7.6033    -2.5385 H       
  64 H64           -3.4899    -6.0108    -3.2240 H       
  65 H65           -5.0177    -2.2557     2.5912 H       
  66 H66           -7.2011    -1.4392     3.3775 H       
  67 H67           -8.1413     0.6435     2.4656 H       
  68 H68           -6.9036     1.9206     0.7657 H       
  69 H69           -4.7154     1.1226    -0.0267 H       
  70 H70            7.9625     3.0473    -0.3796 H       
  71 H71            7.5943     4.7855    -0.4923 H       
  72 H72            7.4067     2.8965     3.2375 H       
  73 H73            7.8528     1.9424     1.8021 H       
  74 H74            9.4911     4.2064     3.0312 H       
  75 H75            9.8593     2.4682     3.1439 H       
  76 H76           10.0468     4.3573    -0.5859 H       
  77 H77            9.6008     5.3114     0.8495 H       
  78 H78           11.9572     2.7857     2.0905 H       
  79 H79           12.1134     2.5009    -0.3678 H       
  80 H80           11.8526     4.2480    -0.5867 H       
  81 H81           11.3470     5.6927     1.3880 H       
  82 H82           11.2477     4.9749     3.0138 H       
  83 H83           13.4006     6.1633     2.6955 H       
  84 H84           13.6615     4.4162     2.9145 H       
  85 H85           13.5569     5.8785     0.2373 H       
  86 H86           15.0320     5.2930     1.0433 H       
  87 H87           14.1671     2.9714     0.9398 H       
  88 H88           14.2664     3.6892    -0.6860 H       
@<TRIPOS>BOND
   1    1    2 1
   2    1    3 2
   3    2    7 1
   4    2    5 1
   5    3    4 1
   6    3    8 1
   7    4    5 2
   8    5    6 1
   9    6   48 1
  10    6   49 1
  11    7   15 ar
  12    7   19 ar
  13    8    9 1
  14    8   50 1
  15    9   10 ar
  16    9   11 ar
  17   10   14 ar
  18   10   51 1
  19   11   12 ar
  20   11   52 1
  21   12   13 ar
  22   12   35 1
  23   13   14 ar
  24   13   36 1
  25   14   53 1
  26   15   16 ar
  27   16   17 ar
  28   16   20 1
  29   17   18 ar
  30   17   24 1
  31   18   19 ar
  32   18   29 1
  33   19   54 1
  34   20   21 ar
  35   20   25 ar
  36   21   22 1
  37   21   28 ar
  38   22   23 1
  39   22   55 1
  40   22   56 1
  41   23   24 1
  42   23   57 1
  43   23   58 1
  44   24   59 1
  45   24   60 1
  46   25   26 ar
  47   25   61 1
  48   26   27 ar
  49   26   62 1
  50   27   28 ar
  51   27   63 1
  52   28   64 1
  53   29   30 ar
  54   29   34 ar
  55   30   31 ar
  56   30   65 1
  57   31   32 ar
  58   31   66 1
  59   32   33 ar
  60   32   67 1
  61   33   34 ar
  62   33   68 1
  63   34   69 1
  64   36   37 1
  65   36   38 1
  66   37   41 1
  67   37   70 1
  68   37   71 1
  69   38   39 1
  70   38   72 1
  71   38   73 1
  72   39   40 1
  73   39   74 1
  74   39   75 1
  75   40   41 1
  76   40   42 1
  77   41   76 1
  78   41   77 1
  79   42   43 1
  80   42   44 1
  81   42   78 1
  82   43   47 1
  83   43   79 1
  84   43   80 1
  85   44   45 1
  86   44   81 1
  87   44   82 1
  88   45   46 1
  89   45   83 1
  90   45   84 1
  91   46   47 1
  92   46   85 1
  93   46   86 1
  94   47   87 1
  95   47   88 1

#	End of record

