#	Name: ASD08150392
#	Creating user name:	WinNT
#	Creation time:	15. 06. 2019 21:15

#	Modifying user name:	WinNT
#	Modification time:	15. 06. 2019 21:15

#	Program:	/corina/corina34_cracker 3.40 0067  02.08.2006

@<TRIPOS>MOLECULE
ASD08150392
  41   45    0    0    0
SMALL
NO_CHARGES


@<TRIPOS>ATOM
   1 N1            -0.0163     1.3483     0.0095 N.am    
   2 C2             0.0030    -0.0039    -0.0099 C.2     
   3 C3             1.1740    -0.7001    -0.3675 C.2     
   4 C4             2.3189    -0.0080    -0.5936 C.2     
   5 C5             2.3260     1.3942    -0.3958 C.ar    
   6 C6             3.4862     2.1467    -0.6592 C.ar    
   7 N7             3.5206     3.4322    -0.4352 N.ar    
   8 C8             2.4873     4.0819     0.1202 C.ar    
   9 C9             1.2990     3.3847     0.4688 C.ar    
  10 C10            1.1477     2.0536     0.0135 C.ar    
  11 C11            0.3590     4.0416     1.2660 C.ar    
  12 C12            0.5219     5.3829     1.5786 C.ar    
  13 C13            1.6233     6.0962     1.0878 C.ar    
  14 C14            2.5865     5.4602     0.3705 C.ar    
  15 O15           -1.0047    -0.6206     0.2865 O.2     
  16 C16           -0.4770     6.0645     2.4372 C.ar    
  17 C17           -1.3270     1.9987    -0.0808 C.3     
  18 C18           -1.5838     5.3570     2.9327 C.ar    
  19 N19           -2.4811     5.9329     3.6920 N.ar    
  20 C20           -2.3886     7.2224     4.0338 C.ar    
  21 C21           -1.2993     8.0044     3.5735 C.ar    
  22 C22           -0.3215     7.4046     2.7613 C.ar    
  23 C23           -3.3627     7.8235     4.8499 C.ar    
  24 C24           -3.2476     9.1377     5.1844 C.ar    
  25 C25           -2.1763     9.9047     4.7305 C.ar    
  26 C26           -1.2131     9.3586     3.9385 C.ar    
  27 H27            1.1616    -1.7747    -0.4618 H       
  28 H28            3.2122    -0.5205    -0.9208 H       
  29 H29            4.3611     1.6512    -1.0542 H       
  30 H30           -0.4779     3.5154     1.7008 H       
  31 H31            1.7069     7.1546     1.2798 H       
  32 H32            3.4317     6.0162    -0.0083 H       
  33 H33           -1.7651     2.0730     0.9145 H       
  34 H34           -1.2089     2.9974    -0.5013 H       
  35 H35           -1.9816     1.4093    -0.7228 H       
  36 H36           -1.6978     4.3129     2.6812 H       
  37 H37            0.5210     7.9717     2.3940 H       
  38 H38           -4.2001     7.2443     5.2101 H       
  39 H39           -3.9992     9.5938     5.8117 H       
  40 H40           -2.1093    10.9455     5.0106 H       
  41 H41           -0.3873     9.9628     3.5928 H       
@<TRIPOS>BOND
   1    1    2 am
   2    1   10 1
   3    1   17 1
   4    2    3 1
   5    2   15 2
   6    3    4 2
   7    3   27 1
   8    4    5 1
   9    4   28 1
  10    5    6 ar
  11    5   10 ar
  12    6    7 ar
  13    6   29 1
  14    7    8 ar
  15    8    9 ar
  16    8   14 ar
  17    9   10 ar
  18    9   11 ar
  19   11   12 ar
  20   11   30 1
  21   12   13 ar
  22   12   16 1
  23   13   14 ar
  24   13   31 1
  25   14   32 1
  26   16   18 ar
  27   16   22 ar
  28   17   33 1
  29   17   34 1
  30   17   35 1
  31   18   19 ar
  32   18   36 1
  33   19   20 ar
  34   20   21 ar
  35   20   23 ar
  36   21   22 ar
  37   21   26 ar
  38   22   37 1
  39   23   24 ar
  40   23   38 1
  41   24   25 ar
  42   24   39 1
  43   25   26 ar
  44   25   40 1
  45   26   41 1

#	End of record

