#	Name: ASD03670009
#	Creating user name:	WinNT
#	Creation time:	15. 06. 2019 20:43

#	Modifying user name:	WinNT
#	Modification time:	15. 06. 2019 20:43

#	Program:	/corina/corina34_cracker 3.40 0067  02.08.2006

@<TRIPOS>MOLECULE
ASD03670009
  53   55    0    0    0
SMALL
NO_CHARGES


@<TRIPOS>ATOM
   1 P1            -0.0180     1.4758     0.0102 P.3     
   2 O2             0.0021    -0.0041     0.0020 O.2     
   3 O3             1.4924     2.0330    -0.0013 O.3     
   4 O4            -0.7967     2.0091    -1.2942 O.3     
   5 O5            -0.7716     1.9950     1.3348 O.3     
   6 P6            -0.7058     1.5880     2.8911 P.3     
   7 O7            -0.5959     0.1170     3.0121 O.2     
   8 O8             0.5781     2.2799     3.5729 O.3     
   9 O9            -2.0434     2.0892     3.6339 O.3     
  10 C10           -2.3338     1.7889     5.0005 C.3     
  11 C11           -3.6760     2.4140     5.3859 C.3     
  12 O12           -4.7390     1.7767     4.6579 O.3     
  13 C13           -3.9480     2.1877     6.8857 C.3     
  14 O14           -4.0792     3.4384     7.5645 O.3     
  15 C15           -5.2874     1.4119     6.9156 C.3     
  16 O16           -6.1289     1.8878     7.9679 O.3     
  17 C17           -5.8904     1.7516     5.5287 C.3     
  18 N18           -6.8332     0.7124     5.1076 N.pl3   
  19 C19           -6.5339    -0.4010     4.3771 C.2     
  20 N20           -7.6109    -1.1053     4.1856 N.2     
  21 C21           -8.6617    -0.4888     4.7793 C.2     
  22 C22          -10.0399    -0.7854     4.8969 C.2     
  23 O23          -10.5072    -1.7929     4.3941 O.2     
  24 N24          -10.8255     0.0758     5.5808 N.am    
  25 C25          -10.2923     1.1990     6.1392 C.2     
  26 N26          -11.1142     2.0550     6.8284 N.pl3   
  27 N27           -9.0137     1.4858     6.0371 N.2     
  28 C28           -8.1739     0.6775     5.3798 C.2     
  29 P29           -3.1133     3.8860     8.7724 P.3     
  30 O30           -1.7031     3.8147     8.3288 O.2     
  31 O31           -3.3316     2.9012    10.0272 O.3     
  32 O32           -3.4632     5.3959     9.2079 O.3     
  33 P33           -2.6661     6.5416    10.0106 P.3     
  34 O34           -1.2748     6.6165     9.5115 O.2     
  35 O35           -3.3941     7.9599     9.7856 O.3     
  36 O36           -2.6546     6.1874    11.5811 O.3     
  37 H37            1.5557     2.9980     0.0033 H       
  38 H38           -0.3973     1.7338    -2.1307 H       
  39 H39            0.5732     3.2460     3.5306 H       
  40 H40           -2.3853     0.7081     5.1320 H       
  41 H41           -1.5476     2.1953     5.6368 H       
  42 H42           -3.6643     3.4816     5.1660 H       
  43 H43           -3.1508     1.5938     7.3327 H       
  44 H44           -5.1141     0.3402     7.0131 H       
  45 H45           -6.9800     1.4325     8.0273 H       
  46 H46           -6.3768     2.7268     5.5501 H       
  47 H47           -5.5505    -0.6587     4.0127 H       
  48 H48          -11.7736    -0.1063     5.6744 H       
  49 H49          -12.0599     1.8567     6.9126 H       
  50 H50          -10.7493     2.8584     7.2313 H       
  51 H51           -4.2353     2.8968    10.3712 H       
  52 H52           -2.9668     8.6980    10.2414 H       
  53 H53           -3.5348     6.1221    11.9760 H       
@<TRIPOS>BOND
   1    1    2 2
   2    1    3 1
   3    1    4 1
   4    1    5 1
   5    3   37 1
   6    4   38 1
   7    5    6 1
   8    6    7 2
   9    6    8 1
  10    6    9 1
  11    8   39 1
  12    9   10 1
  13   10   11 1
  14   10   40 1
  15   10   41 1
  16   11   12 1
  17   11   13 1
  18   11   42 1
  19   12   17 1
  20   13   14 1
  21   13   15 1
  22   13   43 1
  23   14   29 1
  24   15   16 1
  25   15   17 1
  26   15   44 1
  27   16   45 1
  28   17   18 1
  29   17   46 1
  30   18   19 1
  31   18   28 1
  32   19   20 2
  33   19   47 1
  34   20   21 1
  35   21   22 1
  36   21   28 2
  37   22   23 2
  38   22   24 am
  39   24   25 1
  40   24   48 1
  41   25   26 1
  42   25   27 2
  43   26   49 1
  44   26   50 1
  45   27   28 1
  46   29   30 2
  47   29   31 1
  48   29   32 1
  49   31   51 1
  50   32   33 1
  51   33   34 2
  52   33   35 1
  53   33   36 1
  54   35   52 1
  55   36   53 1

#	End of record

