#	Name: ASD04560203
#	Creating user name:	WinNT
#	Creation time:	15. 06. 2019 20:49

#	Modifying user name:	WinNT
#	Modification time:	15. 06. 2019 20:49

#	Program:	/corina/corina34_cracker 3.40 0067  02.08.2006

@<TRIPOS>MOLECULE
ASD04560203
  36   38    0    0    0
SMALL
NO_CHARGES


@<TRIPOS>ATOM
   1 C1            -0.0373     1.5504     0.9806 C.ar    
   2 C2            -0.0295     0.1953     1.2320 C.ar    
   3 C3             1.1752    -0.4910     1.2951 C.ar    
   4 C4             2.3646     0.1676     1.1096 C.ar    
   5 C5             1.1607     2.2341     0.7895 C.ar    
   6 S6             1.4865     3.9332     0.4557 S.3     
   7 C7             2.3812     1.5544     0.8510 C.ar    
   8 N8             3.4410     2.3615     0.6452 N.2     
   9 C9             3.2142     3.6096     0.4233 C.2     
  10 N10            4.1929     4.5625     0.1934 N.am    
  11 C11            5.4927     4.2062     0.1901 C.2     
  12 N12            6.4450     5.1333    -0.0336 N.am    
  13 O13            5.8062     3.0485     0.3887 O.2     
  14 C14            7.7969     4.7837     0.0572 C.ar    
  15 C15            8.7169     5.6892     0.5693 C.ar    
  16 C16            8.2205     3.5285    -0.3593 C.ar    
  17 C17            9.5554     3.1864    -0.2680 C.ar    
  18 C18           10.4699     4.0921     0.2375 C.ar    
  19 C19           10.0504     5.3409     0.6580 C.ar    
  20 Cl20          -1.5256    -0.6526     1.4701 Cl      
  21 C21           11.0496     6.3231     1.2131 C.3     
  22 F22           10.3928     7.5066     1.5672 F       
  23 F23           11.6640     5.7745     2.3438 F       
  24 F24           12.0193     6.6001     0.2435 F       
  25 C25           10.0159     1.8242    -0.7192 C.3     
  26 F26            8.9192     1.0926    -1.1873 F       
  27 F27           10.9546     1.9661    -1.7468 F       
  28 F28           10.6014     1.1495     0.3574 F       
  29 H29           -0.9755     2.0828     0.9272 H       
  30 H30            1.1766    -1.5528     1.4923 H       
  31 H31            3.2944    -0.3793     1.1622 H       
  32 H32            3.9427     5.4862     0.0349 H       
  33 H33            6.1932     6.0430    -0.2574 H       
  34 H34            8.3900     6.6648     0.8975 H       
  35 H35            7.5067     2.8205    -0.7538 H       
  36 H36           11.5132     3.8222     0.3079 H       
@<TRIPOS>BOND
   1    1    2 ar
   2    1    5 ar
   3    1   29 1
   4    2    3 ar
   5    2   20 1
   6    3    4 ar
   7    3   30 1
   8    4    7 ar
   9    4   31 1
  10    5    7 ar
  11    5    6 1
  12    6    9 1
  13    7    8 1
  14    8    9 2
  15    9   10 1
  16   10   11 am
  17   10   32 1
  18   11   12 am
  19   11   13 2
  20   12   14 1
  21   12   33 1
  22   14   16 ar
  23   14   15 ar
  24   15   19 ar
  25   15   34 1
  26   16   17 ar
  27   16   35 1
  28   17   18 ar
  29   17   25 1
  30   18   19 ar
  31   18   36 1
  32   19   21 1
  33   21   22 1
  34   21   23 1
  35   21   24 1
  36   25   26 1
  37   25   27 1
  38   25   28 1

#	End of record

