#	Name: ASD01883755
#	Creating user name:	WinNT
#	Creation time:	15. 06. 2019 19:47

#	Modifying user name:	WinNT
#	Modification time:	15. 06. 2019 19:47

#	Program:	/corina/corina34_cracker 3.40 0067  02.08.2006

@<TRIPOS>MOLECULE
ASD01883755
  39   42    0    0    0
SMALL
NO_CHARGES


@<TRIPOS>ATOM
   1 C1            -0.0169     1.3978     0.0097 C.2     
   2 C2             0.0021    -0.0041     0.0020 C.2     
   3 C3            -1.2218    -0.7047     0.0104 C.2     
   4 C4            -2.3968    -0.0477     0.0257 C.2     
   5 N5            -2.4614     1.3153     0.0332 N.pl3   
   6 C6            -1.3172     2.0713     0.0319 C.2     
   7 C7            -3.5155     2.1914     0.0479 C.2     
   8 C8            -2.9977     3.4378     0.0491 C.2     
   9 N9            -1.6638     3.3458     0.0403 N.2     
  10 C10           -4.9786     1.8304     0.0603 C.3     
  11 C11            1.2864    -0.7371    -0.0152 C.ar    
  12 C12            1.6484    -1.5294     1.0687 C.ar    
  13 C13            2.8615    -2.2158     1.0402 C.ar    
  14 C14            3.7077    -2.1034    -0.0791 C.ar    
  15 C15            3.3252    -1.3036    -1.1550 C.ar    
  16 C16            2.1345    -0.6372    -1.1262 C.ar    
  17 C17           -5.5179     1.8376    -1.3715 C.3     
  18 F18           -4.8139     0.9041    -2.1396 F       
  19 F19           -6.8761     1.5026    -1.3599 F       
  20 F20           -5.3568     3.1127    -1.9241 F       
  21 C21            1.2014     2.1503     0.0021 C.1     
  22 N22            2.1679     2.7472    -0.0039 N.1     
  23 C23            3.5440    -3.1141     1.9755 C.2     
  24 C24            4.7013    -3.4738     1.3989 C.2     
  25 N25            4.8159    -2.8799     0.1716 N.pl3   
  26 Cl26           4.3636    -1.1602    -2.5387 Cl      
  27 C27            5.9501    -3.0462    -0.7406 C.3     
  28 H28           -1.2164    -1.7847     0.0042 H       
  29 H29           -3.3152    -0.6160     0.0318 H       
  30 H30           -3.5659     4.3562     0.0592 H       
  31 H31           -5.1041     0.8370     0.4909 H       
  32 H32           -5.5272     2.5578     0.6588 H       
  33 H33            0.9958    -1.6120     1.9253 H       
  34 H34            1.8469    -0.0200    -1.9645 H       
  35 H35            3.1844    -3.4267     2.9448 H       
  36 H36            5.4338    -4.1345     1.8385 H       
  37 H37            5.7644    -3.8939    -1.4003 H       
  38 H38            6.0726    -2.1419    -1.3367 H       
  39 H39            6.8570    -3.2267    -0.1635 H       
@<TRIPOS>BOND
   1    1    2 2
   2    1   21 1
   3    1    6 1
   4    2    3 1
   5    2   11 1
   6    3    4 2
   7    3   28 1
   8    4    5 1
   9    4   29 1
  10    5    6 1
  11    5    7 1
  12    6    9 2
  13    7    8 2
  14    7   10 1
  15    8    9 1
  16    8   30 1
  17   10   17 1
  18   10   31 1
  19   10   32 1
  20   11   12 ar
  21   11   16 ar
  22   12   13 ar
  23   12   33 1
  24   13   14 ar
  25   13   23 1
  26   14   15 ar
  27   14   25 1
  28   15   16 ar
  29   15   26 1
  30   16   34 1
  31   17   18 1
  32   17   19 1
  33   17   20 1
  34   21   22 3
  35   23   24 2
  36   23   35 1
  37   24   25 1
  38   24   36 1
  39   25   27 1
  40   27   37 1
  41   27   38 1
  42   27   39 1

#	End of record

