#	Name: ASD03540250
#	Creating user name:	WinNT
#	Creation time:	15. 06. 2019 20:42

#	Modifying user name:	WinNT
#	Modification time:	15. 06. 2019 20:42

#	Program:	/corina/corina34_cracker 3.40 0067  02.08.2006

@<TRIPOS>MOLECULE
ASD03540250
  58   62    0    0    0
SMALL
NO_CHARGES


@<TRIPOS>ATOM
   1 C1            -5.0737    -1.4522    -1.1772 C.2     
   2 N2            -4.4133    -2.6146    -1.0766 N.am    
   3 C3            -3.0404    -2.6502    -0.9112 C.2     
   4 C4            -2.3360    -1.4534    -0.8486 C.2     
   5 C5            -3.1107    -0.1972    -0.9638 C.2     
   6 N6            -4.4454    -0.2668    -1.1234 N.am    
   7 C7            -0.9623    -1.6368    -0.6805 C.2     
   8 C8            -0.5803    -2.9240    -0.6111 C.2     
   9 S9            -1.9756    -3.9774    -0.7592 S.3     
  10 C10            0.7988    -3.3802    -0.4380 C.2     
  11 O11            1.7007    -2.5690    -0.3453 O.2     
  12 O12            1.0705    -4.7005    -0.3811 O.3     
  13 O13           -2.5495     0.8814    -0.9161 O.2     
  14 O14           -6.2801    -1.4722    -1.3268 O.2     
  15 C15           -5.1610    -3.8727    -1.1428 C.3     
  16 C16           -5.2239     0.9688    -1.2394 C.3     
  17 C17           -5.6601     1.4182     0.1313 C.ar    
  18 C18           -4.8561     2.2672     0.8686 C.ar    
  19 C19           -5.2562     2.6794     2.1260 C.ar    
  20 C20           -6.4604     2.2430     2.6457 C.ar    
  21 C21           -7.2649     1.3948     1.9080 C.ar    
  22 C22           -6.8668     0.9860     0.6489 C.ar    
  23 C23            2.4392    -5.0744    -0.2108 C.3     
  24 C24            2.5480    -6.5769    -0.1700 C.ar    
  25 C25            2.7398    -7.2870    -1.3395 C.ar    
  26 C26            2.8399    -8.6703    -1.3013 C.ar    
  27 C27            2.7472    -9.3369    -0.0877 C.ar    
  28 C28            2.5555    -8.6223     1.0786 C.ar    
  29 C29            2.4617    -7.2431     1.0383 C.ar    
  30 O30            3.0280    -9.3711    -2.4502 O.3     
  31 C31            3.2205    -8.6722    -3.5995 C.ar    
  32 C32            4.5015    -8.2969    -3.9785 C.ar    
  33 C33            4.6944    -7.5869    -5.1476 C.ar    
  34 C34            3.6124    -7.2497    -5.9397 C.ar    
  35 C35            2.3349    -7.6224    -5.5643 C.ar    
  36 C36            2.1370    -8.3375    -4.3991 C.ar    
  37 H37           -0.2655    -0.8144    -0.6119 H       
  38 H38           -6.2217    -3.6586    -1.2737 H       
  39 H39           -4.8031    -4.4642    -1.9855 H       
  40 H40           -5.0145    -4.4315    -0.2185 H       
  41 H41           -4.6093     1.7438    -1.6975 H       
  42 H42           -6.1022     0.7880    -1.8591 H       
  43 H43           -3.9152     2.6081     0.4626 H       
  44 H44           -4.6277     3.3421     2.7024 H       
  45 H45           -6.7727     2.5645     3.6284 H       
  46 H46           -8.2056     1.0536     2.3142 H       
  47 H47           -7.4970     0.3262     0.0710 H       
  48 H48            3.0272    -4.6900    -1.0442 H       
  49 H49            2.8163    -4.6573     0.7229 H       
  50 H50            2.8112    -6.7659    -2.2828 H       
  51 H51            2.8245   -10.4137    -0.0552 H       
  52 H52            2.4833    -9.1406     2.0233 H       
  53 H53            2.3165    -6.6858     1.9519 H       
  54 H54            5.3469    -8.5594    -3.3598 H       
  55 H55            5.6913    -7.2946    -5.4430 H       
  56 H56            3.7654    -6.6939    -6.8530 H       
  57 H57            1.4914    -7.3575    -6.1846 H       
  58 H58            1.1394    -8.6319    -4.1085 H       
@<TRIPOS>BOND
   1    1    2 am
   2    1    6 am
   3    1   14 2
   4    2    3 1
   5    2   15 1
   6    3    4 2
   7    3    9 1
   8    4    5 1
   9    4    7 1
  10    5    6 am
  11    5   13 2
  12    6   16 1
  13    7    8 2
  14    7   37 1
  15    8    9 1
  16    8   10 1
  17   10   11 2
  18   10   12 1
  19   12   23 1
  20   15   38 1
  21   15   39 1
  22   15   40 1
  23   16   17 1
  24   16   41 1
  25   16   42 1
  26   17   18 ar
  27   17   22 ar
  28   18   19 ar
  29   18   43 1
  30   19   20 ar
  31   19   44 1
  32   20   21 ar
  33   20   45 1
  34   21   22 ar
  35   21   46 1
  36   22   47 1
  37   23   24 1
  38   23   48 1
  39   23   49 1
  40   24   25 ar
  41   24   29 ar
  42   25   26 ar
  43   25   50 1
  44   26   27 ar
  45   26   30 1
  46   27   28 ar
  47   27   51 1
  48   28   29 ar
  49   28   52 1
  50   29   53 1
  51   30   31 1
  52   31   32 ar
  53   31   36 ar
  54   32   33 ar
  55   32   54 1
  56   33   34 ar
  57   33   55 1
  58   34   35 ar
  59   34   56 1
  60   35   36 ar
  61   35   57 1
  62   36   58 1

#	End of record

