#	Name: ASD01883990
#	Creating user name:	WinNT
#	Creation time:	15. 06. 2019 19:47

#	Modifying user name:	WinNT
#	Modification time:	15. 06. 2019 19:47

#	Program:	/corina/corina34_cracker 3.40 0067  02.08.2006

@<TRIPOS>MOLECULE
ASD01883990
  54   57    0    0    0
SMALL
NO_CHARGES


@<TRIPOS>ATOM
   1 C1            -0.0458     1.5756    -0.0081 C.3     
   2 C2            -0.0155     0.0459    -0.0083 C.3     
   3 C3            -1.4476    -0.4926     0.0046 C.3     
   4 C4            -1.4173    -2.0223     0.0043 C.3     
   5 N5            -2.7886    -2.5378     0.0166 N.am    
   6 C6            -3.4417    -2.7812     1.2978 C.3     
   7 C7            -4.9104    -2.3569     1.2954 C.3     
   8 N8            -5.5553    -2.8589     0.0822 N.pl3   
   9 C9            -4.8616    -3.0445    -1.0959 C.2     
  10 N10           -5.6873    -3.4745    -2.0091 N.2     
  11 C11           -6.9053    -3.5959    -1.4833 C.2     
  12 Cl12          -8.3259    -4.1394    -2.3201 Cl      
  13 C13           -6.8420    -3.2138    -0.1528 C.2     
  14 C14           -7.9560    -3.1970     0.8171 C.ar    
  15 C15           -7.7699    -3.7020     2.1060 C.ar    
  16 C16           -8.8117    -3.6841     3.0080 C.ar    
  17 C17          -10.0455    -3.1652     2.6368 C.ar    
  18 O18          -11.0697    -3.1494     3.5289 O.3     
  19 C19          -10.8443    -3.7886     4.7870 C.3     
  20 C20          -10.1642    -2.8067     5.7460 C.3     
  21 C21           -9.9982    -3.4738     7.1139 C.3     
  22 O22          -11.2775    -3.8840     7.6008 O.3     
  23 C23          -11.9400    -4.8383     6.7687 C.3     
  24 C24          -12.1841    -4.2260     5.3869 C.3     
  25 C25          -10.2347    -2.6620     1.3561 C.ar    
  26 C26           -9.1965    -2.6709     0.4498 C.ar    
  27 C27           -3.4139    -2.7690    -1.1612 C.2     
  28 O28           -2.8131    -2.7543    -2.2188 O.2     
  29 H29            0.9744     1.9592    -0.0172 H       
  30 H30           -0.5747     1.9287    -0.8933 H       
  31 H31           -0.5587     1.9287     0.8865 H       
  32 H32            0.4974    -0.3072    -0.9029 H       
  33 H33            0.5133    -0.3072     0.8770 H       
  34 H34           -1.9605    -0.1394     0.8992 H       
  35 H35           -1.9765    -0.1395    -0.8807 H       
  36 H36           -0.9044    -2.3754    -0.8903 H       
  37 H37           -0.8885    -2.3753     0.8896 H       
  38 H38           -3.3823    -3.8451     1.5275 H       
  39 H39           -2.9152    -2.2250     2.0734 H       
  40 H40           -5.4103    -2.7707     2.1712 H       
  41 H41           -4.9751    -1.2691     1.3186 H       
  42 H42           -6.8111    -4.1063     2.3952 H       
  43 H43           -8.6686    -4.0743     4.0048 H       
  44 H44          -10.2068    -4.6610     4.6436 H       
  45 H45           -9.1851    -2.5328     5.3531 H       
  46 H46          -10.7795    -1.9129     5.8490 H       
  47 H47           -9.3497    -4.3446     7.0173 H       
  48 H48           -9.5535    -2.7650     7.8125 H       
  49 H49          -11.3170    -5.7270     6.6676 H       
  50 H50          -12.8943    -5.1125     7.2185 H       
  51 H51          -12.8401    -3.3609     5.4826 H       
  52 H52          -12.6495    -4.9672     4.7371 H       
  53 H53          -11.1956    -2.2595     1.0714 H       
  54 H54           -9.3432    -2.2754    -0.5444 H       
@<TRIPOS>BOND
   1    1    2 1
   2    1   29 1
   3    1   30 1
   4    1   31 1
   5    2    3 1
   6    2   32 1
   7    2   33 1
   8    3    4 1
   9    3   34 1
  10    3   35 1
  11    4    5 1
  12    4   36 1
  13    4   37 1
  14    5   27 am
  15    5    6 1
  16    6    7 1
  17    6   38 1
  18    6   39 1
  19    7    8 1
  20    7   40 1
  21    7   41 1
  22    8   13 1
  23    8    9 1
  24    9   10 2
  25    9   27 1
  26   10   11 1
  27   11   12 1
  28   11   13 2
  29   13   14 1
  30   14   26 ar
  31   14   15 ar
  32   15   16 ar
  33   15   42 1
  34   16   17 ar
  35   16   43 1
  36   17   18 1
  37   17   25 ar
  38   18   19 1
  39   19   24 1
  40   19   20 1
  41   19   44 1
  42   20   21 1
  43   20   45 1
  44   20   46 1
  45   21   22 1
  46   21   47 1
  47   21   48 1
  48   22   23 1
  49   23   24 1
  50   23   49 1
  51   23   50 1
  52   24   51 1
  53   24   52 1
  54   25   26 ar
  55   25   53 1
  56   26   54 1
  57   27   28 2

#	End of record

