#	Name: ASD01810045
#	Creating user name:	WinNT
#	Creation time:	15. 06. 2019 19:23

#	Modifying user name:	WinNT
#	Modification time:	15. 06. 2019 19:23

#	Program:	/corina/corina34_cracker 3.40 0067  02.08.2006

@<TRIPOS>MOLECULE
ASD01810045
  62   69    0    0    0
SMALL
NO_CHARGES


@<TRIPOS>ATOM
   1 C1            -0.1763     1.2888     0.4354 C.ar    
   2 C2            -0.1161    -0.1195     0.3185 C.ar    
   3 C3             1.1196    -0.7494     0.1547 C.ar    
   4 C4             2.2928     0.0116     0.1015 C.ar    
   5 C5             2.2280     1.4095     0.2124 C.ar    
   6 C6             0.9968     2.0343     0.3810 C.ar    
   7 N7             3.6151    -0.3781    -0.0496 N.pl3   
   8 C8             4.4197     0.7364    -0.0490 C.ar    
   9 C9             3.6098     1.8825     0.1109 C.ar    
  10 C10            5.8030     0.8574    -0.1770 C.ar    
  11 C11            6.3300     2.1376    -0.1402 C.ar    
  12 C12            5.5341     3.2584     0.0163 C.ar    
  13 C13            4.1583     3.1643     0.1462 C.ar    
  14 C14           -1.1148    -1.1844     0.3259 C.ar    
  15 C15           -0.4115    -2.4019     0.1704 C.ar    
  16 N16            0.9293    -2.1257     0.0706 N.pl3   
  17 C17           -2.5050    -1.1567     0.4508 C.ar    
  18 C18           -3.1593    -2.3764     0.4155 C.ar    
  19 C19           -2.4731    -3.5686     0.2646 C.ar    
  20 C20           -1.0948    -3.6167     0.1390 C.ar    
  21 C21            0.5922     3.4801     0.5352 C.3     
  22 N22           -0.8679     3.4821     0.6794 N.am    
  23 C23           -1.3054     2.2128     0.6232 C.2     
  24 O24           -2.4708     1.8759     0.7102 O.2     
  25 C25            2.0067    -3.1016    -0.0998 C.3     
  26 O26            3.0962    -2.5772    -0.8248 O.3     
  27 C27            4.0586    -1.7659    -0.1906 C.3     
  28 C28            2.4241    -3.6802     1.2463 C.3     
  29 C29            4.5022    -2.3266     1.1547 C.3     
  30 C30            3.2675    -2.6489     2.0043 C.3     
  31 C31            5.2976    -1.7521    -1.0882 C.3     
  32 H32            1.6009    -3.9285    -0.6827 H       
  33 O33            5.2620    -3.5190     0.9469 O.3     
  34 C34            5.3520    -1.3072     1.8685 C.2     
  35 O35            6.6736    -1.2560     1.6391 O.3     
  36 O36            4.8438    -0.5358     2.6473 O.2     
  37 C37            7.4296    -0.2488     2.3617 C.3     
  38 C38            5.7755    -4.0977     2.1484 C.3     
  39 H39            6.4357    -0.0093    -0.2990 H       
  40 H40            7.3981     2.2653    -0.2367 H       
  41 H41            5.9983     4.2333     0.0377 H       
  42 H42            3.5401     4.0413     0.2690 H       
  43 H43           -3.0441    -0.2284     0.5695 H       
  44 H44           -4.2351    -2.3980     0.5086 H       
  45 H45           -3.0313    -4.4929     0.2443 H       
  46 H46           -0.5720    -4.5545     0.0222 H       
  47 H47            1.0573     3.9069     1.4238 H       
  48 H48            0.8824     4.0470    -0.3495 H       
  49 H49           -1.4241     4.2680     0.7975 H       
  50 H50            1.5354    -3.9222     1.8292 H       
  51 H51            3.0119    -4.5841     1.0870 H       
  52 H52            2.6840    -1.7422     2.1644 H       
  53 H53            3.5784    -3.0615     2.9641 H       
  54 H54            6.1737    -1.4920    -0.4941 H       
  55 H55            5.4377    -2.7390    -1.5293 H       
  56 H56            5.1641    -1.0156    -1.8805 H       
  57 H57            7.0500     0.7412     2.1090 H       
  58 H58            7.3247    -0.4154     3.4338 H       
  59 H59            8.4817    -0.3160     2.0848 H       
  60 H60            6.4133    -4.9458     1.8994 H       
  61 H61            6.3574    -3.3524     2.6908 H       
  62 H62            4.9477    -4.4362     2.7713 H       
@<TRIPOS>BOND
   1    1    2 ar
   2    1    6 ar
   3    1   23 1
   4    2    3 ar
   5    2   14 1
   6    3    4 ar
   7    3   16 1
   8    4    5 ar
   9    4    7 1
  10    5    6 ar
  11    5    9 1
  12    6   21 1
  13    7    8 1
  14    7   27 1
  15    8    9 ar
  16    8   10 ar
  17    9   13 ar
  18   10   11 ar
  19   10   39 1
  20   11   12 ar
  21   11   40 1
  22   12   13 ar
  23   12   41 1
  24   13   42 1
  25   14   15 ar
  26   14   17 ar
  27   15   16 1
  28   15   20 ar
  29   16   25 1
  30   17   18 ar
  31   17   43 1
  32   18   19 ar
  33   18   44 1
  34   19   20 ar
  35   19   45 1
  36   20   46 1
  37   21   22 1
  38   21   47 1
  39   21   48 1
  40   22   23 am
  41   22   49 1
  42   23   24 2
  43   25   26 1
  44   25   28 1
  45   25   32 1
  46   26   27 1
  47   27   29 1
  48   27   31 1
  49   28   30 1
  50   28   50 1
  51   28   51 1
  52   29   33 1
  53   29   34 1
  54   29   30 1
  55   30   52 1
  56   30   53 1
  57   31   54 1
  58   31   55 1
  59   31   56 1
  60   33   38 1
  61   34   35 1
  62   34   36 2
  63   35   37 1
  64   37   57 1
  65   37   58 1
  66   37   59 1
  67   38   60 1
  68   38   61 1
  69   38   62 1

#	End of record

