#	Name: ASD08150375
#	Creating user name:	WinNT
#	Creation time:	15. 06. 2019 21:15

#	Modifying user name:	WinNT
#	Modification time:	15. 06. 2019 21:15

#	Program:	/corina/corina34_cracker 3.40 0067  02.08.2006

@<TRIPOS>MOLECULE
ASD08150375
  47   51    0    0    0
SMALL
NO_CHARGES


@<TRIPOS>ATOM
   1 N1             0.8821     2.9162    -1.4651 N.am    
   2 C2             1.3082     2.2918    -2.5802 C.2     
   3 C3             2.5181     1.5683    -2.5870 C.2     
   4 C4             3.2741     1.4911    -1.4623 C.2     
   5 C5             2.8288     2.1468    -0.2873 C.ar    
   6 C6             3.5749     2.0987     0.9056 C.ar    
   7 N7             3.1616     2.7046     1.9882 N.ar    
   8 C8             2.0157     3.4009     2.0277 C.ar    
   9 C9             1.2008     3.5033     0.8732 C.ar    
  10 C10            1.6196     2.8587    -0.3145 C.ar    
  11 C11            0.0080     4.2305     0.9250 C.ar    
  12 C12           -0.3655     4.8455     2.1098 C.ar    
  13 C13            0.4467     4.7400     3.2483 C.ar    
  14 C14            1.6095     4.0361     3.2130 C.ar    
  15 O15            0.6384     2.3530    -3.5970 O.2     
  16 C16           -1.6285     5.6185     2.1736 C.ar    
  17 C17           -0.3205     3.6335    -1.4857 C.ar    
  18 C18           -0.3143     4.9926    -1.7721 C.ar    
  19 C19           -1.5004     5.7007    -1.7926 C.ar    
  20 C20           -2.6969     5.0581    -1.5284 C.ar    
  21 C21           -2.7080     3.6987    -1.2415 C.ar    
  22 C22           -1.5202     2.9855    -1.2256 C.ar    
  23 F23           -3.8553     5.7531    -1.5491 F       
  24 C24           -2.7572     5.1884     1.4726 C.ar    
  25 N25           -3.8798     5.8692     1.5245 N.ar    
  26 C26           -3.9889     6.9842     2.2389 C.ar    
  27 C27           -2.9035     7.4759     2.9664 C.ar    
  28 C28           -1.7071     6.7851     2.9413 C.ar    
  29 O29           -3.8839     3.0677    -0.9815 O.3     
  30 C30           -3.8202     1.6693    -0.6945 C.3     
  31 C31           -5.2345     7.6903     2.2626 C.1     
  32 N32           -6.2226     8.2504     2.2813 N.1     
  33 H33            2.8443     1.0735    -3.4898 H       
  34 H34            4.2016     0.9376    -1.4627 H       
  35 H35            4.5055     1.5511     0.9271 H       
  36 H36           -0.6176     4.3128     0.0485 H       
  37 H37            0.1445     5.2242     4.1651 H       
  38 H38            2.2226     3.9649     4.0993 H       
  39 H39            0.6184     5.4962    -1.9785 H       
  40 H40           -1.4935     6.7576    -2.0147 H       
  41 H41           -1.5273     1.9278    -1.0071 H       
  42 H42           -2.7067     4.2863     0.8809 H       
  43 H43           -2.9990     8.3828     3.5450 H       
  44 H44           -0.8509     7.1416     3.4947 H       
  45 H45           -3.3873     1.1431    -1.5453 H       
  46 H46           -3.1997     1.5072     0.1869 H       
  47 H47           -4.8249     1.2909    -0.5062 H       
@<TRIPOS>BOND
   1    1    2 am
   2    1   10 1
   3    1   17 1
   4    2    3 1
   5    2   15 2
   6    3    4 2
   7    3   33 1
   8    4    5 1
   9    4   34 1
  10    5    6 ar
  11    5   10 ar
  12    6    7 ar
  13    6   35 1
  14    7    8 ar
  15    8    9 ar
  16    8   14 ar
  17    9   10 ar
  18    9   11 ar
  19   11   12 ar
  20   11   36 1
  21   12   13 ar
  22   12   16 1
  23   13   14 ar
  24   13   37 1
  25   14   38 1
  26   16   24 ar
  27   16   28 ar
  28   17   18 ar
  29   17   22 ar
  30   18   19 ar
  31   18   39 1
  32   19   20 ar
  33   19   40 1
  34   20   21 ar
  35   20   23 1
  36   21   22 ar
  37   21   29 1
  38   22   41 1
  39   24   25 ar
  40   24   42 1
  41   25   26 ar
  42   26   27 ar
  43   26   31 1
  44   27   28 ar
  45   27   43 1
  46   28   44 1
  47   29   30 1
  48   30   45 1
  49   30   46 1
  50   30   47 1
  51   31   32 3

#	End of record

