#	Name: ASD01913528
#	Creating user name:	WinNT
#	Creation time:	15. 06. 2019 20:01

#	Modifying user name:	WinNT
#	Modification time:	15. 06. 2019 20:01

#	Program:	/corina/corina34_cracker 3.40 0067  02.08.2006

@<TRIPOS>MOLECULE
ASD01913528
  55   59    0    0    0
SMALL
NO_CHARGES


@<TRIPOS>ATOM
   1 C1             0.0877     1.4562     0.3076 C.ar    
   2 C2             0.0479    -0.0126     0.1311 C.2     
   3 N3            -1.0123    -0.8153     0.3818 N.pl3   
   4 N4            -0.6019    -2.1226     0.0748 N.2     
   5 C5             0.6467    -2.0459    -0.3333 C.2     
   6 N6             1.0357    -0.7666    -0.3027 N.2     
   7 C7             1.4854    -3.1921    -0.7628 C.ar    
   8 C8             2.7997    -2.9798    -1.1752 C.ar    
   9 C9             3.5770    -4.0471    -1.5734 C.ar    
  10 C10            3.0515    -5.3321    -1.5637 C.ar    
  11 C11            1.7425    -5.5466    -1.1538 C.ar    
  12 C12            0.9624    -4.4838    -0.7491 C.ar    
  13 C13           -2.3279    -0.4021     0.8764 C.3     
  14 C14           -3.2438    -0.1399    -0.2913 C.2     
  15 N15           -4.5144     0.2547    -0.0758 N.am    
  16 O16           -2.8376    -0.2840    -1.4249 O.2     
  17 O17            3.8197    -6.3817    -1.9566 O.3     
  18 C18           -5.4244     0.5158    -1.2012 C.3     
  19 C19           -1.0989     2.1880     0.3579 C.ar    
  20 C20            1.3117     2.1140     0.4302 C.ar    
  21 C21            1.3422     3.4836     0.5945 C.ar    
  22 C22            0.1621     4.2044     0.6382 C.ar    
  23 C23           -1.0551     3.5572     0.5226 C.ar    
  24 C24           -6.5781    -0.4941    -1.1594 C.3     
  25 C25           -7.0841    -0.5969     0.2571 C.2     
  26 C26           -6.4006    -0.1893     1.3438 C.2     
  27 C27           -5.0298     0.4299     1.2944 C.3     
  28 C28            3.2158    -7.6764    -1.9219 C.3     
  29 N29           -8.2557    -1.0914     0.6784 N.2     
  30 C30           -8.3030    -0.9996     1.9793 C.2     
  31 O31           -7.1619    -0.4435     2.4161 O.3     
  32 C32           -9.4504    -1.4453     2.8487 C.3     
  33 H33            3.2088    -1.9803    -1.1832 H       
  34 H34            4.5953    -3.8831    -1.8934 H       
  35 H35            1.3363    -6.5472    -1.1477 H       
  36 H36           -0.0559    -4.6513    -0.4304 H       
  37 H37           -2.7479    -1.1937     1.4969 H       
  38 H38           -2.2244     0.5073     1.4683 H       
  39 H39           -5.8225     1.5273    -1.1208 H       
  40 H40           -4.8817     0.4103    -2.1406 H       
  41 H41           -2.0497     1.6839     0.2678 H       
  42 H42            2.2336     1.5523     0.3969 H       
  43 H43            2.2892     3.9941     0.6895 H       
  44 H44            0.1911     5.2762     0.7677 H       
  45 H45           -1.9729     4.1254     0.5572 H       
  46 H46           -7.3835    -0.1556    -1.8113 H       
  47 H47           -6.2221    -1.4692    -1.4918 H       
  48 H48           -4.3723    -0.0671     2.0077 H       
  49 H49           -5.0944     1.4930     1.5262 H       
  50 H50            2.9060    -7.9056    -0.9023 H       
  51 H51            2.3452    -7.6889    -2.5777 H       
  52 H52            3.9356    -8.4221    -2.2593 H       
  53 H53           -9.3032    -2.4854     3.1396 H       
  54 H54           -9.4937    -0.8211     3.7412 H       
  55 H55          -10.3841    -1.3517     2.2942 H       
@<TRIPOS>BOND
   1    1    2 1
   2    1   19 ar
   3    1   20 ar
   4    2    3 1
   5    2    6 2
   6    3    4 1
   7    3   13 1
   8    4    5 2
   9    5    6 1
  10    5    7 1
  11    7    8 ar
  12    7   12 ar
  13    8    9 ar
  14    8   33 1
  15    9   10 ar
  16    9   34 1
  17   10   11 ar
  18   10   17 1
  19   11   12 ar
  20   11   35 1
  21   12   36 1
  22   13   14 1
  23   13   37 1
  24   13   38 1
  25   14   15 am
  26   14   16 2
  27   15   18 1
  28   15   27 1
  29   17   28 1
  30   18   24 1
  31   18   39 1
  32   18   40 1
  33   19   23 ar
  34   19   41 1
  35   20   21 ar
  36   20   42 1
  37   21   22 ar
  38   21   43 1
  39   22   23 ar
  40   22   44 1
  41   23   45 1
  42   24   25 1
  43   24   46 1
  44   24   47 1
  45   25   26 2
  46   25   29 1
  47   26   27 1
  48   26   31 1
  49   27   48 1
  50   27   49 1
  51   28   50 1
  52   28   51 1
  53   28   52 1
  54   29   30 2
  55   30   31 1
  56   30   32 1
  57   32   53 1
  58   32   54 1
  59   32   55 1

#	End of record

