#	Name: ASD04880687
#	Creating user name:	WinNT
#	Creation time:	15. 06. 2019 20:53

#	Modifying user name:	WinNT
#	Modification time:	15. 06. 2019 20:53

#	Program:	/corina/corina34_cracker 3.40 0067  02.08.2006

@<TRIPOS>MOLECULE
ASD04880687
  59   62    0    0    0
SMALL
NO_CHARGES


@<TRIPOS>ATOM
   1 C1             1.8066     0.1579     1.6567 C.ar    
   2 C2             2.3350    -1.1153     1.6883 C.ar    
   3 C3             3.6380    -1.3398     1.2680 C.ar    
   4 C4             4.4188    -0.2802     0.8116 C.ar    
   5 C5             3.8959     0.9989     0.7766 C.ar    
   6 C6             2.5838     1.2255     1.2002 C.ar    
   7 O7             4.1542    -2.5969     1.3021 O.3     
   8 C8             3.2992    -3.6366     1.7817 C.3     
   9 N9             2.6461     3.6404     0.7647 N.2     
  10 N10            1.8915     4.8099     0.8299 N.am    
  11 C11            0.5560     4.4858     1.3559 C.3     
  12 C12            0.6207     2.9642     1.5942 C.3     
  13 C13            2.0209     2.5876     1.1656 C.2     
  14 C14            2.3157     6.0376     0.4702 C.2     
  15 C15            3.7153     6.2273    -0.0554 C.3     
  16 O16            1.5708     6.9900     0.5696 O.2     
  17 C17            3.8631     5.4973    -1.3655 C.ar    
  18 O18            3.9643     7.6201    -0.2555 O.3     
  19 C19            3.4792     6.1095    -2.5446 C.ar    
  20 C20            3.6135     5.4426    -3.7481 C.ar    
  21 C21            4.1318     4.1622    -3.7757 C.ar    
  22 C22            4.5180     3.5459    -2.5943 C.ar    
  23 C23            4.3870     4.2196    -1.3881 C.ar    
  24 O24            5.6958    -0.5041     0.4009 O.3     
  25 C25            6.4388     0.6283    -0.0547 C.3     
  26 C26            5.3327     7.9959    -0.0876 C.3     
  27 O27            5.0280     2.2866    -2.6187 O.3     
  28 C28            5.2431     1.7088    -3.8296 C.ar    
  29 C29            6.4570     1.8855    -4.4782 C.ar    
  30 C30            6.6733     1.2966    -5.7089 C.ar    
  31 C31            5.6814     0.5316    -6.2945 C.ar    
  32 C32            4.4709     0.3540    -5.6503 C.ar    
  33 C33            4.2514     0.9363    -4.4171 C.ar    
  34 H34            0.7906     0.3292     1.9806 H       
  35 H35            1.7332    -1.9397     2.0413 H       
  36 H36            4.5003     1.8213     0.4233 H       
  37 H37            2.9980    -3.4159     2.8057 H       
  38 H38            2.4144    -3.7004     1.1484 H       
  39 H39            3.8332    -4.5865     1.7568 H       
  40 H40            0.3741     5.0133     2.2923 H       
  41 H41           -0.2139     4.7269     0.6229 H       
  42 H42            0.4693     2.7356     2.6492 H       
  43 H43           -0.1185     2.4493     0.9805 H       
  44 H44            4.4307     5.8300     0.6646 H       
  45 H45            3.0736     7.1102    -2.5252 H       
  46 H46            3.3127     5.9228    -4.6675 H       
  47 H47            4.2358     3.6414    -4.7161 H       
  48 H48            4.6905     3.7435    -0.4674 H       
  49 H49            6.5138     1.3609     0.7490 H       
  50 H50            7.4384     0.3114    -0.3519 H       
  51 H51            5.9308     1.0766    -0.9086 H       
  52 H52            5.9492     7.4528    -0.8040 H       
  53 H53            5.4385     9.0676    -0.2562 H       
  54 H54            5.6543     7.7539     0.9254 H       
  55 H55            7.2319     2.4832    -4.0214 H       
  56 H56            7.6177     1.4342    -6.2143 H       
  57 H57            5.8524     0.0724    -7.2569 H       
  58 H58            3.6977    -0.2437    -6.1100 H       
  59 H59            3.3073     0.7938    -3.9124 H       
@<TRIPOS>BOND
   1    1    2 ar
   2    1    6 ar
   3    1   34 1
   4    2    3 ar
   5    2   35 1
   6    3    4 ar
   7    3    7 1
   8    4    5 ar
   9    4   24 1
  10    5    6 ar
  11    5   36 1
  12    6   13 1
  13    7    8 1
  14    8   37 1
  15    8   38 1
  16    8   39 1
  17    9   10 1
  18    9   13 2
  19   10   11 1
  20   10   14 am
  21   11   12 1
  22   11   40 1
  23   11   41 1
  24   12   13 1
  25   12   42 1
  26   12   43 1
  27   14   15 1
  28   14   16 2
  29   15   17 1
  30   15   18 1
  31   15   44 1
  32   17   19 ar
  33   17   23 ar
  34   18   26 1
  35   19   20 ar
  36   19   45 1
  37   20   21 ar
  38   20   46 1
  39   21   22 ar
  40   21   47 1
  41   22   23 ar
  42   22   27 1
  43   23   48 1
  44   24   25 1
  45   25   49 1
  46   25   50 1
  47   25   51 1
  48   26   52 1
  49   26   53 1
  50   26   54 1
  51   27   28 1
  52   28   29 ar
  53   28   33 ar
  54   29   30 ar
  55   29   55 1
  56   30   31 ar
  57   30   56 1
  58   31   32 ar
  59   31   57 1
  60   32   33 ar
  61   32   58 1
  62   33   59 1

#	End of record

