#	Name: ASD01208561
#	Creating user name:	WinNT
#	Creation time:	15. 06. 2019 19:10

#	Modifying user name:	WinNT
#	Modification time:	15. 06. 2019 19:10

#	Program:	/corina/corina34_cracker 3.40 0067  02.08.2006

@<TRIPOS>MOLECULE
ASD01208561
  71   72    0    0    0
SMALL
NO_CHARGES


@<TRIPOS>ATOM
   1 C1             0.8693     1.3483     0.7072 C.3     
   2 C2             1.5266     0.0057     1.0335 C.3     
   3 C3             0.4443    -1.0582     1.2278 C.3     
   4 C4            -0.2957    -1.2801    -0.0928 C.3     
   5 O5             2.3845    -0.3786    -0.0428 O.3     
   6 O6             1.8709     2.3653     0.6405 O.3     
   7 Si7            1.3052     3.8243     0.1807 Si      
   8 C8             0.4989     4.1880     2.8131 C.3     
   9 C9            -0.0018     4.3902     1.3816 C.3     
  10 C10           -0.2995     5.8730     1.1501 C.3     
  11 C11            3.4225     5.0324     1.5111 C.3     
  12 C12            2.7042     5.0545     0.1603 C.3     
  13 C13            3.6917     4.6854    -0.9485 C.3     
  14 C14            0.3722     5.0975    -2.1041 C.3     
  15 C15            0.5672     3.6949    -1.5250 C.3     
  16 C16            1.5087     2.8963    -2.4288 C.3     
  17 N17            1.0670    -2.3173     1.6578 N.3     
  18 C18            0.1131    -3.1481     2.4046 C.3     
  19 C19            0.5188    -4.5957     2.3003 C.ar    
  20 C20           -0.4446    -5.5734     2.1361 C.ar    
  21 C21           -0.0725    -6.9013     2.0404 C.ar    
  22 C22            1.2630    -7.2515     2.1085 C.ar    
  23 C23            2.2265    -6.2737     2.2718 C.ar    
  24 C24            1.8547    -4.9455     2.3632 C.ar    
  25 C25            0.1095    -2.7306     3.8526 C.ar    
  26 C26           -1.0815    -2.6708     4.5518 C.ar    
  27 C27           -1.0848    -2.2878     5.8800 C.ar    
  28 C28            0.1030    -1.9649     6.5092 C.ar    
  29 C29            1.2941    -2.0255     5.8103 C.ar    
  30 C30            1.2979    -2.4127     4.4833 C.ar    
  31 H31            0.3577     1.2786    -0.2528 H       
  32 H32            0.1486     1.5986     1.4857 H       
  33 H33            2.1115     0.1003     1.9483 H       
  34 H34           -0.2616    -0.7237     1.9881 H       
  35 H35            0.4102    -1.6145    -0.8531 H       
  36 H36           -1.0667    -2.0380     0.0456 H       
  37 H37           -0.7577    -0.3458    -0.4119 H       
  38 H38            1.9303    -0.4817    -0.8902 H       
  39 H39            1.3224     4.8743     3.0104 H       
  40 H40           -0.3132     4.3841     3.5132 H       
  41 H41            0.8442     3.1614     2.9356 H       
  42 H42           -0.9113     3.8090     1.2293 H       
  43 H43            0.6307     6.4402     1.1858 H       
  44 H44           -0.7663     6.0018     0.1736 H       
  45 H45           -0.9748     6.2335     1.9260 H       
  46 H46            3.6895     4.0063     1.7639 H       
  47 H47            4.3262     5.6389     1.4520 H       
  48 H48            2.7635     5.4362     2.2797 H       
  49 H49            2.3075     6.0528    -0.0239 H       
  50 H50            3.2210     4.8377    -1.9198 H       
  51 H51            4.5773     5.3162    -0.8711 H       
  52 H52            3.9804     3.6395    -0.8446 H       
  53 H53            1.3365     5.6016    -2.1679 H       
  54 H54           -0.0649     5.0220    -3.0997 H       
  55 H55           -0.2940     5.6683    -1.4572 H       
  56 H56           -0.3964     3.1887    -1.4665 H       
  57 H57            1.7015     1.9212    -1.9815 H       
  58 H58            1.0467     2.7625    -3.4069 H       
  59 H59            2.4487     3.4365    -2.5419 H       
  60 H60            1.4457    -2.8210     0.8698 H       
  61 H61           -0.8854    -3.0196     1.9869 H       
  62 H62           -1.4880    -5.2998     2.0828 H       
  63 H63           -0.8252    -7.6652     1.9128 H       
  64 H64            1.5537    -8.2890     2.0345 H       
  65 H65            3.2699    -6.5474     2.3254 H       
  66 H66            2.6077    -4.1812     2.4871 H       
  67 H67           -2.0094    -2.9231     4.0602 H       
  68 H68           -2.0154    -2.2404     6.4260 H       
  69 H69            0.1003    -1.6649     7.5467 H       
  70 H70            2.2220    -1.7729     6.3018 H       
  71 H71            2.2289    -2.4636     3.9383 H       
@<TRIPOS>BOND
   1    1    2 1
   2    1    6 1
   3    1   31 1
   4    1   32 1
   5    2    3 1
   6    2    5 1
   7    2   33 1
   8    3    4 1
   9    3   17 1
  10    3   34 1
  11    4   35 1
  12    4   36 1
  13    4   37 1
  14    5   38 1
  15    6    7 1
  16    7    9 1
  17    7   12 1
  18    7   15 1
  19    8    9 1
  20    8   39 1
  21    8   40 1
  22    8   41 1
  23    9   10 1
  24    9   42 1
  25   10   43 1
  26   10   44 1
  27   10   45 1
  28   11   12 1
  29   11   46 1
  30   11   47 1
  31   11   48 1
  32   12   13 1
  33   12   49 1
  34   13   50 1
  35   13   51 1
  36   13   52 1
  37   14   15 1
  38   14   53 1
  39   14   54 1
  40   14   55 1
  41   15   16 1
  42   15   56 1
  43   16   57 1
  44   16   58 1
  45   16   59 1
  46   17   18 1
  47   17   60 1
  48   18   19 1
  49   18   25 1
  50   18   61 1
  51   19   20 ar
  52   19   24 ar
  53   20   21 ar
  54   20   62 1
  55   21   22 ar
  56   21   63 1
  57   22   23 ar
  58   22   64 1
  59   23   24 ar
  60   23   65 1
  61   24   66 1
  62   25   26 ar
  63   25   30 ar
  64   26   27 ar
  65   26   67 1
  66   27   28 ar
  67   27   68 1
  68   28   29 ar
  69   28   69 1
  70   29   30 ar
  71   29   70 1
  72   30   71 1

#	End of record

