#	Name: ASD03240011
#	Creating user name:	WinNT
#	Creation time:	15. 06. 2019 20:34

#	Modifying user name:	WinNT
#	Modification time:	15. 06. 2019 20:34

#	Program:	/corina/corina34_cracker 3.40 0067  02.08.2006

@<TRIPOS>MOLECULE
ASD03240011
  76   82    0    0    0
SMALL
NO_CHARGES


@<TRIPOS>ATOM
   1 C1            -0.0096     1.3720     0.2514 C.2     
   2 C2             0.0638     0.3602    -0.7313 C.2     
   3 N3             1.0503     1.6977     0.9488 N.2     
   4 C4             2.2188     1.0837     0.7478 C.2     
   5 C5             2.3317     0.0815    -0.2121 C.2     
   6 N6             1.2358    -0.2727    -0.9500 N.am    
   7 C7             3.6245    -0.5941    -0.4316 C.ar    
   8 C8             3.4022     1.4714     1.5504 C.ar    
   9 C9             3.7530     2.8153     1.6762 C.ar    
  10 C10            4.8563     3.1702     2.4251 C.ar    
  11 C11            5.6140     2.1960     3.0501 C.ar    
  12 C12            5.2713     0.8612     2.9286 C.ar    
  13 C13            4.1663     0.4944     2.1879 C.ar    
  14 C14            3.6916    -1.9897    -0.4590 C.ar    
  15 C15            4.9037    -2.6144    -0.6651 C.ar    
  16 C16            6.0517    -1.8627    -0.8446 C.ar    
  17 C17            5.9929    -0.4803    -0.8188 C.ar    
  18 C18            4.7870     0.1584    -0.6189 C.ar    
  19 C19            7.3724    -2.5529    -1.0689 C.3     
  20 N20            7.5777    -2.7616    -2.5084 N.3     
  21 C21            8.9475    -3.2129    -2.7847 C.3     
  22 C22            9.1687    -3.2796    -4.2975 C.3     
  23 C23            8.1575    -4.2502    -4.9139 C.3     
  24 C24            6.7399    -3.7842    -4.5707 C.3     
  25 C25            6.5892    -3.7029    -3.0499 C.3     
  26 N26            8.3261    -4.2741    -6.3690 N.am    
  27 C27            8.6478    -5.3927    -7.1341 C.ar    
  28 C28            8.7079    -4.9689    -8.4631 C.ar    
  29 N29            8.4209    -3.6059    -8.4644 N.am    
  30 C30            8.1908    -3.2197    -7.1953 C.2     
  31 C31            8.8922    -6.7213    -6.8213 C.ar    
  32 C32            9.1940    -7.6197    -7.8257 C.ar    
  33 C33            9.2536    -7.1995    -9.1435 C.ar    
  34 C34            9.0117    -5.8783    -9.4648 C.ar    
  35 O35            7.9115    -2.0877    -6.8470 O.2     
  36 O36           -0.9257     0.0600    -1.3781 O.2     
  37 C37           -1.3143     2.0858     0.4949 C.3     
  38 C38           -1.1302     3.1113     1.5837 C.ar    
  39 C39           -0.7509     4.4009     1.2616 C.ar    
  40 C40           -0.5820     5.3416     2.2603 C.ar    
  41 C41           -0.7930     4.9927     3.5812 C.ar    
  42 C42           -1.1732     3.7033     3.9032 C.ar    
  43 C43           -1.3463     2.7638     2.9041 C.ar    
  44 H44            1.3002    -0.9690    -1.6222 H       
  45 H45            3.1626     3.5766     1.1882 H       
  46 H46            5.1289     4.2106     2.5233 H       
  47 H47            6.4769     2.4786     3.6349 H       
  48 H48            5.8671     0.1051     3.4183 H       
  49 H49            3.8995    -0.5479     2.0941 H       
  50 H50            2.7965    -2.5775    -0.3187 H       
  51 H51            4.9572    -3.6928    -0.6862 H       
  52 H52            6.8929     0.0999    -0.9596 H       
  53 H53            4.7425     1.2373    -0.5993 H       
  54 H54            8.1776    -1.9341    -0.6730 H       
  55 H55            7.3702    -3.5162    -0.5588 H       
  56 H56            9.6566    -2.5117    -2.3446 H       
  57 H57            9.0985    -4.2017    -2.3516 H       
  58 H58            9.0314    -2.2882    -4.7294 H       
  59 H59           10.1805    -3.6295    -4.5023 H       
  60 H60            8.3199    -5.2499    -4.5110 H       
  61 H61            6.5645    -2.8009    -5.0069 H       
  62 H62            6.0165    -4.4947    -4.9706 H       
  63 H63            6.7512    -4.6895    -2.6156 H       
  64 H64            5.5853    -3.3577    -2.8024 H       
  65 H65            8.3885    -3.0334    -9.2468 H       
  66 H66            8.8469    -7.0527    -5.7944 H       
  67 H67            9.3846    -8.6545    -7.5822 H       
  68 H68            9.4902    -7.9080    -9.9236 H       
  69 H69            9.0588    -5.5542   -10.4940 H       
  70 H70           -1.6334     2.5822    -0.4216 H       
  71 H71           -2.0719     1.3640     0.7999 H       
  72 H72           -0.5861     4.6735     0.2296 H       
  73 H73           -0.2850     6.3490     2.0087 H       
  74 H74           -0.6604     5.7275     4.3616 H       
  75 H75           -1.3377     3.4307     4.9352 H       
  76 H76           -1.6434     1.7564     3.1557 H       
@<TRIPOS>BOND
   1    1    2 1
   2    1    3 2
   3    1   37 1
   4    2   36 2
   5    2    6 am
   6    3    4 1
   7    4    5 2
   8    4    8 1
   9    5    6 1
  10    5    7 1
  11    6   44 1
  12    7   14 ar
  13    7   18 ar
  14    8    9 ar
  15    8   13 ar
  16    9   10 ar
  17    9   45 1
  18   10   11 ar
  19   10   46 1
  20   11   12 ar
  21   11   47 1
  22   12   13 ar
  23   12   48 1
  24   13   49 1
  25   14   15 ar
  26   14   50 1
  27   15   16 ar
  28   15   51 1
  29   16   17 ar
  30   16   19 1
  31   17   18 ar
  32   17   52 1
  33   18   53 1
  34   19   20 1
  35   19   54 1
  36   19   55 1
  37   20   21 1
  38   20   25 1
  39   21   22 1
  40   21   56 1
  41   21   57 1
  42   22   23 1
  43   22   58 1
  44   22   59 1
  45   23   24 1
  46   23   26 1
  47   23   60 1
  48   24   25 1
  49   24   61 1
  50   24   62 1
  51   25   63 1
  52   25   64 1
  53   26   27 1
  54   26   30 am
  55   27   28 ar
  56   27   31 ar
  57   28   29 1
  58   28   34 ar
  59   29   30 am
  60   29   65 1
  61   30   35 2
  62   31   32 ar
  63   31   66 1
  64   32   33 ar
  65   32   67 1
  66   33   34 ar
  67   33   68 1
  68   34   69 1
  69   37   38 1
  70   37   70 1
  71   37   71 1
  72   38   39 ar
  73   38   43 ar
  74   39   40 ar
  75   39   72 1
  76   40   41 ar
  77   40   73 1
  78   41   42 ar
  79   41   74 1
  80   42   43 ar
  81   42   75 1
  82   43   76 1

#	End of record

