#	Name: ASD03331002
#	Creating user name:	WinNT
#	Creation time:	15. 06. 2019 20:38

#	Modifying user name:	WinNT
#	Modification time:	15. 06. 2019 20:38

#	Program:	/corina/corina34_cracker 3.40 0067  02.08.2006

@<TRIPOS>MOLECULE
ASD03331002
  64   67    0    0    0
SMALL
NO_CHARGES


@<TRIPOS>ATOM
   1 N1            -0.8739     1.7433    -0.4495 N.pl3   
   2 C2            -0.6929     0.4226    -0.1806 C.2     
   3 C3             0.6228    -0.2341     0.1462 C.3     
   4 N4             1.3236     0.5685     1.1607 N.3     
   5 C5             2.1594     1.5972     0.5385 C.3     
   6 C6             1.5207     2.1156    -0.7468 C.3     
   7 C7             0.1729     2.7689    -0.4291 C.3     
   8 C8            -2.1977     1.9264    -0.7250 C.2     
   9 N9            -2.8124     0.7721    -0.6135 N.2     
  10 C10           -1.9117    -0.1768    -0.2756 C.2     
  11 C11           -2.1973    -1.6047    -0.0507 C.2     
  12 O12           -1.2970    -2.3649     0.2504 O.2     
  13 N13           -3.4563    -2.0684    -0.1787 N.am    
  14 C14            2.1181    -0.2870     2.0522 C.3     
  15 C15           -4.9823    -3.8777    -0.7145 C.2     
  16 C16           -3.7403    -3.4881     0.0449 C.3     
  17 C17           -3.9574    -3.7356     1.5391 C.3     
  18 C18           -4.3877    -5.1874     1.7583 C.3     
  19 O19           -5.8608    -3.0622    -0.8994 O.2     
  20 C20           -2.6538    -3.4705     2.2947 C.3     
  21 C21           -5.0480    -2.7966     2.0584 C.3     
  22 N22           -5.1169    -5.1323    -1.1881 N.am    
  23 C23           -6.1695    -5.8989    -1.8717 C.3     
  24 C24           -5.5643    -7.1706    -1.2613 C.3     
  25 C25           -4.2735    -6.3352    -1.2546 C.3     
  26 F26           -6.0550    -7.4862     0.0102 F       
  27 F27           -5.5315    -8.2652    -2.1320 F       
  28 C28           -2.8338     3.2112    -1.0880 C.ar    
  29 C29           -3.7093     3.2783    -2.1754 C.ar    
  30 C30           -4.2999     4.4823    -2.5088 C.ar    
  31 C31           -4.0249     5.6190    -1.7682 C.ar    
  32 C32           -3.1581     5.5572    -0.6900 C.ar    
  33 C33           -2.5669     4.3601    -0.3431 C.ar    
  34 F34           -3.9771     2.1692    -2.8989 F       
  35 Cl35          -4.7695     7.1285    -2.1932 Cl      
  36 H36            0.4431    -1.2365     0.5350 H       
  37 H37            1.2330    -0.2958    -0.7549 H       
  38 H38            2.2855     2.4258     1.2353 H       
  39 H39            3.1365     1.1731     0.3071 H       
  40 H40            2.1801     2.8510    -1.2080 H       
  41 H41            1.3675     1.2851    -1.4359 H       
  42 H42           -0.0483     3.5303    -1.1770 H       
  43 H43            0.2142     3.2279     0.5587 H       
  44 H44           -4.1744    -1.4621    -0.4188 H       
  45 H45            2.8099    -0.8858     1.4598 H       
  46 H46            2.6804     0.3360     2.7477 H       
  47 H47            1.4534    -0.9461     2.6107 H       
  48 H48           -2.8986    -4.0864    -0.3039 H       
  49 H49           -3.5987    -5.8561     1.4142 H       
  50 H50           -4.5698    -5.3561     2.8197 H       
  51 H51           -5.3012    -5.3843     1.1972 H       
  52 H52           -2.3472    -2.4362     2.1385 H       
  53 H53           -2.8084    -3.6468     3.3592 H       
  54 H54           -1.8768    -4.1395     1.9247 H       
  55 H55           -5.9768    -2.9855     1.5201 H       
  56 H56           -5.2027    -2.9729     3.1229 H       
  57 H57           -4.7415    -1.7623     1.9022 H       
  58 H58           -7.1730    -5.6780    -1.5080 H       
  59 H59           -6.0969    -5.8621    -2.9586 H       
  60 H60           -3.7011    -6.4134    -2.1789 H       
  61 H61           -3.6617    -6.4861    -0.3652 H       
  62 H62           -4.9768     4.5366    -3.3486 H       
  63 H63           -2.9479     6.4478    -0.1163 H       
  64 H64           -1.8947     4.3134     0.5010 H       
@<TRIPOS>BOND
   1    1    2 1
   2    1    7 1
   3    1    8 1
   4    2    3 1
   5    2   10 2
   6    3    4 1
   7    3   36 1
   8    3   37 1
   9    4    5 1
  10    4   14 1
  11    5    6 1
  12    5   38 1
  13    5   39 1
  14    6    7 1
  15    6   40 1
  16    6   41 1
  17    7   42 1
  18    7   43 1
  19    8    9 2
  20    8   28 1
  21    9   10 1
  22   10   11 1
  23   11   12 2
  24   11   13 am
  25   13   16 1
  26   13   44 1
  27   14   45 1
  28   14   46 1
  29   14   47 1
  30   15   19 2
  31   15   22 am
  32   15   16 1
  33   16   17 1
  34   16   48 1
  35   17   18 1
  36   17   20 1
  37   17   21 1
  38   18   49 1
  39   18   50 1
  40   18   51 1
  41   20   52 1
  42   20   53 1
  43   20   54 1
  44   21   55 1
  45   21   56 1
  46   21   57 1
  47   22   23 1
  48   22   25 1
  49   23   24 1
  50   23   58 1
  51   23   59 1
  52   24   25 1
  53   24   26 1
  54   24   27 1
  55   25   60 1
  56   25   61 1
  57   28   29 ar
  58   28   33 ar
  59   29   30 ar
  60   29   34 1
  61   30   31 ar
  62   30   62 1
  63   31   32 ar
  64   31   35 1
  65   32   33 ar
  66   32   63 1
  67   33   64 1

#	End of record

