#	Name: ASD01810590
#	Creating user name:	WinNT
#	Creation time:	15. 06. 2019 19:24

#	Modifying user name:	WinNT
#	Modification time:	15. 06. 2019 19:24

#	Program:	/corina/corina34_cracker 3.40 0067  02.08.2006

@<TRIPOS>MOLECULE
ASD01810590
  61   66    0    0    0
SMALL
NO_CHARGES


@<TRIPOS>ATOM
   1 N1            -0.0146     1.2921    -0.1095 N.pl3   
   2 N2             0.0048     0.0233    -0.2966 N.2     
   3 C3             1.1029    -0.6746    -0.4309 C.2     
   4 C4             2.4177     0.0096    -0.3684 C.2     
   5 C5             2.3881     1.4682    -0.1540 C.ar    
   6 C6             3.5432     2.2347    -0.0752 C.ar    
   7 C7             3.4437     3.5965     0.1268 C.ar    
   8 C8             2.1995     4.1956     0.2501 C.ar    
   9 C9             1.0438     3.4448     0.1740 C.ar    
  10 C10            1.1220     2.0706    -0.0279 C.ar    
  11 N11            2.7727    -2.1619    -0.6972 N.am    
  12 N12            3.3367    -0.8950    -0.5276 N.2     
  13 C13            1.4253    -2.0867    -0.6474 C.2     
  14 O14            0.6355    -3.0095    -0.7597 O.2     
  15 C15           -1.3160     1.9525     0.0188 C.3     
  16 C16           -4.3992    -0.9110    -0.4132 C.ar    
  17 C17           -3.9042    -0.6577     0.8644 C.ar    
  18 C18           -2.8951     0.2763     1.0216 C.ar    
  19 C19           -2.4138     0.9276    -0.1055 C.ar    
  20 C20           -2.9515     0.6276    -1.3433 C.ar    
  21 N21           -3.9117    -0.2665    -1.4651 N.ar    
  22 C22           -6.0694    -2.5287     0.5018 C.ar    
  23 C23           -5.4766    -1.9137    -0.5992 C.ar    
  24 C24           -5.9138    -2.2567    -1.8815 C.ar    
  25 C25           -6.9223    -3.1976    -2.0016 C.ar    
  26 C26           -7.4597    -3.7626    -0.8597 C.ar    
  27 N27           -7.0266    -3.4185     0.3379 N.ar    
  28 C28           -8.5577    -4.7872    -0.9853 C.3     
  29 C29            3.5347    -3.3964    -0.9007 C.3     
  30 C30            4.3801    -3.2706    -2.1697 C.3     
  31 C31            5.1760    -4.5600    -2.3822 C.3     
  32 C32            6.0924    -4.7976    -1.1803 C.3     
  33 C33            5.2470    -4.9234     0.0887 C.3     
  34 C34            4.4512    -3.6341     0.3012 C.3     
  35 O35            3.5242    -3.0487    -3.2923 O.3     
  36 Cl36          -0.5046     4.2137     0.3318 Cl      
  37 H37            4.5127     1.7686    -0.1708 H       
  38 H38            4.3387     4.1978     0.1893 H       
  39 H39            2.1338     5.2620     0.4079 H       
  40 H40           -1.3820     2.4394     0.9917 H       
  41 H41           -1.4242     2.6982    -0.7688 H       
  42 H42           -4.3024    -1.1829     1.7200 H       
  43 H43           -2.4917     0.4940     1.9995 H       
  44 H44           -2.5793     1.1326    -2.2224 H       
  45 H45           -5.7382    -2.2764     1.4984 H       
  46 H46           -5.4763    -1.7991    -2.7565 H       
  47 H47           -7.2857    -3.4868    -2.9767 H       
  48 H48           -8.1194    -5.7827    -1.0551 H       
  49 H49           -9.2046    -4.7356    -0.1095 H       
  50 H50           -9.1432    -4.5843    -1.8820 H       
  51 H51            2.8465    -4.2353    -1.0043 H       
  52 H52            5.0683    -2.4318    -2.0661 H       
  53 H53            4.4877    -5.3988    -2.4858 H       
  54 H54            5.7782    -4.4703    -3.2863 H       
  55 H55            6.6594    -5.7161    -1.3318 H       
  56 H56            6.7806    -3.9587    -1.0768 H       
  57 H57            4.5588    -5.7623    -0.0149 H       
  58 H58            5.8999    -5.0927     0.9449 H       
  59 H59            5.1394    -2.7952     0.4048 H       
  60 H60            3.8489    -3.7237     1.2052 H       
  61 H61            3.9934    -2.9591    -4.1330 H       
@<TRIPOS>BOND
   1    1    2 1
   2    1   10 1
   3    1   15 1
   4    2    3 2
   5    3    4 1
   6    3   13 1
   7    4    5 1
   8    4   12 2
   9    5    6 ar
  10    5   10 ar
  11    6    7 ar
  12    6   37 1
  13    7    8 ar
  14    7   38 1
  15    8    9 ar
  16    8   39 1
  17    9   10 ar
  18    9   36 1
  19   11   12 1
  20   11   13 am
  21   11   29 1
  22   13   14 2
  23   15   19 1
  24   15   40 1
  25   15   41 1
  26   16   17 ar
  27   16   21 ar
  28   16   23 1
  29   17   18 ar
  30   17   42 1
  31   18   19 ar
  32   18   43 1
  33   19   20 ar
  34   20   21 ar
  35   20   44 1
  36   22   23 ar
  37   22   27 ar
  38   22   45 1
  39   23   24 ar
  40   24   25 ar
  41   24   46 1
  42   25   26 ar
  43   25   47 1
  44   26   27 ar
  45   26   28 1
  46   28   48 1
  47   28   49 1
  48   28   50 1
  49   29   30 1
  50   29   34 1
  51   29   51 1
  52   30   31 1
  53   30   35 1
  54   30   52 1
  55   31   32 1
  56   31   53 1
  57   31   54 1
  58   32   33 1
  59   32   55 1
  60   32   56 1
  61   33   34 1
  62   33   57 1
  63   33   58 1
  64   34   59 1
  65   34   60 1
  66   35   61 1

#	End of record

