#	Name: ASD02508255
#	Creating user name:	WinNT
#	Creation time:	15. 06. 2019 20:24

#	Modifying user name:	WinNT
#	Modification time:	15. 06. 2019 20:24

#	Program:	/corina/corina34_cracker 3.40 0067  02.08.2006

@<TRIPOS>MOLECULE
ASD02508255
  36   38    0    0    0
SMALL
NO_CHARGES


@<TRIPOS>ATOM
   1 C1             0.0849     0.9953     1.0238 C.ar    
   2 C2             0.0134    -0.3297     0.5945 C.ar    
   3 C3            -1.2234    -0.9125     0.3664 C.ar    
   4 C4            -2.3773    -0.1799     0.5648 C.ar    
   5 C5            -2.3054     1.1352     0.9904 C.ar    
   6 C6            -1.0776     1.7228     1.2256 C.ar    
   7 S7            -3.9484    -0.9227     0.2742 S.o2    
   8 N8            -4.4037    -1.6721     1.6791 N.am    
   9 C9            -3.6384    -2.7249     2.1896 C.ar    
  10 N10            1.4393     1.2960     1.1649 N.am    
  11 C11            2.1363     0.1916     0.8317 C.2     
  12 O12            1.2849    -0.7876     0.4884 O.3     
  13 O13           -4.8655     0.1439     0.0729 O.2     
  14 O14           -3.7344    -1.9541    -0.6795 O.2     
  15 C15            2.0018     2.5781     1.5963 C.3     
  16 O16            3.3486     0.0970     0.8408 O.2     
  17 C17           -3.3265    -2.7656     3.5424 C.ar    
  18 C18           -3.1937    -3.7341     1.3459 C.ar    
  19 C19           -2.4375    -4.7737     1.8519 C.ar    
  20 C20           -2.1230    -4.8105     3.1993 C.ar    
  21 C21           -2.5698    -3.8073     4.0448 C.ar    
  22 Cl22          -2.1738    -3.8560     5.7343 Cl      
  23 C23           -1.0018     3.1546     1.6895 C.3     
  24 F24           -1.3837    -5.8283     3.6919 F       
  25 H25           -1.2846    -1.9381     0.0335 H       
  26 H26           -3.2118     1.7022     1.1428 H       
  27 H27           -5.2014    -1.3806     2.1477 H       
  28 H28            1.5698     2.8596     2.5567 H       
  29 H29            3.0830     2.4849     1.6977 H       
  30 H30            1.7709     3.3438     0.8557 H       
  31 H31           -3.6748    -1.9838     4.2012 H       
  32 H32           -3.4393    -3.7066     0.2945 H       
  33 H33           -2.0917    -5.5587     1.1956 H       
  34 H34           -0.9188     3.1806     2.7761 H       
  35 H35           -0.1289     3.6343     1.2468 H       
  36 H36           -1.9030     3.6846     1.3813 H       
@<TRIPOS>BOND
   1    1    2 ar
   2    1   10 1
   3    1    6 ar
   4    2    3 ar
   5    2   12 1
   6    3    4 ar
   7    3   25 1
   8    4    5 ar
   9    4    7 1
  10    5    6 ar
  11    5   26 1
  12    6   23 1
  13    7    8 am
  14    7   13 2
  15    7   14 2
  16    8    9 1
  17    8   27 1
  18    9   17 ar
  19    9   18 ar
  20   10   11 am
  21   10   15 1
  22   11   12 1
  23   11   16 2
  24   15   28 1
  25   15   29 1
  26   15   30 1
  27   17   21 ar
  28   17   31 1
  29   18   19 ar
  30   18   32 1
  31   19   20 ar
  32   19   33 1
  33   20   21 ar
  34   20   24 1
  35   21   22 1
  36   23   34 1
  37   23   35 1
  38   23   36 1

#	End of record

