#	Name: ASD01881240
#	Creating user name:	WinNT
#	Creation time:	15. 06. 2019 19:42

#	Modifying user name:	WinNT
#	Modification time:	15. 06. 2019 19:42

#	Program:	/corina/corina34_cracker 3.40 0067  02.08.2006

@<TRIPOS>MOLECULE
ASD01881240
  50   53    0    0    0
SMALL
NO_CHARGES


@<TRIPOS>ATOM
   1 N1            -0.0314     1.2639    -0.1631 N.ar    
   2 C2             0.0466    -0.0493    -0.2021 C.ar    
   3 N3             1.1914    -0.6852    -0.0503 N.ar    
   4 C4             2.3225    -0.0178     0.1502 C.ar    
   5 C5             2.2874     1.3732     0.1989 C.ar    
   6 C6             1.0576     2.0078     0.0339 C.ar    
   7 C7             3.5456     2.1713     0.4246 C.3     
   8 O8             4.2283     2.3459    -0.8185 O.3     
   9 C9             5.3892     3.0482    -0.7906 C.ar    
  10 C10            6.1048     3.2553    -1.9663 C.ar    
  11 C11            7.2785     3.9659    -1.9379 C.ar    
  12 C12            7.7628     4.4853    -0.7324 C.ar    
  13 C13            7.0402     4.2747     0.4468 C.ar    
  14 C14            5.8589     3.5643     0.4105 C.ar    
  15 C15            8.2722     4.3620    -3.0015 C.3     
  16 N16            9.3231     5.1235    -2.3167 N.am    
  17 C17            9.0249     5.1919    -1.0080 C.2     
  18 O18            9.7011     5.7575    -0.1705 O.2     
  19 Cl19           7.6264     4.9114     1.9517 Cl      
  20 C20            0.9617     3.4869     0.0767 C.ar    
  21 C21            1.8928     4.2658    -0.6105 C.ar    
  22 C22            1.8051     5.6394    -0.5712 C.ar    
  23 C23            0.7826     6.2530     0.1570 C.ar    
  24 C24           -0.1497     5.4717     0.8445 C.ar    
  25 C25           -0.0629     4.0982     0.7993 C.ar    
  26 C26            0.6906     7.6814     0.1991 C.1     
  27 N27            0.6175     8.8145     0.2325 N.1     
  28 O28            3.4938    -0.6816     0.3056 O.3     
  29 C29            3.4442    -2.1084     0.2428 C.3     
  30 C30           10.1798     7.1379    -3.4074 C.3     
  31 C31           10.5030     5.7126    -2.9547 C.3     
  32 H32           -0.8541    -0.6231    -0.3631 H       
  33 H33            3.2880     3.1465     0.8378 H       
  34 H34            4.1924     1.6401     1.1229 H       
  35 H35            5.7368     2.8568    -2.9002 H       
  36 H36            5.3007     3.4019     1.3207 H       
  37 H37            8.6969     3.4727    -3.4673 H       
  38 H38            7.7878     4.9847    -3.7536 H       
  39 H39            2.6831     3.7913    -1.1733 H       
  40 H40            2.5265     6.2422    -1.1027 H       
  41 H41           -0.9403     5.9448     1.4079 H       
  42 H42           -0.7836     3.4941     1.3304 H       
  43 H43            4.4466    -2.5132     0.3821 H       
  44 H44            2.7884    -2.4840     1.0282 H       
  45 H45            3.0599    -2.4162    -0.7296 H       
  46 H46            9.3551     7.1147    -4.1197 H       
  47 H47            9.8964     7.7382    -2.5429 H       
  48 H48           11.0577     7.5762    -3.8821 H       
  49 H49           11.3277     5.7358    -2.2424 H       
  50 H50           10.7864     5.1122    -3.8192 H       
@<TRIPOS>BOND
   1    1    2 ar
   2    1    6 ar
   3    2    3 ar
   4    2   32 1
   5    3    4 ar
   6    4    5 ar
   7    4   28 1
   8    5    6 ar
   9    5    7 1
  10    6   20 1
  11    7    8 1
  12    7   33 1
  13    7   34 1
  14    8    9 1
  15    9   10 ar
  16    9   14 ar
  17   10   11 ar
  18   10   35 1
  19   11   12 ar
  20   11   15 1
  21   12   13 ar
  22   12   17 1
  23   13   14 ar
  24   13   19 1
  25   14   36 1
  26   15   16 1
  27   15   37 1
  28   15   38 1
  29   16   17 am
  30   16   31 1
  31   17   18 2
  32   20   21 ar
  33   20   25 ar
  34   21   22 ar
  35   21   39 1
  36   22   23 ar
  37   22   40 1
  38   23   24 ar
  39   23   26 1
  40   24   25 ar
  41   24   41 1
  42   25   42 1
  43   26   27 3
  44   28   29 1
  45   29   43 1
  46   29   44 1
  47   29   45 1
  48   30   31 1
  49   30   46 1
  50   30   47 1
  51   30   48 1
  52   31   49 1
  53   31   50 1

#	End of record

