#	Name: ASD01885325
#	Creating user name:	WinNT
#	Creation time:	15. 06. 2019 19:49

#	Modifying user name:	WinNT
#	Modification time:	15. 06. 2019 19:49

#	Program:	/corina/corina34_cracker 3.40 0067  02.08.2006

@<TRIPOS>MOLECULE
ASD01885325
  51   54    0    0    0
SMALL
NO_CHARGES


@<TRIPOS>ATOM
   1 C1             0.0141     1.3557     0.2031 C.2     
   2 C2             1.3351    -0.6334     0.2453 C.2     
   3 C3             2.4159     0.1096    -0.2599 C.2     
   4 C4             2.2772     1.4272    -0.5167 C.2     
   5 N5             1.0881     2.0554    -0.2901 N.pl3   
   6 C6             0.6571     3.3362    -0.4483 C.2     
   7 N7            -0.5941     3.3800    -0.0695 N.2     
   8 N8            -0.9857     2.2153     0.3125 N.2     
   9 C9             1.4727     4.4934    -0.9647 C.3     
  10 C10            1.4960    -2.1045     0.5303 C.3     
  11 C11            1.3314     4.5784    -2.4858 C.3     
  12 N12            1.7130    -2.8266    -0.7305 N.3     
  13 C13            2.2359    -4.1759    -0.4808 C.3     
  14 C14            2.5860    -4.8432    -1.8128 C.3     
  15 C15            1.3311    -4.9156    -2.6872 C.3     
  16 C16            0.7791    -3.5021    -2.8919 C.3     
  17 C17            0.4814    -2.8736    -1.5287 C.3     
  18 C18            1.6825    -5.5174    -4.0234 C.ar    
  19 C19            2.6181    -4.9025    -4.8334 C.ar    
  20 C20            2.9413    -5.4534    -6.0592 C.ar    
  21 C21            2.3281    -6.6224    -6.4767 C.ar    
  22 C22            1.3910    -7.2396    -5.6659 C.ar    
  23 C23            1.0717    -6.6897    -4.4366 C.ar    
  24 C24            0.1434    -0.0197     0.4761 C.2     
  25 F25            0.1574    -7.2909    -3.6444 F       
  26 F26            2.6439    -7.1604    -7.6751 F       
  27 C27           -1.0248    -0.8024     1.0180 C.3     
  28 F28           -0.8252    -1.0556     2.3794 F       
  29 F29           -2.2003    -0.0630     0.8487 F       
  30 F30           -1.1334    -2.0152     0.3291 F       
  31 H31            3.3627    -0.3765    -0.4432 H       
  32 H32            3.1144     1.9886    -0.9045 H       
  33 H33            1.1154     5.4195    -0.5144 H       
  34 H34            2.5207     4.3439    -0.7050 H       
  35 H35            2.3522    -2.2557     1.1876 H       
  36 H36            0.5952    -2.4814     1.0145 H       
  37 H37            1.9213     5.4153    -2.8594 H       
  38 H38            1.6887     3.6523    -2.9362 H       
  39 H39            0.2834     4.7279    -2.7456 H       
  40 H40            3.1304    -4.1099     0.1386 H       
  41 H41            1.4802    -4.7685     0.0348 H       
  42 H42            3.3516    -4.2585    -2.3226 H       
  43 H43            2.9594    -5.8505    -1.6281 H       
  44 H44            0.5793    -5.5325    -2.1951 H       
  45 H45            1.5163    -2.8962    -3.4187 H       
  46 H46           -0.1385    -3.5512    -3.4782 H       
  47 H47           -0.2661    -3.4724    -1.0082 H       
  48 H48            0.1015    -1.8618    -1.6704 H       
  49 H49            3.0969    -3.9905    -4.5085 H       
  50 H50            3.6721    -4.9715    -6.6918 H       
  51 H51            0.9122    -8.1516    -5.9908 H       
@<TRIPOS>BOND
   1    1   24 1
   2    1    5 1
   3    1    8 2
   4    2    3 1
   5    2   10 1
   6    2   24 2
   7    3    4 2
   8    3   31 1
   9    4    5 1
  10    4   32 1
  11    5    6 1
  12    6    7 2
  13    6    9 1
  14    7    8 1
  15    9   11 1
  16    9   33 1
  17    9   34 1
  18   10   12 1
  19   10   35 1
  20   10   36 1
  21   11   37 1
  22   11   38 1
  23   11   39 1
  24   12   13 1
  25   12   17 1
  26   13   14 1
  27   13   40 1
  28   13   41 1
  29   14   15 1
  30   14   42 1
  31   14   43 1
  32   15   16 1
  33   15   18 1
  34   15   44 1
  35   16   17 1
  36   16   45 1
  37   16   46 1
  38   17   47 1
  39   17   48 1
  40   18   19 ar
  41   18   23 ar
  42   19   20 ar
  43   19   49 1
  44   20   21 ar
  45   20   50 1
  46   21   22 ar
  47   21   26 1
  48   22   23 ar
  49   22   51 1
  50   23   25 1
  51   24   27 1
  52   27   28 1
  53   27   29 1
  54   27   30 1

#	End of record

