#	Name: ASD04590570
#	Creating user name:	WinNT
#	Creation time:	15. 06. 2019 20:51

#	Modifying user name:	WinNT
#	Modification time:	15. 06. 2019 20:51

#	Program:	/corina/corina34_cracker 3.40 0067  02.08.2006

@<TRIPOS>MOLECULE
ASD04590570
  58   63    0    0    0
SMALL
NO_CHARGES


@<TRIPOS>ATOM
   1 N1             2.2726     1.4607    -0.0345 N.ar    
   2 C2             2.4120     0.1396    -0.0524 C.ar    
   3 C3             1.3006    -0.6695    -0.0269 C.ar    
   4 C4             0.0328    -0.0920    -0.0013 C.ar    
   5 C5            -0.0744     1.2849     0.0094 C.ar    
   6 C6             1.0899     2.0462    -0.0050 C.ar    
   7 C7             3.8145    -0.4078    -0.1178 C.3     
   8 C8             3.8548    -1.8586     0.3591 C.3     
   9 N9             2.7664    -2.5880    -0.3122 N.am    
  10 C10            1.3918    -2.1736    -0.0105 C.3     
  11 N11            1.0070     3.4357     0.0118 N.pl3   
  12 C12            2.1603     4.1974     0.1095 C.ar    
  13 N13            2.0658     5.5136     0.0156 N.ar    
  14 C14            3.1501     6.2783     0.1048 C.ar    
  15 C15            4.3983     5.6537     0.3013 C.ar    
  16 C16            4.4477     4.2664     0.3940 C.ar    
  17 N17            3.3200     3.5814     0.2994 N.ar    
  18 N18            3.3490     7.6350     0.0459 N.pl3   
  19 C19            4.6928     7.9334     0.1973 C.ar    
  20 C20            5.3968     6.7288     0.3609 C.ar    
  21 C21            5.4102     9.1264     0.2144 C.ar    
  22 N22            6.7188     9.1155     0.3805 N.ar    
  23 C23            7.4038     7.9956     0.5365 C.ar    
  24 C24            6.7808     6.7780     0.5335 C.ar    
  25 C25            2.2894     8.6275    -0.1501 C.3     
  26 C26            3.0225    -3.5959    -1.1696 C.2     
  27 C27            1.8850    -4.3222    -1.8401 C.3     
  28 O28            4.1685    -3.9184    -1.4014 O.2     
  29 O29            2.4082    -5.3403    -2.6956 O.3     
  30 C30            1.5741     8.3775    -1.4893 C.3     
  31 C31            0.0960     8.0914    -1.1528 C.3     
  32 C32           -0.1171     8.7652     0.2255 C.3     
  33 C33            1.2210     8.4847     0.9536 C.3     
  34 F34            4.7625    10.3019     0.0597 F       
  35 H35           -0.8519    -0.7113     0.0096 H       
  36 H36           -1.0434     1.7613     0.0283 H       
  37 H37            4.1709    -0.3587    -1.1467 H       
  38 H38            4.4649     0.1958     0.5152 H       
  39 H39            4.8139    -2.3058     0.0981 H       
  40 H40            3.7119    -1.8956     1.4391 H       
  41 H41            1.1096    -2.5435     0.9753 H       
  42 H42            0.7159    -2.5863    -0.7594 H       
  43 H43            0.1419     3.8707    -0.0449 H       
  44 H44            5.3889     3.7584     0.5441 H       
  45 H45            8.4747     8.0430     0.6685 H       
  46 H46            7.3507     5.8696     0.6613 H       
  47 H47            2.7116     9.6323    -0.1342 H       
  48 H48            1.2471    -4.7769    -1.0822 H       
  49 H49            1.3010    -3.6162    -2.4306 H       
  50 H50            1.7306    -5.8495    -3.1610 H       
  51 H51            1.6485     9.2612    -2.1230 H       
  52 H52            2.0154     7.5177    -1.9935 H       
  53 H53           -0.5589     8.5380    -1.9010 H       
  54 H54           -0.0786     7.0177    -1.0836 H       
  55 H55           -0.2770     9.8373     0.1108 H       
  56 H56           -0.9498     8.3040     0.7564 H       
  57 H57            1.2280     7.4745     1.3629 H       
  58 H58            1.3871     9.2182     1.7425 H       
@<TRIPOS>BOND
   1    1    2 ar
   2    1    6 ar
   3    2    3 ar
   4    2    7 1
   5    3    4 ar
   6    3   10 1
   7    4    5 ar
   8    4   35 1
   9    5    6 ar
  10    5   36 1
  11    6   11 1
  12    7    8 1
  13    7   37 1
  14    7   38 1
  15    8    9 1
  16    8   39 1
  17    8   40 1
  18    9   10 1
  19    9   26 am
  20   10   41 1
  21   10   42 1
  22   11   12 1
  23   11   43 1
  24   12   13 ar
  25   12   17 ar
  26   13   14 ar
  27   14   15 ar
  28   14   18 1
  29   15   16 ar
  30   15   20 1
  31   16   17 ar
  32   16   44 1
  33   18   19 1
  34   18   25 1
  35   19   20 ar
  36   19   21 ar
  37   20   24 ar
  38   21   22 ar
  39   21   34 1
  40   22   23 ar
  41   23   24 ar
  42   23   45 1
  43   24   46 1
  44   25   30 1
  45   25   33 1
  46   25   47 1
  47   26   27 1
  48   26   28 2
  49   27   29 1
  50   27   48 1
  51   27   49 1
  52   29   50 1
  53   30   31 1
  54   30   51 1
  55   30   52 1
  56   31   32 1
  57   31   53 1
  58   31   54 1
  59   32   33 1
  60   32   55 1
  61   32   56 1
  62   33   57 1
  63   33   58 1

#	End of record

