#	Name: ASD02440033
#	Creating user name:	WinNT
#	Creation time:	15. 06. 2019 20:21

#	Modifying user name:	WinNT
#	Modification time:	15. 06. 2019 20:21

#	Program:	/corina/corina34_cracker 3.40 0067  02.08.2006

@<TRIPOS>MOLECULE
ASD02440033
  81   85    0    0    0
SMALL
NO_CHARGES


@<TRIPOS>ATOM
   1 C1             0.4148     3.2779     0.2972 C.3     
   2 C2            -0.3801     2.2129     1.0482 C.3     
   3 C3            -0.6138     1.0016     0.1518 C.3     
   4 C4             0.7132     0.4025    -0.3293 C.3     
   5 C5             1.5976     1.4736    -0.9318 C.3     
   6 C6             1.8019     2.7193    -0.0764 C.3     
   7 C7             2.5081     3.7744    -0.9336 C.3     
   8 C8             2.9430     0.9416    -1.4152 C.3     
   9 C9             3.5513     1.9873    -2.3632 C.3     
  10 C10            3.7839     3.2977    -1.6096 C.3     
  11 C11            3.2659     6.1459    -1.1124 C.3     
  12 C12            2.7668     5.0577    -0.1510 C.3     
  13 C13            4.2606     4.3826    -2.5926 C.3     
  14 C14            4.5352     5.6759    -1.8246 C.3     
  15 C15            5.0638     6.7208    -2.8011 C.3     
  16 C16            5.5042     3.8974    -3.3448 C.3     
  17 C17            6.0774     4.9881    -4.2505 C.3     
  18 C18            6.3514     8.6470    -3.3884 C.3     
  19 C19            5.5110     8.0798    -2.2277 C.3     
  20 C20            6.3817     6.2186    -3.3972 C.3     
  21 C21            6.8691     7.4471    -4.1745 C.3     
  22 C22            1.3796    -0.3821     0.7942 C.3     
  23 C23            0.3482    -0.6096    -1.4431 C.3     
  24 O24           -1.3394     0.0051     0.8792 O.3     
  25 C25            2.5604     2.4539     1.2160 C.3     
  26 C26            4.9147     3.0650    -0.5959 C.3     
  27 H27            5.2920     5.5023    -1.0488 H       
  28 C28            7.4167     5.8829    -2.3221 C.3     
  29 H29            1.0658     1.8260    -1.8528 H       
  30 H30            1.7649     4.0304    -1.7184 H       
  31 C31            3.1678     4.6315    -3.6372 C.3     
  32 H32            4.3424     6.9064    -3.6034 H       
  33 C33            4.3263     8.9898    -1.9975 C.2     
  34 C34            4.1496     9.5519    -0.8275 C.2     
  35 C35            3.3483     9.2504    -3.1141 C.3     
  36 H36           -0.1100     3.5624    -0.6124 H       
  37 H37            0.5477     4.1506     0.9360 H       
  38 H38            0.1270     1.9181     1.9616 H       
  39 H39           -1.3538     2.6371     1.3291 H       
  40 H40           -1.2018     1.3007    -0.7185 H       
  41 H41            3.6157     0.7524    -0.5875 H       
  42 H42            2.8124     0.0148    -1.9775 H       
  43 H43            4.5065     1.6094    -2.7332 H       
  44 H44            2.8700     2.1314    -3.1975 H       
  45 H45            2.4877     6.4019    -1.8199 H       
  46 H46            3.5048     7.0267    -0.5050 H       
  47 H47            1.8312     5.4041     0.2998 H       
  48 H48            3.5008     4.9120     0.6339 H       
  49 H49            6.2686     3.5429    -2.6671 H       
  50 H50            5.2042     3.0539    -3.9831 H       
  51 H51            7.0026     4.6269    -4.7116 H       
  52 H52            5.3712     5.2444    -5.0382 H       
  53 H53            5.7238     9.2718    -4.0235 H       
  54 H54            7.1822     9.2293    -2.9919 H       
  55 H55            6.0947     7.9715    -1.3232 H       
  56 H56            6.4510     7.4404    -5.1799 H       
  57 H57            7.9572     7.4547    -4.2128 H       
  58 H58            0.7790    -1.2607     1.0297 H       
  59 H59            2.3742    -0.6962     0.4777 H       
  60 H60            1.4623     0.2492     1.6789 H       
  61 H61           -0.1648    -0.0899    -2.2524 H       
  62 H62            1.2580    -1.0712    -1.8269 H       
  63 H63           -0.3054    -1.3799    -1.0340 H       
  64 H64           -2.2052     0.2998     1.1932 H       
  65 H65            1.9289     1.8838     1.8974 H       
  66 H66            3.4642     1.8853     0.9967 H       
  67 H67            2.8315     3.4024     1.6796 H       
  68 H68            4.6709     2.2063     0.0297 H       
  69 H69            5.8463     2.8737    -1.1284 H       
  70 H70            5.0291     3.9499     0.0302 H       
  71 H71            7.0232     5.1032    -1.6699 H       
  72 H72            8.3328     5.5315    -2.7967 H       
  73 H73            7.6315     6.7748    -1.7334 H       
  74 H74            2.2575     4.9643    -3.1385 H       
  75 H75            3.5009     5.3991    -4.3357 H       
  76 H76            2.9675     3.7081    -4.1806 H       
  77 H77            3.3031    10.2021    -0.6631 H       
  78 H78            4.8505     9.3651    -0.0274 H       
  79 H79            2.5519     8.5069    -3.0805 H       
  80 H80            2.9207    10.2463    -2.9975 H       
  81 H81            3.8648     9.1866    -4.0718 H       
@<TRIPOS>BOND
   1    1    2 1
   2    1    6 1
   3    1   36 1
   4    1   37 1
   5    2    3 1
   6    2   38 1
   7    2   39 1
   8    3    4 1
   9    3   24 1
  10    3   40 1
  11    4    5 1
  12    4   22 1
  13    4   23 1
  14    5    6 1
  15    5    8 1
  16    5   29 1
  17    6    7 1
  18    6   25 1
  19    7   10 1
  20    7   30 1
  21    7   12 1
  22    8    9 1
  23    8   41 1
  24    8   42 1
  25    9   10 1
  26    9   43 1
  27    9   44 1
  28   10   13 1
  29   10   26 1
  30   11   12 1
  31   11   14 1
  32   11   45 1
  33   11   46 1
  34   12   47 1
  35   12   48 1
  36   13   14 1
  37   13   16 1
  38   13   31 1
  39   14   15 1
  40   14   27 1
  41   15   20 1
  42   15   32 1
  43   15   19 1
  44   16   17 1
  45   16   49 1
  46   16   50 1
  47   17   20 1
  48   17   51 1
  49   17   52 1
  50   18   19 1
  51   18   21 1
  52   18   53 1
  53   18   54 1
  54   19   33 1
  55   19   55 1
  56   20   21 1
  57   20   28 1
  58   21   56 1
  59   21   57 1
  60   22   58 1
  61   22   59 1
  62   22   60 1
  63   23   61 1
  64   23   62 1
  65   23   63 1
  66   24   64 1
  67   25   65 1
  68   25   66 1
  69   25   67 1
  70   26   68 1
  71   26   69 1
  72   26   70 1
  73   28   71 1
  74   28   72 1
  75   28   73 1
  76   31   74 1
  77   31   75 1
  78   31   76 1
  79   33   34 2
  80   33   35 1
  81   34   77 1
  82   34   78 1
  83   35   79 1
  84   35   80 1
  85   35   81 1

#	End of record

