#	Name: ASD01884824
#	Creating user name:	WinNT
#	Creation time:	15. 06. 2019 19:48

#	Modifying user name:	WinNT
#	Modification time:	15. 06. 2019 19:48

#	Program:	/corina/corina34_cracker 3.40 0067  02.08.2006

@<TRIPOS>MOLECULE
ASD01884824
  45   48    0    0    0
SMALL
NO_CHARGES


@<TRIPOS>ATOM
   1 Cl1            0.0000     0.0000     0.0000 Cl      
   2 H2             0.0000     1.3700     0.0000 H       
   3 C3            13.7204    14.4223     6.5290 C.3     
   4 N4            13.7356    12.9602     6.4379 N.am    
   5 C5            12.5403    12.2588     6.5063 C.2     
   6 C6            11.2571    12.6952     6.6530 C.2     
   7 C7            10.4166    11.5688     6.6620 C.2     
   8 N8            11.1658    10.4944     6.5258 N.2     
   9 N9            12.5045    10.8997     6.4258 N.pl3   
  10 C10           13.6777    10.1685     6.2715 C.ar    
  11 C11           13.6514     8.7842     6.1881 C.ar    
  12 C12           14.8307     8.0827     6.0347 C.ar    
  13 C13           16.0438     8.7490     5.9630 C.ar    
  14 C14           16.0894    10.1251     6.0446 C.ar    
  15 C15           14.9061    10.8448     6.1990 C.ar    
  16 C16           14.9109    12.3164     6.2834 C.2     
  17 O17           15.9547    12.9379     6.2193 O.2     
  18 C18            8.9397    11.5870     6.8015 C.ar    
  19 C19            8.2462    12.7930     6.9351 C.ar    
  20 C20            6.8724    12.7646     7.0618 C.ar    
  21 N21            6.2156    11.6206     7.0578 N.ar    
  22 C22            6.8321    10.4606     6.9340 C.ar    
  23 C23            8.2034    10.3987     6.7969 C.ar    
  24 C24            6.0270     9.1867     6.9369 C.3     
  25 C25            6.1422     8.3822     5.6314 C.3     
  26 C26            6.1866     7.1184     6.5064 C.3     
  27 C27            6.7356     8.0118     7.6313 C.3     
  28 H28           14.7393    14.8017     6.4524 H       
  29 H29           13.1186    14.8306     5.7171 H       
  30 H30           13.2919    14.7223     7.4853 H       
  31 H31           10.9422    13.7241     6.7461 H       
  32 H32           12.7108     8.2564     6.2433 H       
  33 H33           14.8077     7.0048     5.9703 H       
  34 H34           16.9586     8.1876     5.8430 H       
  35 H35           17.0362    10.6417     5.9892 H       
  36 H36            8.7776    13.7332     6.9396 H       
  37 H37            6.3277    13.6914     7.1660 H       
  38 H38            8.7011     9.4460     6.6917 H       
  39 H39            5.0000     9.3359     7.2702 H       
  40 H40            5.2559     8.4452     5.0000 H       
  41 H41            7.0668     8.5674     5.0845 H       
  42 H42            5.2027     6.7012     6.7210 H       
  43 H43            6.8978     6.3700     6.1568 H       
  44 H44            7.8224     8.0956     7.6312 H       
  45 H45            6.3283     7.7757     8.6144 H       
@<TRIPOS>BOND
   1    1    2 1
   2    3    4 1
   3    3   28 1
   4    3   29 1
   5    3   30 1
   6    4   16 am
   7    4    5 1
   8    5    9 1
   9    5    6 2
  10    6    7 1
  11    6   31 1
  12    7    8 2
  13    7   18 1
  14    8    9 1
  15    9   10 1
  16   10   15 ar
  17   10   11 ar
  18   11   12 ar
  19   11   32 1
  20   12   13 ar
  21   12   33 1
  22   13   14 ar
  23   13   34 1
  24   14   15 ar
  25   14   35 1
  26   15   16 1
  27   16   17 2
  28   18   23 ar
  29   18   19 ar
  30   19   20 ar
  31   19   36 1
  32   20   21 ar
  33   20   37 1
  34   21   22 ar
  35   22   23 ar
  36   22   24 1
  37   23   38 1
  38   24   27 1
  39   24   25 1
  40   24   39 1
  41   25   26 1
  42   25   40 1
  43   25   41 1
  44   26   27 1
  45   26   42 1
  46   26   43 1
  47   27   44 1
  48   27   45 1

#	End of record

