#	Name: ASD01940455
#	Creating user name:	WinNT
#	Creation time:	15. 06. 2019 20:12

#	Modifying user name:	WinNT
#	Modification time:	15. 06. 2019 20:12

#	Program:	/corina/corina34_cracker 3.40 0067  02.08.2006

@<TRIPOS>MOLECULE
ASD01940455
  43   44    0    0    0
SMALL
NO_CHARGES


@<TRIPOS>ATOM
   1 C1            -0.0180     1.4739     0.0101 C.2     
   2 C2             0.0021    -0.0041     0.0020 C.ar    
   3 C3             1.2193    -0.6829    -0.0133 C.ar    
   4 C4             1.2336    -2.0763    -0.0204 C.ar    
   5 C5             0.0187    -2.7828    -0.0121 C.ar    
   6 C6            -1.1948    -2.0826     0.0032 C.ar    
   7 C7            -1.2014    -0.7189     0.0155 C.ar    
   8 O8             1.0255     2.0955     0.0035 O.2     
   9 O9            -1.1935     2.1315     0.0193 O.3     
  10 C10            0.0211    -4.2509    -0.0200 C.2     
  11 O11           -1.0284    -4.8592    -0.0129 O.2     
  12 F12            2.3807     0.0073    -0.0215 F       
  13 S13            2.7653    -2.9471    -0.0403 S.3     
  14 C14            3.0565    -3.1114     1.7386 C.3     
  15 C15            4.3512    -3.8473     1.9698 C.ar    
  16 C16            5.5366    -3.1440     2.0750 C.ar    
  17 C17            6.7242    -3.8190     2.2871 C.ar    
  18 C18            6.7263    -5.1972     2.3943 C.ar    
  19 C19            5.5407    -5.9004     2.2899 C.ar    
  20 C20            4.3525    -5.2250     2.0822 C.ar    
  21 C21           -1.1372     3.5824     0.0269 C.3     
  22 C22           -0.4027     4.0709    -1.2232 C.3     
  23 C23           -2.5588     4.1479     0.0367 C.3     
  24 C24           -0.3908     4.0573     1.2752 C.3     
  25 H25           -2.1287    -2.6250     0.0096 H       
  26 H26           -2.1412    -0.1870     0.0318 H       
  27 H27            0.9572    -4.7893    -0.0322 H       
  28 H28            3.1159    -2.1211     2.1900 H       
  29 H29            2.2362    -3.6684     2.1911 H       
  30 H30            5.5350    -2.0673     1.9913 H       
  31 H31            7.6504    -3.2696     2.3686 H       
  32 H32            7.6542    -5.7246     2.5592 H       
  33 H33            5.5423    -6.9771     2.3733 H       
  34 H34            3.4258    -5.7741     2.0043 H       
  35 H35           -0.9344     3.7325    -2.1125 H       
  36 H36           -0.3604     5.1600    -1.2175 H       
  37 H37            0.6101     3.6680    -1.2302 H       
  38 H38           -3.0822     3.7999     0.9273 H       
  39 H39           -2.5166     5.2371     0.0425 H       
  40 H40           -3.0906     3.8096    -0.8526 H       
  41 H41            0.6220     3.6544     1.2682 H       
  42 H42           -0.3486     5.1464     1.2809 H       
  43 H43           -0.9141     3.7093     2.1658 H       
@<TRIPOS>BOND
   1    1    2 1
   2    1    8 2
   3    1    9 1
   4    2    3 ar
   5    2    7 ar
   6    3    4 ar
   7    3   12 1
   8    4    5 ar
   9    4   13 1
  10    5    6 ar
  11    5   10 1
  12    6    7 ar
  13    6   25 1
  14    7   26 1
  15    9   21 1
  16   10   11 2
  17   10   27 1
  18   13   14 1
  19   14   15 1
  20   14   28 1
  21   14   29 1
  22   15   16 ar
  23   15   20 ar
  24   16   17 ar
  25   16   30 1
  26   17   18 ar
  27   17   31 1
  28   18   19 ar
  29   18   32 1
  30   19   20 ar
  31   19   33 1
  32   20   34 1
  33   21   22 1
  34   21   24 1
  35   21   23 1
  36   22   35 1
  37   22   36 1
  38   22   37 1
  39   23   38 1
  40   23   39 1
  41   23   40 1
  42   24   41 1
  43   24   42 1
  44   24   43 1

#	End of record

