#	Name: ASD02038954
#	Creating user name:	WinNT
#	Creation time:	15. 06. 2019 20:17

#	Modifying user name:	WinNT
#	Modification time:	15. 06. 2019 20:17

#	Program:	/corina/corina34_cracker 3.40 0067  02.08.2006

@<TRIPOS>MOLECULE
ASD02038954
  49   51    0    0    0
SMALL
NO_CHARGES


@<TRIPOS>ATOM
   1 N1            -0.0160     1.4029     0.1113 N.am    
   2 C2             0.1449     0.0129     0.0672 C.ar    
   3 N3             0.8703     3.5243     0.5159 N.am    
   4 C4             0.9811     2.1824     0.5746 C.2     
   5 C5             1.1977     6.1347    -0.5227 C.3     
   6 C6             1.6977     7.1492    -1.5531 C.3     
   7 O7             2.4887     8.1429    -0.8982 O.3     
   8 C8             3.0133     9.1264    -1.6770 C.ar    
   9 C9             3.7909    10.1228    -1.1059 C.ar    
  10 C10            2.7755     9.1300    -3.0435 C.ar    
  11 C11            3.3083    10.1290    -3.8346 C.ar    
  12 C12            4.0809    11.1289    -3.2626 C.ar    
  13 C13            4.3238    11.1219    -1.8970 C.ar    
  14 O14            4.6062    12.1119    -4.0416 O.3     
  15 O15            1.9806     1.6749     1.0456 O.2     
  16 C16            1.8942     4.3871     1.1206 C.3     
  17 C17            0.2526     5.1456    -1.2000 C.3     
  18 C18           -0.9474    -0.8205     0.2699 C.ar    
  19 C19           -0.7861    -2.1913     0.2254 C.ar    
  20 C20            2.3917     5.3775     0.0631 C.3     
  21 C21           -0.2736     4.1521    -0.1594 C.3     
  22 C22            1.3955    -0.5347    -0.1850 C.ar    
  23 C23            1.5515    -1.9065    -0.2284 C.ar    
  24 C24            0.4628    -2.7347    -0.0205 C.ar    
  25 Cl25           0.6623    -4.4583    -0.0752 Cl      
  26 C26           -1.9709    -3.0962     0.4453 C.3     
  27 H27           -0.8437     1.8053    -0.1954 H       
  28 H28            0.6670     6.6571     0.2733 H       
  29 H29            2.3031     6.6383    -2.3018 H       
  30 H30            0.8452     7.6248    -2.0380 H       
  31 H31            3.9795    10.1177    -0.0425 H       
  32 H32            2.1739     8.3515    -3.4889 H       
  33 H33            3.1237    10.1314    -4.8987 H       
  34 H34            4.9250    11.9006    -1.4515 H       
  35 H35            4.0327    12.8842    -4.1402 H       
  36 H36            1.4626     4.9339     1.9590 H       
  37 H37            2.7269     3.7765     1.4698 H       
  38 H38           -0.5843     5.6864    -1.6419 H       
  39 H39            0.7895     4.6051    -1.9795 H       
  40 H40           -1.9220    -0.3970     0.4625 H       
  41 H41            2.9036     4.8347    -0.7315 H       
  42 H42            3.0811     6.0854     0.5233 H       
  43 H43           -0.8695     3.3855    -0.6548 H       
  44 H44           -0.8870     4.6791     0.5714 H       
  45 H45            2.2456     0.1113    -0.3473 H       
  46 H46            2.5241    -2.3330    -0.4245 H       
  47 H47           -2.4513    -3.3046    -0.5107 H       
  48 H48           -1.6357    -4.0309     0.8948 H       
  49 H49           -2.6827    -2.6077     1.1108 H       
@<TRIPOS>BOND
   1    1    2 1
   2    1    4 am
   3    1   27 1
   4    2   18 ar
   5    2   22 ar
   6    3    4 am
   7    3   16 1
   8    3   21 1
   9    4   15 2
  10    5    6 1
  11    5   17 1
  12    5   20 1
  13    5   28 1
  14    6    7 1
  15    6   29 1
  16    6   30 1
  17    7    8 1
  18    8    9 ar
  19    8   10 ar
  20    9   13 ar
  21    9   31 1
  22   10   11 ar
  23   10   32 1
  24   11   12 ar
  25   11   33 1
  26   12   13 ar
  27   12   14 1
  28   13   34 1
  29   14   35 1
  30   16   20 1
  31   16   36 1
  32   16   37 1
  33   17   21 1
  34   17   38 1
  35   17   39 1
  36   18   19 ar
  37   18   40 1
  38   19   26 1
  39   19   24 ar
  40   20   41 1
  41   20   42 1
  42   21   43 1
  43   21   44 1
  44   22   23 ar
  45   22   45 1
  46   23   24 ar
  47   23   46 1
  48   24   25 1
  49   26   47 1
  50   26   48 1
  51   26   49 1

#	End of record

