#	Name: ASD01885031
#	Creating user name:	WinNT
#	Creation time:	15. 06. 2019 19:49

#	Modifying user name:	WinNT
#	Modification time:	15. 06. 2019 19:49

#	Program:	/corina/corina34_cracker 3.40 0067  02.08.2006

@<TRIPOS>MOLECULE
ASD01885031
  68   73    0    0    0
SMALL
NO_CHARGES


@<TRIPOS>ATOM
   1 C1             0.6700     1.2546     0.0678 C.2     
   2 C2             1.7153    -0.8870     0.2246 C.2     
   3 C3             2.8615    -0.3382    -0.3757 C.2     
   4 C4             2.8879     0.9630    -0.7329 C.2     
   5 N5             1.8043     1.7624    -0.5168 N.pl3   
   6 C6             1.5409     3.0745    -0.7626 C.2     
   7 N7             0.3249     3.3166    -0.3458 N.2     
   8 N8            -0.2006     2.2480     0.1420 N.2     
   9 C9             2.4791     4.0678    -1.3984 C.3     
  10 C10            1.6917    -2.3407     0.6214 C.3     
  11 C11            2.2821     4.0566    -2.9156 C.3     
  12 N12            1.9474    -3.1750    -0.5604 N.3     
  13 C13            2.3139    -4.5423    -0.1699 C.3     
  14 C14            2.7130    -5.3398    -1.4136 C.3     
  15 C15            1.5383    -5.3669    -2.3953 C.3     
  16 C16            1.1450    -3.9298    -2.7483 C.3     
  17 C17            0.7913    -3.1732    -1.4659 C.3     
  18 C18            1.9453    -6.0997    -3.6476 C.ar    
  19 C19            0.6274    -0.1012     0.4461 C.2     
  20 C20           -0.6090    -0.6746     1.0892 C.3     
  21 C21            3.0631     5.0843    -3.7370 C.3     
  22 C22            3.4636     3.6083    -3.7781 C.3     
  23 C23            2.8931    -5.5521    -4.4918 C.ar    
  24 C24            3.2664    -6.2243    -5.6405 C.ar    
  25 C25            2.6922    -7.4444    -5.9449 C.ar    
  26 C26            1.7450    -7.9924    -5.1003 C.ar    
  27 C27            1.3749    -7.3223    -3.9493 C.ar    
  28 F28           -0.4093    -0.7826     2.4696 F       
  29 F29           -1.6978     0.1678     0.8400 F       
  30 F30           -0.8677    -1.9415     0.5550 F       
  31 N31            0.3955    -6.0502    -1.7746 N.3     
  32 C32            0.7882    -7.3685    -1.2559 C.3     
  33 C33           -0.4144    -8.0187    -0.5667 C.3     
  34 O34           -1.5004    -8.1030    -1.4934 O.3     
  35 C35           -1.9092    -6.8369    -2.0180 C.3     
  36 C36           -0.7218    -6.1748    -2.7220 C.3     
  37 H37            3.7260    -0.9610    -0.5518 H       
  38 H38            3.7740     1.3744    -1.1932 H       
  39 H39            2.2688     5.0650    -1.0120 H       
  40 H40            3.5085     3.7968    -1.1637 H       
  41 H41            2.4620    -2.5255     1.3701 H       
  42 H42            0.7147    -2.5882     1.0364 H       
  43 H43            1.2808     3.7948    -3.2577 H       
  44 H44            3.1530    -4.5090     0.5249 H       
  45 H45            1.4625    -5.0230     0.3119 H       
  46 H46            3.5731    -4.8674    -1.8883 H       
  47 H47            2.9700    -6.3591    -1.1254 H       
  48 H48            1.9804    -3.4352    -3.2440 H       
  49 H49            0.2817    -3.9417    -3.4137 H       
  50 H50           -0.0529    -3.6603    -0.9780 H       
  51 H51            0.5247    -2.1455    -1.7124 H       
  52 H52            2.5758     5.4984    -4.6197 H       
  53 H53            3.7173     5.7684    -3.1965 H       
  54 H54            4.3812     3.3213    -3.2647 H       
  55 H55            3.2397     3.0512    -4.6879 H       
  56 H56            3.3417    -4.5989    -4.2540 H       
  57 H57            4.0065    -5.7961    -6.3004 H       
  58 H58            2.9834    -7.9692    -6.8428 H       
  59 H59            1.2962    -8.9455    -5.3383 H       
  60 H60            0.6349    -7.7505    -3.2895 H       
  61 H61            1.1204    -7.9997    -2.0802 H       
  62 H62            1.5993    -7.2501    -0.5375 H       
  63 H63           -0.1440    -9.0197    -0.2308 H       
  64 H64           -0.7131    -7.4148     0.2901 H       
  65 H65           -2.7199    -6.9833    -2.7318 H       
  66 H66           -2.2514    -6.1987    -1.2034 H       
  67 H67           -1.0129    -5.1850    -3.0737 H       
  68 H68           -0.4137    -6.7869    -3.5696 H       
@<TRIPOS>BOND
   1    1   19 1
   2    1    5 1
   3    1    8 2
   4    2    3 1
   5    2   10 1
   6    2   19 2
   7    3    4 2
   8    3   37 1
   9    4    5 1
  10    4   38 1
  11    5    6 1
  12    6    7 2
  13    6    9 1
  14    7    8 1
  15    9   11 1
  16    9   39 1
  17    9   40 1
  18   10   12 1
  19   10   41 1
  20   10   42 1
  21   11   21 1
  22   11   22 1
  23   11   43 1
  24   12   13 1
  25   12   17 1
  26   13   14 1
  27   13   44 1
  28   13   45 1
  29   14   15 1
  30   14   46 1
  31   14   47 1
  32   15   16 1
  33   15   18 1
  34   15   31 1
  35   16   17 1
  36   16   48 1
  37   16   49 1
  38   17   50 1
  39   17   51 1
  40   18   23 ar
  41   18   27 ar
  42   19   20 1
  43   20   28 1
  44   20   29 1
  45   20   30 1
  46   21   22 1
  47   21   52 1
  48   21   53 1
  49   22   54 1
  50   22   55 1
  51   23   24 ar
  52   23   56 1
  53   24   25 ar
  54   24   57 1
  55   25   26 ar
  56   25   58 1
  57   26   27 ar
  58   26   59 1
  59   27   60 1
  60   31   32 1
  61   31   36 1
  62   32   33 1
  63   32   61 1
  64   32   62 1
  65   33   34 1
  66   33   63 1
  67   33   64 1
  68   34   35 1
  69   35   36 1
  70   35   65 1
  71   35   66 1
  72   36   67 1
  73   36   68 1

#	End of record

