#	Name: ASD04880208
#	Creating user name:	WinNT
#	Creation time:	15. 06. 2019 20:53

#	Modifying user name:	WinNT
#	Modification time:	15. 06. 2019 20:53

#	Program:	/corina/corina34_cracker 3.40 0067  02.08.2006

@<TRIPOS>MOLECULE
ASD04880208
  41   43    0    0    0
SMALL
NO_CHARGES


@<TRIPOS>ATOM
   1 C1            -0.0106     1.5406     0.0945 C.3     
   2 C2             0.0062     0.0004     0.0300 C.3     
   3 N3             1.4409    -0.3277     0.0242 N.am    
   4 N4             2.1733     0.8564     0.0778 N.2     
   5 C5             1.4530     1.9195     0.1185 C.2     
   6 N6             1.9412     3.2114     0.1749 N.pl3   
   7 C7             1.9611    -1.5701    -0.0244 C.2     
   8 O8             1.2283    -2.5390     0.0359 O.2     
   9 C9             3.4222    -1.7552    -0.1510 C.ar    
  10 C10            3.9773    -3.0323    -0.0582 C.ar    
  11 C11            5.3418    -3.1996    -0.1770 C.ar    
  12 C12            6.1606    -2.1052    -0.3879 C.ar    
  13 C13            5.6171    -0.8337    -0.4812 C.ar    
  14 C14            4.2517    -0.6540    -0.3696 C.ar    
  15 F15            6.4229     0.2310    -0.6873 F       
  16 C16            3.3868     3.4480     0.1928 C.3     
  17 C17            3.6525     4.9301     0.2560 C.ar    
  18 C18            3.7676     5.5601     1.4810 C.ar    
  19 C19            3.7866     5.6586    -0.9112 C.ar    
  20 C20            4.0303     7.0180    -0.8533 C.ar    
  21 C21            4.1393     7.6491     0.3717 C.ar    
  22 C22            4.0112     6.9196     1.5389 C.ar    
  23 C23            4.4055     9.1311     0.4348 C.3     
  24 H24           -0.4985     1.9550    -0.7877 H       
  25 H25           -0.5083     1.8799     1.0029 H       
  26 H26           -0.4813    -0.4258     0.9068 H       
  27 H27           -0.4715    -0.3507    -0.8846 H       
  28 H28            1.3266     3.9613     0.2027 H       
  29 H29            3.3399    -3.8884     0.1068 H       
  30 H30            5.7716    -4.1878    -0.1048 H       
  31 H31            7.2280    -2.2418    -0.4798 H       
  32 H32            3.8282     0.3368    -0.4424 H       
  33 H33            3.8236     2.9631     1.0659 H       
  34 H34            3.8335     3.0371    -0.7125 H       
  35 H35            3.6669     4.9902     2.3929 H       
  36 H36            3.7014     5.1655    -1.8683 H       
  37 H37            4.1358     7.5870    -1.7652 H       
  38 H38            4.0965     7.4126     2.4960 H       
  39 H39            3.4582     9.6702     0.4465 H       
  40 H40            4.9657     9.3614     1.3411 H       
  41 H41            4.9850     9.4336    -0.4373 H       
@<TRIPOS>BOND
   1    1    2 1
   2    1    5 1
   3    1   24 1
   4    1   25 1
   5    2    3 1
   6    2   26 1
   7    2   27 1
   8    3    4 1
   9    3    7 am
  10    4    5 2
  11    5    6 1
  12    6   16 1
  13    6   28 1
  14    7    8 2
  15    7    9 1
  16    9   10 ar
  17    9   14 ar
  18   10   11 ar
  19   10   29 1
  20   11   12 ar
  21   11   30 1
  22   12   13 ar
  23   12   31 1
  24   13   14 ar
  25   13   15 1
  26   14   32 1
  27   16   17 1
  28   16   33 1
  29   16   34 1
  30   17   18 ar
  31   17   19 ar
  32   18   22 ar
  33   18   35 1
  34   19   20 ar
  35   19   36 1
  36   20   21 ar
  37   20   37 1
  38   21   22 ar
  39   21   23 1
  40   22   38 1
  41   23   39 1
  42   23   40 1
  43   23   41 1

#	End of record

