#	Name: ASD01910377
#	Creating user name:	WinNT
#	Creation time:	15. 06. 2019 19:55

#	Modifying user name:	WinNT
#	Modification time:	15. 06. 2019 19:55

#	Program:	/corina/corina34_cracker 3.40 0067  02.08.2006

@<TRIPOS>MOLECULE
ASD01910377
  59   62    0    0    0
SMALL
NO_CHARGES


@<TRIPOS>ATOM
   1 C1            -0.0330     1.4270    -0.1410 C.ar    
   2 C2            -0.0110    -0.0047    -0.1229 C.1     
   3 C3             0.0071    -1.1785    -0.1081 C.1     
   4 C4             0.0292    -2.6102    -0.0900 C.ar    
   5 C5             0.7019    -3.3127    -1.0960 C.ar    
   6 C6             0.7230    -4.6781    -1.0779 C.ar    
   7 C7             0.0722    -5.3740    -0.0548 C.ar    
   8 C8            -0.6006    -4.6729     0.9504 C.ar    
   9 C9            -0.6172    -3.3073     0.9369 C.ar    
  10 C10            0.0949    -6.8500    -0.0362 C.2     
  11 O11           -0.9425    -7.4725     0.0843 O.2     
  12 N12            1.2657    -7.5075    -0.1526 N.am    
  13 C13           -0.7041     2.1318     0.8623 C.ar    
  14 C14           -0.7210     3.5105     0.8382 C.ar    
  15 C15           -0.0762     4.1963    -0.1762 C.ar    
  16 C16            0.5903     3.5054    -1.1730 C.ar    
  17 C17            0.6212     2.1266    -1.1588 C.ar    
  18 C18            1.3147    -8.9725    -0.0528 C.3     
  19 C19            2.3451    -9.3600     1.0125 C.3     
  20 C20            3.6885    -8.7074     0.6782 C.3     
  21 C21            3.5341    -7.1849     0.6867 C.3     
  22 C22            2.5164    -6.7732    -0.3879 C.3     
  23 N23            4.6877    -9.1036     1.6795 N.3     
  24 C24            6.0466    -9.0243     1.1273 C.3     
  25 C25            7.0488    -8.8228     2.2657 C.3     
  26 C26            8.4641    -8.7401     1.6905 C.3     
  27 C27            8.7896   -10.0378     0.9482 C.3     
  28 C28            7.7874   -10.2393    -0.1902 C.3     
  29 C29            6.3721   -10.3219     0.3850 C.3     
  30 H30            1.2041    -2.7752    -1.8868 H       
  31 H31            1.2422    -5.2204    -1.8543 H       
  32 H32           -1.1037    -5.2111     1.7400 H       
  33 H33           -1.1369    -2.7658     1.7135 H       
  34 H34           -1.2084     1.5979     1.6542 H       
  35 H35           -1.2391     4.0565     1.6127 H       
  36 H36           -0.0934     5.2760    -0.1903 H       
  37 H37            1.0910     4.0473    -1.9617 H       
  38 H38            1.1417     1.5888    -1.9373 H       
  39 H39            0.3337    -9.3523     0.2325 H       
  40 H40            1.6068    -9.3947    -1.0144 H       
  41 H41            2.0061    -9.0148     1.9892 H       
  42 H42            2.4612   -10.4436     1.0292 H       
  43 H43            4.0150    -9.0338    -0.3092 H       
  44 H44            3.1839    -6.8602     1.6665 H       
  45 H45            4.4965    -6.7204     0.4715 H       
  46 H46            2.9089    -7.0163    -1.3753 H       
  47 H47            2.3277    -5.7017    -0.3211 H       
  48 H48            4.6037    -8.5443     2.5151 H       
  49 H49            6.1091    -8.1844     0.4353 H       
  50 H50            6.8169    -7.8983     2.7945 H       
  51 H51            6.9863    -9.6626     2.9576 H       
  52 H52            8.5266    -7.9002     0.9985 H       
  53 H53            9.1781    -8.5966     2.5015 H       
  54 H54            9.7979    -9.9789     0.5385 H       
  55 H55            8.7271   -10.8776     1.6402 H       
  56 H56            7.8499    -9.3994    -0.8822 H       
  57 H57            8.0193   -11.1637    -0.7190 H       
  58 H58            6.3096   -11.1618     1.0770 H       
  59 H59            5.6581   -10.4655    -0.4260 H       
@<TRIPOS>BOND
   1    1    2 1
   2    1   13 ar
   3    1   17 ar
   4    2    3 3
   5    3    4 1
   6    4    5 ar
   7    4    9 ar
   8    5    6 ar
   9    5   30 1
  10    6    7 ar
  11    6   31 1
  12    7    8 ar
  13    7   10 1
  14    8    9 ar
  15    8   32 1
  16    9   33 1
  17   10   11 2
  18   10   12 am
  19   12   18 1
  20   12   22 1
  21   13   14 ar
  22   13   34 1
  23   14   15 ar
  24   14   35 1
  25   15   16 ar
  26   15   36 1
  27   16   17 ar
  28   16   37 1
  29   17   38 1
  30   18   19 1
  31   18   39 1
  32   18   40 1
  33   19   20 1
  34   19   41 1
  35   19   42 1
  36   20   21 1
  37   20   23 1
  38   20   43 1
  39   21   22 1
  40   21   44 1
  41   21   45 1
  42   22   46 1
  43   22   47 1
  44   23   24 1
  45   23   48 1
  46   24   25 1
  47   24   29 1
  48   24   49 1
  49   25   26 1
  50   25   50 1
  51   25   51 1
  52   26   27 1
  53   26   52 1
  54   26   53 1
  55   27   28 1
  56   27   54 1
  57   27   55 1
  58   28   29 1
  59   28   56 1
  60   28   57 1
  61   29   58 1
  62   29   59 1

#	End of record

