#	Name: ASD09080082
#	Creating user name:	WinNT
#	Creation time:	15. 06. 2019 21:20

#	Modifying user name:	WinNT
#	Modification time:	15. 06. 2019 21:20

#	Program:	/corina/corina34_cracker 3.40 0067  02.08.2006

@<TRIPOS>MOLECULE
ASD09080082
  47   48    0    0    0
SMALL
NO_CHARGES


@<TRIPOS>ATOM
   1 C1            -0.0167     1.3799     0.0096 C.ar    
   2 C2             0.0021    -0.0041     0.0020 C.ar    
   3 C3             1.2064    -0.6807    -0.0127 C.ar    
   4 C4             2.4033     0.0323    -0.0204 C.ar    
   5 C5             2.3792     1.4253    -0.0131 C.ar    
   6 C6             1.1698     2.0928     0.0021 C.ar    
   7 C7             3.6997    -0.6897    -0.0357 C.ar    
   8 C8             4.8969     0.0231    -0.0433 C.ar    
   9 C9             3.7243    -2.0828    -0.0367 C.ar    
  10 C10            4.9328    -2.7491    -0.0510 C.ar    
  11 C11            6.1183    -2.0365    -0.0639 C.ar    
  12 C12            6.0998    -0.6534    -0.0576 C.ar    
  13 C13            7.4348    -2.7697    -0.0790 C.3     
  14 C14            7.8643    -3.0170    -1.5265 C.3     
  15 Cl15           1.1380     3.8285     0.0112 Cl      
  16 Cl16          -1.4902    -0.8910     0.0116 Cl      
  17 N17            6.9094    -3.9218    -2.1714 N.am    
  18 O18            5.8828    -4.7326    -4.1033 O.3     
  19 C19            5.7748    -4.6555    -5.5493 C.3     
  20 C20            7.1322    -4.9731    -6.1797 C.3     
  21 C21            4.7363    -5.6673    -6.0378 C.3     
  22 C22            5.3421    -3.2448    -5.9538 C.3     
  23 C23            6.7604    -3.9011    -3.5107 C.2     
  24 O24            7.4180    -3.1320    -4.1834 O.2     
  25 C25            9.2366    -3.6395    -1.5440 C.2     
  26 O26            9.4001    -4.7267    -2.0436 O.2     
  27 H27           -0.9602     1.9054     0.0170 H       
  28 H28            1.2200    -1.7606    -0.0179 H       
  29 H29            3.3044     1.9823    -0.0186 H       
  30 H30            4.8836     1.1031    -0.0384 H       
  31 H31            2.7993    -2.6402    -0.0260 H       
  32 H32            4.9530    -3.8290    -0.0518 H       
  33 H33            7.0284    -0.1019    -0.0677 H       
  34 H34            8.1909    -2.1692     0.4267 H       
  35 H35            7.3250    -3.7243     0.4356 H       
  36 H36            7.8881    -2.0698    -2.0653 H       
  37 H37            6.3844    -4.5357    -1.6344 H       
  38 H38            7.4405    -5.9780    -5.8915 H       
  39 H39            7.0511    -4.9152    -7.2652 H       
  40 H40            7.8721    -4.2522    -5.8317 H       
  41 H41            3.7693    -5.4410    -5.5887 H       
  42 H42            4.6552    -5.6094    -7.1233 H       
  43 H43            5.0446    -6.6722    -5.7496 H       
  44 H44            6.0820    -2.5240    -5.6058 H       
  45 H45            5.2610    -3.1869    -7.0393 H       
  46 H46            4.3751    -3.0185    -5.5047 H       
  47 H47           10.0738    -3.1133    -1.1098 H       
@<TRIPOS>BOND
   1    1    2 ar
   2    1    6 ar
   3    1   27 1
   4    2    3 ar
   5    2   16 1
   6    3    4 ar
   7    3   28 1
   8    4    5 ar
   9    4    7 1
  10    5    6 ar
  11    5   29 1
  12    6   15 1
  13    7    8 ar
  14    7    9 ar
  15    8   12 ar
  16    8   30 1
  17    9   10 ar
  18    9   31 1
  19   10   11 ar
  20   10   32 1
  21   11   12 ar
  22   11   13 1
  23   12   33 1
  24   13   14 1
  25   13   34 1
  26   13   35 1
  27   14   17 1
  28   14   25 1
  29   14   36 1
  30   17   23 am
  31   17   37 1
  32   18   19 1
  33   18   23 1
  34   19   20 1
  35   19   21 1
  36   19   22 1
  37   20   38 1
  38   20   39 1
  39   20   40 1
  40   21   41 1
  41   21   42 1
  42   21   43 1
  43   22   44 1
  44   22   45 1
  45   22   46 1
  46   23   24 2
  47   25   26 2
  48   25   47 1

#	End of record

