#	Name: ASD01881210
#	Creating user name:	WinNT
#	Creation time:	15. 06. 2019 19:42

#	Modifying user name:	WinNT
#	Modification time:	15. 06. 2019 19:42

#	Program:	/corina/corina34_cracker 3.40 0067  02.08.2006

@<TRIPOS>MOLECULE
ASD01881210
  50   53    0    0    0
SMALL
NO_CHARGES


@<TRIPOS>ATOM
   1 N1             0.0054     1.3326    -0.1726 N.ar    
   2 C2             0.0073     0.0111    -0.1816 C.ar    
   3 N3             1.1213    -0.6850    -0.0178 N.ar    
   4 C4             2.2837    -0.0784     0.1624 C.ar    
   5 C5             2.3296     1.3048     0.1791 C.ar    
   6 C6             1.1373     2.0115     0.0035 C.ar    
   7 C7             3.6344     2.0311     0.3821 C.3     
   8 O8             4.6667     1.0851     0.6674 O.3     
   9 C9             5.9134     1.5784     0.8779 C.ar    
  10 C10            6.9652     0.7117     1.1605 C.ar    
  11 C11            8.2259     1.2107     1.3729 C.ar    
  12 C12            8.4627     2.5880     1.3073 C.ar    
  13 C13            7.4024     3.4552     1.0229 C.ar    
  14 C14            6.1392     2.9470     0.8053 C.ar    
  15 C15            9.5518     0.5658     1.6919 C.3     
  16 N16           10.5242     1.6597     1.7972 N.am    
  17 C17            9.8912     2.8242     1.5745 C.2     
  18 O18           10.4229     3.9176     1.5910 O.2     
  19 Cl19           7.6777     5.1672     0.9381 Cl      
  20 C20            1.1325     3.4941     0.0126 C.ar    
  21 C21            2.1002     4.1987    -0.7038 C.ar    
  22 C22            2.0964     5.5756    -0.6964 C.ar    
  23 C23            1.1229     6.2671     0.0290 C.ar    
  24 C24            0.1542     5.5604     0.7461 C.ar    
  25 C25            0.1568     4.1835     0.7329 C.ar    
  26 C26            1.1182     7.6991     0.0378 C.1     
  27 N27            1.1145     8.8351     0.0448 N.1     
  28 C28           12.7294     1.3389     0.7894 C.3     
  29 C29           11.9504     1.5074     2.0954 C.3     
  30 O30           -1.1619    -0.6487    -0.3627 O.3     
  31 C31           -1.1074    -2.0767    -0.3645 C.3     
  32 H32            3.1863    -0.6563     0.2954 H       
  33 H33            3.8875     2.5833    -0.5229 H       
  34 H34            3.5374     2.7257     1.2165 H       
  35 H35            6.7893    -0.3526     1.2130 H       
  36 H36            5.3206     3.6163     0.5854 H       
  37 H37            9.4889     0.0280     2.6379 H       
  38 H38            9.8394    -0.1155     0.8912 H       
  39 H39            2.8528     3.6639    -1.2641 H       
  40 H40            2.8459     6.1208    -1.2508 H       
  41 H41           -0.5986     6.0938     1.3075 H       
  42 H42           -0.5919     3.6370     1.2872 H       
  43 H43           13.7906     1.2256     1.0113 H       
  44 H44           12.3714     0.4533     0.2645 H       
  45 H45           12.5812     2.2179     0.1620 H       
  46 H46           12.3084     2.3930     2.6204 H       
  47 H47           12.0986     0.6284     2.7228 H       
  48 H48           -0.7187    -2.4266     0.5919 H       
  49 H49           -2.1089    -2.4783    -0.5185 H       
  50 H50           -0.4530    -2.4143    -1.1681 H       
@<TRIPOS>BOND
   1    1    2 ar
   2    1    6 ar
   3    2    3 ar
   4    2   30 1
   5    3    4 ar
   6    4    5 ar
   7    4   32 1
   8    5    6 ar
   9    5    7 1
  10    6   20 1
  11    7    8 1
  12    7   33 1
  13    7   34 1
  14    8    9 1
  15    9   10 ar
  16    9   14 ar
  17   10   11 ar
  18   10   35 1
  19   11   12 ar
  20   11   15 1
  21   12   13 ar
  22   12   17 1
  23   13   14 ar
  24   13   19 1
  25   14   36 1
  26   15   16 1
  27   15   37 1
  28   15   38 1
  29   16   17 am
  30   16   29 1
  31   17   18 2
  32   20   21 ar
  33   20   25 ar
  34   21   22 ar
  35   21   39 1
  36   22   23 ar
  37   22   40 1
  38   23   24 ar
  39   23   26 1
  40   24   25 ar
  41   24   41 1
  42   25   42 1
  43   26   27 3
  44   28   29 1
  45   28   43 1
  46   28   44 1
  47   28   45 1
  48   29   46 1
  49   29   47 1
  50   30   31 1
  51   31   48 1
  52   31   49 1
  53   31   50 1

#	End of record

