#	Name: ASD00310198
#	Creating user name:	WinNT
#	Creation time:	15. 06. 2019 18:33

#	Modifying user name:	WinNT
#	Modification time:	15. 06. 2019 18:33

#	Program:	/corina/corina34_cracker 3.40 0067  02.08.2006

@<TRIPOS>MOLECULE
ASD00310198
  44   46    0    0    0
SMALL
NO_CHARGES


@<TRIPOS>ATOM
   1 C1            -0.0188     1.5336     0.0105 C.3     
   2 C2             1.4943     1.7586    -0.1467 C.3     
   3 C3             1.2213     2.0185    -1.6375 C.3     
   4 C4            -0.2010     2.4321    -1.2242 C.3     
   5 O5            -0.4213     0.1791    -0.2028 O.3     
   6 C6            -0.5886     2.1226     1.2751 C.ar    
   7 C7            -0.0535     1.7678     2.5065 C.ar    
   8 C8            -0.5754     2.3077     3.6698 C.ar    
   9 C9            -1.6376     3.2069     3.6007 C.ar    
  10 C10           -2.1688     3.5578     2.3608 C.ar    
  11 C11           -1.6388     3.0191     1.2058 C.ar    
  12 O12            0.9822     0.8901     2.5697 O.3     
  13 C13            1.4829     0.5701     3.8693 C.3     
  14 O14           -3.3221     4.7450     4.8671 O.3     
  15 B15           -2.2347     3.8227     4.9157 Du      
  16 O16           -1.7064     3.4762     6.1949 O.3     
  17 C17           -2.7262     3.1058     7.1309 C.3     
  18 C18           -3.7879     4.2088     7.1747 C.3     
  19 C19           -4.3771     4.4022     5.7743 C.3     
  20 C20           -4.9004     3.8082     8.1456 C.3     
  21 C21           -3.1467     5.5163     7.6438 C.3     
  22 H22            1.8636     2.6334     0.3886 H       
  23 H23            2.0903     0.8650     0.0388 H       
  24 H24            1.8102     2.8361    -2.0533 H       
  25 H25            1.2533     1.1179    -2.2508 H       
  26 H26           -0.9738     2.0821    -1.9086 H       
  27 H27           -0.2953     3.4910    -0.9835 H       
  28 H28           -1.3719     0.0313    -0.1053 H       
  29 H29           -0.1606     2.0324     4.6282 H       
  30 H30           -2.9923     4.2541     2.3035 H       
  31 H31           -2.0483     3.2955     0.2454 H       
  32 H32            0.6863     0.1265     4.4666 H       
  33 H33            2.3057    -0.1389     3.7773 H       
  34 H34            1.8387     1.4785     4.3554 H       
  35 H35           -3.1864     2.1689     6.8171 H       
  36 H36           -2.2860     2.9840     8.1206 H       
  37 H37           -5.1142     5.2049     5.7964 H       
  38 H38           -4.8527     3.4774     5.4478 H       
  39 H39           -4.4805     3.6687     9.1418 H       
  40 H40           -5.6559     4.5933     8.1765 H       
  41 H41           -5.3575     2.8772     7.8104 H       
  42 H42           -2.3549     5.8016     6.9511 H       
  43 H43           -3.9025     6.3010     7.6748 H       
  44 H44           -2.7257     5.3777     8.6396 H       
@<TRIPOS>BOND
   1    1    2 1
   2    1    4 1
   3    1    5 1
   4    1    6 1
   5    2    3 1
   6    2   22 1
   7    2   23 1
   8    3    4 1
   9    3   24 1
  10    3   25 1
  11    4   26 1
  12    4   27 1
  13    5   28 1
  14    6    7 ar
  15    6   11 ar
  16    7    8 ar
  17    7   12 1
  18    8    9 ar
  19    8   29 1
  20    9   10 ar
  21    9   15 1
  22   10   11 ar
  23   10   30 1
  24   11   31 1
  25   12   13 1
  26   13   32 1
  27   13   33 1
  28   13   34 1
  29   14   15 1
  30   14   19 1
  31   15   16 1
  32   16   17 1
  33   17   18 1
  34   17   35 1
  35   17   36 1
  36   18   19 1
  37   18   20 1
  38   18   21 1
  39   19   37 1
  40   19   38 1
  41   20   39 1
  42   20   40 1
  43   20   41 1
  44   21   42 1
  45   21   43 1
  46   21   44 1

#	End of record

