#	Name: ASD04591124
#	Creating user name:	WinNT
#	Creation time:	15. 06. 2019 20:52

#	Modifying user name:	WinNT
#	Modification time:	15. 06. 2019 20:52

#	Program:	/corina/corina34_cracker 3.40 0067  02.08.2006

@<TRIPOS>MOLECULE
ASD04591124
  57   62    0    0    0
SMALL
NO_CHARGES


@<TRIPOS>ATOM
   1 N1            -0.0171     1.3231    -0.0118 N.ar    
   2 C2             0.0017    -0.0035    -0.0051 C.ar    
   3 N3             1.1299    -0.6949    -0.0122 N.ar    
   4 C4             2.3049    -0.0728    -0.0266 C.ar    
   5 C5             2.3189     1.3365    -0.0341 C.ar    
   6 C6             1.1073     2.0202    -0.0261 C.ar    
   7 N7             3.6033    -0.5193    -0.0370 N.pl3   
   8 C8             4.4823     0.5499    -0.0512 C.ar    
   9 C9             3.7313     1.7383    -0.0500 C.ar    
  10 C10            5.8684     0.6420    -0.0653 C.ar    
  11 N11            6.4629     1.8173    -0.0768 N.ar    
  12 C12            5.7884     2.9535    -0.0761 C.ar    
  13 C13            4.4073     2.9598    -0.0626 C.ar    
  14 N14           -1.2021    -0.6889     0.0103 N.pl3   
  15 C15           -2.4020     0.0118     0.1313 C.ar    
  16 C16            4.0022    -1.9289    -0.0332 C.3     
  17 N17           -2.3784     1.3195     0.3318 N.ar    
  18 C18           -3.4885     2.0228     0.4517 C.ar    
  19 C19           -4.7292     1.4087     0.3708 C.ar    
  20 C20           -4.7936     0.0321     0.1601 C.ar    
  21 C21           -3.6095    -0.6710     0.0340 C.ar    
  22 N22           -5.9024     2.1616     0.4995 N.3     
  23 C23           -5.5953     3.5825     0.7148 C.3     
  24 C24           -6.8999     4.3809     0.7706 C.3     
  25 N25           -7.7452     3.8579     1.8530 N.3     
  26 C26           -8.0523     2.4370     1.6377 C.3     
  27 C27           -6.7477     1.6386     1.5818 C.3     
  28 C28            3.4016    -2.6447     1.1943 C.3     
  29 C29            3.4383    -2.6397    -1.2760 C.3     
  30 C30            2.5147    -3.7626    -0.7604 C.3     
  31 C31            2.1020    -3.2941     0.6571 C.3     
  32 F32            3.7238     4.1252    -0.0620 F       
  33 H33            1.0849     3.0999    -0.0319 H       
  34 H34            6.4642    -0.2588    -0.0665 H       
  35 H35            6.3248     3.8908    -0.0858 H       
  36 H36           -1.2105    -1.6560    -0.0630 H       
  37 H37            5.0891    -2.0090    -0.0182 H       
  38 H38           -3.4301     3.0888     0.6151 H       
  39 H39           -5.7460    -0.4728     0.0932 H       
  40 H40           -3.6223    -1.7384    -0.1299 H       
  41 H41           -5.0566     3.6998     1.6551 H       
  42 H42           -4.9790     3.9498    -0.1059 H       
  43 H43           -6.6759     5.4308     0.9592 H       
  44 H44           -7.4254     4.2857    -0.1796 H       
  45 H45           -7.3112     4.0018     2.7524 H       
  46 H46           -8.6686     2.0697     2.4583 H       
  47 H47           -8.5909     2.3197     0.6973 H       
  48 H48           -6.9717     0.5887     1.3933 H       
  49 H49           -6.2222     1.7338     2.5320 H       
  50 H50            4.0858    -3.4089     1.5629 H       
  51 H51            3.1719    -1.9257     1.9807 H       
  52 H52            2.8679    -1.9358    -1.8820 H       
  53 H53            4.2515    -3.0655    -1.8637 H       
  54 H54            1.6378    -3.8594    -1.4005 H       
  55 H55            3.0557    -4.7074    -0.7075 H       
  56 H56            1.8106    -4.1434     1.2751 H       
  57 H57            1.2976    -2.5606     0.6026 H       
@<TRIPOS>BOND
   1    1    2 ar
   2    1    6 ar
   3    2    3 ar
   4    2   14 1
   5    3    4 ar
   6    4    5 ar
   7    4    7 1
   8    5    6 ar
   9    5    9 1
  10    6   33 1
  11    7    8 1
  12    7   16 1
  13    8    9 ar
  14    8   10 ar
  15    9   13 ar
  16   10   11 ar
  17   10   34 1
  18   11   12 ar
  19   12   13 ar
  20   12   35 1
  21   13   32 1
  22   14   15 1
  23   14   36 1
  24   15   17 ar
  25   15   21 ar
  26   16   29 1
  27   16   28 1
  28   16   37 1
  29   17   18 ar
  30   18   19 ar
  31   18   38 1
  32   19   20 ar
  33   19   22 1
  34   20   21 ar
  35   20   39 1
  36   21   40 1
  37   22   23 1
  38   22   27 1
  39   23   24 1
  40   23   41 1
  41   23   42 1
  42   24   25 1
  43   24   43 1
  44   24   44 1
  45   25   26 1
  46   25   45 1
  47   26   27 1
  48   26   46 1
  49   26   47 1
  50   27   48 1
  51   27   49 1
  52   28   31 1
  53   28   50 1
  54   28   51 1
  55   29   30 1
  56   29   52 1
  57   29   53 1
  58   30   31 1
  59   30   54 1
  60   30   55 1
  61   31   56 1
  62   31   57 1

#	End of record

