#	Name: ASD01811638
#	Creating user name:	WinNT
#	Creation time:	15. 06. 2019 19:27

#	Modifying user name:	WinNT
#	Modification time:	15. 06. 2019 19:27

#	Program:	/corina/corina34_cracker 3.40 0067  02.08.2006

@<TRIPOS>MOLECULE
ASD01811638
  68   73    0    0    0
SMALL
NO_CHARGES


@<TRIPOS>ATOM
   1 C1             0.1259     1.1496     0.0250 C.ar    
   2 C2             0.2291    -0.2257     0.1219 C.ar    
   3 C3             1.4681    -0.8270     0.2060 C.ar    
   4 C4             2.6252    -0.0523     0.1933 C.ar    
   5 C5             2.5091     1.3315     0.0944 C.ar    
   6 C6             1.2708     1.9271     0.0115 C.ar    
   7 N7             3.9705    -0.4201     0.2654 N.am    
   8 C8             4.7919     0.6464     0.2203 C.2     
   9 C9             3.9143     1.8631     0.1057 C.3     
  10 C10            4.2266     2.6640    -1.1610 C.3     
  11 N11            4.5805     4.0342    -0.7220 N.3     
  12 C12            5.0775     3.8983     0.6720 C.3     
  13 C13            4.1398     2.8241     1.2835 C.3     
  14 C14            5.6096     4.6169    -1.5934 C.3     
  15 C15            5.8770     6.0627    -1.1704 C.3     
  16 C16            6.9489     6.6696    -2.0780 C.3     
  17 C17            8.2391     5.8562    -1.9580 C.3     
  18 C18            7.9717     4.4103    -2.3810 C.3     
  19 C19            6.8998     3.8034    -1.4734 C.3     
  20 C20            4.5868     6.8762    -1.2904 C.3     
  21 O21            6.0038     0.6293     0.2644 O.2     
  22 C22            4.4344    -1.8052     0.3776 C.3     
  23 C23            4.6431    -2.3782    -1.0005 C.ar    
  24 C24            5.8003    -2.0830    -1.7032 C.ar    
  25 C25            5.9956    -2.6071    -2.9673 C.ar    
  26 C26            5.0267    -3.4325    -3.5330 C.ar    
  27 C27            3.8657    -3.7253    -2.8213 C.ar    
  28 C28            3.6820    -3.2014    -1.5573 C.ar    
  29 F29            6.7384    -1.2818    -1.1525 F       
  30 C30            5.2306    -3.9980    -4.8907 C.2     
  31 C31            6.3491    -3.7880    -5.7204 C.2     
  32 N32            6.1607    -4.4502    -6.8310 N.2     
  33 N33            4.9248    -5.1037    -6.7551 N.pl3   
  34 C34            4.3711    -4.8203    -5.5589 C.2     
  35 C35            4.3372    -5.9533    -7.7939 C.3     
  36 H36           -0.8458     1.6158    -0.0446 H       
  37 H37           -0.6644    -0.8323     0.1322 H       
  38 H38            1.5407    -1.9018     0.2823 H       
  39 H39            1.1927     3.0015    -0.0649 H       
  40 H40            5.0663     2.2132    -1.6899 H       
  41 H41            3.3504     2.6945    -1.8086 H       
  42 H42            6.1119     3.5547     0.6794 H       
  43 H43            4.9813     4.8425     1.2081 H       
  44 H44            3.1984     3.2702     1.6041 H       
  45 H45            4.6280     2.3116     2.1125 H       
  46 H46            5.2634     4.5987    -2.6268 H       
  47 H47            6.2232     6.0809    -0.1370 H       
  48 H48            6.6027     6.6515    -3.1114 H       
  49 H49            7.1394     7.6997    -1.7767 H       
  50 H50            9.0027     6.2886    -2.6046 H       
  51 H51            8.5853     5.8743    -0.9246 H       
  52 H52            7.6255     4.3922    -3.4144 H       
  53 H53            8.8909     3.8308    -2.2954 H       
  54 H54            7.2460     3.8216    -0.4399 H       
  55 H55            6.7093     2.7734    -1.7747 H       
  56 H56            3.8232     6.4438    -0.6438 H       
  57 H57            4.7773     7.9062    -0.9891 H       
  58 H58            4.2406     6.8581    -2.3238 H       
  59 H59            5.3751    -1.8298     0.9276 H       
  60 H60            3.6879    -2.3966     0.9078 H       
  61 H61            6.8973    -2.3768    -3.5153 H       
  62 H62            3.1117    -4.3646    -3.2564 H       
  63 H63            2.7820    -3.4288    -1.0053 H       
  64 H64            7.2120    -3.1843    -5.4807 H       
  65 H65            3.4170    -5.1748    -5.1977 H       
  66 H66            4.6509    -6.9857    -7.6394 H       
  67 H67            3.2502    -5.8921    -7.7415 H       
  68 H68            4.6734    -5.6142    -8.7738 H       
@<TRIPOS>BOND
   1    1    2 ar
   2    1    6 ar
   3    1   36 1
   4    2    3 ar
   5    2   37 1
   6    3    4 ar
   7    3   38 1
   8    4    5 ar
   9    4    7 1
  10    5    6 ar
  11    5    9 1
  12    6   39 1
  13    7    8 am
  14    7   22 1
  15    8    9 1
  16    8   21 2
  17    9   10 1
  18    9   13 1
  19   10   11 1
  20   10   40 1
  21   10   41 1
  22   11   12 1
  23   11   14 1
  24   12   13 1
  25   12   42 1
  26   12   43 1
  27   13   44 1
  28   13   45 1
  29   14   15 1
  30   14   19 1
  31   14   46 1
  32   15   16 1
  33   15   20 1
  34   15   47 1
  35   16   17 1
  36   16   48 1
  37   16   49 1
  38   17   18 1
  39   17   50 1
  40   17   51 1
  41   18   19 1
  42   18   52 1
  43   18   53 1
  44   19   54 1
  45   19   55 1
  46   20   56 1
  47   20   57 1
  48   20   58 1
  49   22   23 1
  50   22   59 1
  51   22   60 1
  52   23   24 ar
  53   23   28 ar
  54   24   25 ar
  55   24   29 1
  56   25   26 ar
  57   25   61 1
  58   26   27 ar
  59   26   30 1
  60   27   28 ar
  61   27   62 1
  62   28   63 1
  63   30   31 1
  64   30   34 2
  65   31   32 2
  66   31   64 1
  67   32   33 1
  68   33   34 1
  69   33   35 1
  70   34   65 1
  71   35   66 1
  72   35   67 1
  73   35   68 1

#	End of record

