#	Name: ASD01914979
#	Creating user name:	WinNT
#	Creation time:	15. 06. 2019 20:04

#	Modifying user name:	WinNT
#	Modification time:	15. 06. 2019 20:04

#	Program:	/corina/corina34_cracker 3.40 0067  02.08.2006

@<TRIPOS>MOLECULE
ASD01914979
  44   47    0    0    0
SMALL
NO_CHARGES


@<TRIPOS>ATOM
   1 C1            -0.2251     1.4577    -1.1232 C.ar    
   2 C2            -0.2364     0.0836    -1.2785 C.ar    
   3 C3             0.9373    -0.6369    -1.1513 C.ar    
   4 C4             2.1237     0.0138    -0.8695 C.ar    
   5 C5             2.1409     1.3871    -0.7134 C.ar    
   6 C6             0.9669     2.1132    -0.8399 C.ar    
   7 O7             0.9817     3.4640    -0.6871 O.3     
   8 C8             2.2427     4.0703    -0.3971 C.3     
   9 C9             2.0645     5.5607    -0.2629 C.2     
  10 C10            0.8579     6.2615    -0.3922 C.2     
  11 N11            3.0112     6.4308     0.0015 N.2     
  12 C12            1.1861     7.5724    -0.1933 C.2     
  13 C13            0.3702     8.7961    -0.1946 C.2     
  14 N14            2.5398     7.6146     0.0588 N.pl3   
  15 C15            3.2182     8.8825     0.3536 C.3     
  16 C16            2.4946    10.0201    -0.3655 C.3     
  17 N17            1.0469     9.9701    -0.1751 N.am    
  18 O18           -0.8454     8.7566    -0.2125 O.2     
  19 C19            0.3437    11.1612     0.0374 C.ar    
  20 C20           -0.9396    12.5863     1.4773 C.ar    
  21 C21           -0.2465    11.4099     1.2696 C.ar    
  22 C22            0.2402    12.0988    -0.9818 C.ar    
  23 C23           -0.4538    13.2739    -0.7698 C.ar    
  24 C24           -1.0457    13.5178     0.4581 C.ar    
  25 F25           -1.7241    14.6679     0.6633 F       
  26 C26            3.1954     9.1354     1.8624 C.3     
  27 F27           -1.3705     2.1625    -1.2524 F       
  28 H28           -1.1621    -0.4272    -1.4987 H       
  29 H29            0.9267    -1.7101    -1.2722 H       
  30 H30            3.0386    -0.5516    -0.7709 H       
  31 H31            3.0686     1.8942    -0.4928 H       
  32 H32            2.6343     3.6657     0.5362 H       
  33 H33            2.9420     3.8594    -1.2062 H       
  34 H34           -0.1196     5.8536    -0.6035 H       
  35 H35            4.2507     8.8318     0.0079 H       
  36 H36            2.8671    10.9711     0.0153 H       
  37 H37            2.7139     9.9592    -1.4314 H       
  38 H38           -1.3991    12.7800     2.4353 H       
  39 H39           -0.1640    10.6838     2.0647 H       
  40 H40            0.7022    11.9093    -1.9394 H       
  41 H41           -0.5346    14.0033    -1.5622 H       
  42 H42            3.7082     8.3215     2.3750 H       
  43 H43            3.6992    10.0770     2.0806 H       
  44 H44            2.1624     9.1878     2.2064 H       
@<TRIPOS>BOND
   1    1    2 ar
   2    1    6 ar
   3    1   27 1
   4    2    3 ar
   5    2   28 1
   6    3    4 ar
   7    3   29 1
   8    4    5 ar
   9    4   30 1
  10    5    6 ar
  11    5   31 1
  12    6    7 1
  13    7    8 1
  14    8    9 1
  15    8   32 1
  16    8   33 1
  17    9   11 2
  18    9   10 1
  19   10   12 2
  20   10   34 1
  21   11   14 1
  22   12   14 1
  23   12   13 1
  24   13   17 am
  25   13   18 2
  26   14   15 1
  27   15   16 1
  28   15   26 1
  29   15   35 1
  30   16   17 1
  31   16   36 1
  32   16   37 1
  33   17   19 1
  34   19   22 ar
  35   19   21 ar
  36   20   21 ar
  37   20   24 ar
  38   20   38 1
  39   21   39 1
  40   22   23 ar
  41   22   40 1
  42   23   24 ar
  43   23   41 1
  44   24   25 1
  45   26   42 1
  46   26   43 1
  47   26   44 1

#	End of record

