#	Name: ASD03380009
#	Creating user name:	WinNT
#	Creation time:	15. 06. 2019 20:40

#	Modifying user name:	WinNT
#	Modification time:	15. 06. 2019 20:40

#	Program:	/corina/corina34_cracker 3.40 0067  02.08.2006

@<TRIPOS>MOLECULE
ASD03380009
  84   87    0    0    0
SMALL
NO_CHARGES


@<TRIPOS>ATOM
   1 N1             0.4779     1.1838     0.5866 N.3     
   2 C2             0.4364    -0.2817     0.4942 C.3     
   3 C3            -0.9971    -0.7460     0.5153 C.2     
   4 O4            -1.8856     0.0143     0.1937 O.2     
   5 C5             1.0983    -0.7294    -0.8106 C.3     
   6 C6             2.5128    -0.1516    -0.8893 C.3     
   7 C7             1.1686    -2.2573    -0.8487 C.3     
   8 N8            -1.2918    -2.0062     0.8917 N.am    
   9 C9            -2.6900    -2.4259     1.0145 C.3     
  10 C10           -3.3644    -1.6173     2.0927 C.2     
  11 O11           -2.8880    -0.5589     2.4444 O.2     
  12 C12           -3.4090    -2.2006    -0.3171 C.3     
  13 C13           -2.8200    -3.1082    -1.3660 C.ar    
  14 C14           -3.2597    -4.4146    -1.4740 C.ar    
  15 C15           -1.8447    -2.6315    -2.2223 C.ar    
  16 C16           -2.7213    -5.2487    -2.4347 C.ar    
  17 C17           -1.3034    -3.4614    -3.1850 C.ar    
  18 C18           -1.7386    -4.7744    -3.2914 C.ar    
  19 O19           -1.2070    -5.5931    -4.2370 O.3     
  20 N20           -4.4968    -2.0704     2.6661 N.am    
  21 C21           -5.1524    -1.2843     3.7142 C.3     
  22 C22           -6.6189    -1.6287     3.7573 C.2     
  23 O23           -7.0718    -2.4499     2.9883 O.2     
  24 C24           -4.5133    -1.6046     5.0669 C.3     
  25 C25           -3.0773    -1.1473     5.0649 C.2     
  26 C26           -2.0015    -1.8957     4.7745 C.2     
  27 C27           -2.5914     0.1998     5.3733 C.ar    
  28 C28           -1.1914     0.1474     5.2422 C.ar    
  29 C29           -3.2127     1.3960     5.7359 C.ar    
  30 N30           -0.8661    -1.1382     4.8717 N.pl3   
  31 C31           -0.4417     1.2952     5.4768 C.ar    
  32 C32           -2.4566     2.5118     5.9621 C.ar    
  33 C33           -1.0755     2.4655     5.8334 C.ar    
  34 N34           -7.4271    -1.0241     4.6506 N.am    
  35 C35           -8.8527    -1.3589     4.6925 C.3     
  36 C36           -9.0568    -2.5801     5.5516 C.2     
  37 O37           -8.1088    -3.1159     6.0750 O.2     
  38 C38           -9.6353    -0.1839     5.2822 C.3     
  39 C39           -9.5314     1.0027     4.3591 C.ar    
  40 C40          -10.4665     1.1828     3.3570 C.ar    
  41 C41           -8.5043     1.9142     4.5179 C.ar    
  42 C42          -10.3712     2.2712     2.5102 C.ar    
  43 C43           -8.4123     3.0057     3.6747 C.ar    
  44 C44           -9.3411     3.1798     2.6657 C.ar    
  45 O45          -10.2919    -3.0727     5.7352 O.3     
  46 H46            1.4291     1.5161     0.6392 H       
  47 H47           -0.0113     1.6089    -0.1868 H       
  48 H48            0.9710    -0.7143     1.3398 H       
  49 H49            0.5120    -0.3714    -1.6569 H       
  50 H50            3.0991    -0.5096    -0.0430 H       
  51 H51            2.9844    -0.4706    -1.8188 H       
  52 H52            2.4628     0.9369    -0.8621 H       
  53 H53            1.6492    -2.6217     0.0592 H       
  54 H54            0.1602    -2.6658    -0.9151 H       
  55 H55            1.7464    -2.5728    -1.7175 H       
  56 H56           -0.5781    -2.6352     1.0812 H       
  57 H57           -2.7303    -3.4836     1.2747 H       
  58 H58           -4.4698    -2.4219    -0.1992 H       
  59 H59           -3.2866    -1.1621    -0.6249 H       
  60 H60           -4.0245    -4.7834    -0.8066 H       
  61 H61           -1.5060    -1.6094    -2.1388 H       
  62 H62           -3.0648    -6.2691    -2.5184 H       
  63 H63           -0.5422    -3.0884    -3.8541 H       
  64 H64           -1.6757    -5.5735    -5.0827 H       
  65 H65           -4.8778    -2.9169     2.3847 H       
  66 H66           -5.0347    -0.2222     3.4991 H       
  67 H67           -5.0579    -1.0882     5.8574 H       
  68 H68           -4.5520    -2.6798     5.2416 H       
  69 H69           -2.0280    -2.9411     4.5046 H       
  70 H70           -4.2870     1.4398     5.8371 H       
  71 H71            0.0342    -1.4601     4.7081 H       
  72 H72            0.6336     1.2691     5.3802 H       
  73 H73           -2.9378     3.4372     6.2423 H       
  74 H74           -0.4916     3.3557     6.0151 H       
  75 H75           -7.0648    -0.3673     5.2656 H       
  76 H76           -9.2081    -1.5617     3.6823 H       
  77 H77          -10.6822    -0.4652     5.3959 H       
  78 H78           -9.2211     0.0762     6.2563 H       
  79 H79          -11.2713     0.4729     3.2355 H       
  80 H80           -7.7740     1.7737     5.3010 H       
  81 H81          -11.1014     2.4115     1.7269 H       
  82 H82           -7.6075     3.7155     3.7962 H       
  83 H83           -9.2692     4.0326     2.0069 H       
  84 H84          -10.3729    -3.8575     6.2943 H       
@<TRIPOS>BOND
   1    1    2 1
   2    1   46 1
   3    1   47 1
   4    2    5 1
   5    2    3 1
   6    2   48 1
   7    3    8 am
   8    3    4 2
   9    5    7 1
  10    5    6 1
  11    5   49 1
  12    6   50 1
  13    6   51 1
  14    6   52 1
  15    7   53 1
  16    7   54 1
  17    7   55 1
  18    8    9 1
  19    8   56 1
  20    9   10 1
  21    9   12 1
  22    9   57 1
  23   10   11 2
  24   10   20 am
  25   12   13 1
  26   12   58 1
  27   12   59 1
  28   13   14 ar
  29   13   15 ar
  30   14   16 ar
  31   14   60 1
  32   15   17 ar
  33   15   61 1
  34   16   18 ar
  35   16   62 1
  36   17   18 ar
  37   17   63 1
  38   18   19 1
  39   19   64 1
  40   20   21 1
  41   20   65 1
  42   21   24 1
  43   21   22 1
  44   21   66 1
  45   22   23 2
  46   22   34 am
  47   24   25 1
  48   24   67 1
  49   24   68 1
  50   25   27 1
  51   25   26 2
  52   26   30 1
  53   26   69 1
  54   27   29 ar
  55   27   28 ar
  56   28   30 1
  57   28   31 ar
  58   29   32 ar
  59   29   70 1
  60   30   71 1
  61   31   33 ar
  62   31   72 1
  63   32   33 ar
  64   32   73 1
  65   33   74 1
  66   34   35 1
  67   34   75 1
  68   35   36 1
  69   35   38 1
  70   35   76 1
  71   36   37 2
  72   36   45 1
  73   38   39 1
  74   38   77 1
  75   38   78 1
  76   39   40 ar
  77   39   41 ar
  78   40   42 ar
  79   40   79 1
  80   41   43 ar
  81   41   80 1
  82   42   44 ar
  83   42   81 1
  84   43   44 ar
  85   43   82 1
  86   44   83 1
  87   45   84 1

#	End of record

