#	Name: ASD00840223
#	Creating user name:	WinNT
#	Creation time:	15. 06. 2019 18:37

#	Modifying user name:	WinNT
#	Modification time:	15. 06. 2019 18:37

#	Program:	/corina/corina34_cracker 3.40 0067  02.08.2006

@<TRIPOS>MOLECULE
ASD00840223
  89   94    0    0    0
SMALL
NO_CHARGES


@<TRIPOS>ATOM
   1 N1            -0.0148     1.3152     0.0240 N.ar    
   2 C2             0.0024    -0.0071     0.0103 C.ar    
   3 C3             1.2068    -0.6991    -0.0072 C.ar    
   4 C4             2.3929     0.0137    -0.0100 C.ar    
   5 C5             2.3319     1.4006     0.0048 C.ar    
   6 C6             1.0995     2.0222     0.0218 C.ar    
   7 C7             1.2216    -2.2060    -0.0223 C.3     
   8 C8             0.4764    -2.7318    -1.2306 C.2     
   9 N9             2.5989    -2.7049    -0.0113 N.am    
  10 C10            3.4472    -2.3639    -1.0016 C.2     
  11 N11            4.7405    -2.7378    -0.9396 N.am    
  12 O12            3.0455    -1.7191    -1.9509 O.2     
  13 C13            5.6563    -2.4767    -2.0605 C.3     
  14 C14            6.9068    -1.7789    -1.5150 C.3     
  15 N15            7.4744    -2.5812    -0.4231 N.3     
  16 C16            6.5392    -2.6829     0.7052 C.3     
  17 C17            5.2751    -3.4123     0.2531 C.3     
  18 N18            8.7544    -2.0429     0.0080 N.3     
  19 C19            9.3222    -2.8455     1.1003 C.3     
  20 C20           10.7016    -2.2953     1.4704 C.3     
  21 N21           10.5735    -0.8862     1.8676 N.3     
  22 C22           10.0058    -0.0836     0.7753 C.3     
  23 C23            8.6264    -0.6339     0.4052 C.3     
  24 C24           11.8668    -0.3424     2.3032 C.3     
  25 O25            0.7580    -2.5323    -2.3933 O.2     
  26 N26           -0.5548    -3.4615    -0.7737 N.am    
  27 C27            0.4463    -2.7554     1.1536 C.ar    
  28 C28           -0.6033    -3.4972     0.6170 C.ar    
  29 C29            0.6096    -2.6407     2.5109 C.ar    
  30 C30           -0.2883    -3.2761     3.3761 C.ar    
  31 C31           -1.3459    -4.0235     2.8439 C.ar    
  32 C32           -1.4984    -4.1321     1.4782 C.ar    
  33 F33           -2.2181    -4.6407     3.6706 F       
  34 C34           -1.0174    -5.8480    -2.0641 C.ar    
  35 C35            0.1617    -6.0100    -2.7766 C.ar    
  36 C36           -1.6960    -6.9554    -1.5929 C.ar    
  37 C37           -1.2007    -8.2240    -1.8305 C.ar    
  38 C38           -0.0254    -8.3881    -2.5406 C.ar    
  39 C39            0.6565    -7.2843    -3.0142 C.ar    
  40 H40            0.3595    -9.3802    -2.7249 H       
  41 O41            0.8309    -4.9224    -3.2416 O.3     
  42 C42            2.0379    -5.1645    -3.9671 C.3     
  43 C43            2.6450    -3.8307    -4.4068 C.3     
  44 S44           -1.6452    -4.2311    -1.7540 S.o2    
  45 O45           -2.8273    -4.4006    -0.9839 O.2     
  46 O46           -1.6199    -3.5454    -2.9984 O.2     
  47 O47           -1.1674    -0.6944     0.0137 O.3     
  48 C48           -3.5779    -0.8664     0.0335 C.3     
  49 C49           -2.3716     0.0748     0.0324 C.3     
  50 C50           -0.1265    -3.1631     4.7944 C.1     
  51 N51            0.0019    -3.0734     5.9196 N.1     
  52 H52            3.3443    -0.4972    -0.0231 H       
  53 H53            3.2389     1.9868     0.0034 H       
  54 H54            1.0465     3.1009     0.0330 H       
  55 H55            2.9005    -3.2806     0.7088 H       
  56 H56            5.9384    -3.4191    -2.5301 H       
  57 H57            5.1668    -1.8325    -2.7909 H       
  58 H58            7.6433    -1.6767    -2.3120 H       
  59 H59            6.6377    -0.7917    -1.1391 H       
  60 H60            7.0089    -3.2364     1.5182 H       
  61 H61            6.2752    -1.6832     1.0501 H       
  62 H62            4.5337    -3.3894     1.0518 H       
  63 H63            5.5176    -4.4454     0.0043 H       
  64 H64            8.6653    -2.7943     1.9687 H       
  65 H65            9.4188    -3.8822     0.7777 H       
  66 H66           11.1122    -2.8710     2.2999 H       
  67 H67           11.3664    -2.3716     0.6100 H       
  68 H68            9.9091     0.9530     1.0980 H       
  69 H69           10.6627    -0.1348    -0.0930 H       
  70 H70            8.2158    -0.0581    -0.4242 H       
  71 H71            7.9616    -0.5576     1.2656 H       
  72 H72           12.5839    -0.4112     1.4852 H       
  73 H73           11.7435     0.7015     2.5915 H       
  74 H74           12.2326    -0.9141     3.1561 H       
  75 H75            1.4291    -2.0620     2.9107 H       
  76 H76           -2.3158    -4.7101     1.0730 H       
  77 H77           -2.6141    -6.8298    -1.0381 H       
  78 H78           -1.7323    -9.0883    -1.4607 H       
  79 H79            1.5740    -7.4130    -3.5693 H       
  80 H80            2.7458    -5.6930    -3.3286 H       
  81 H81            1.8183    -5.7710    -4.8458 H       
  82 H82            2.8647    -3.2243    -3.5281 H       
  83 H83            3.5658    -4.0155    -4.9602 H       
  84 H84            1.9372    -3.3022    -5.0453 H       
  85 H85           -4.4964    -0.2797     0.0478 H       
  86 H86           -3.5563    -1.4858    -0.8631 H       
  87 H87           -3.5403    -1.5041     0.9167 H       
  88 H88           -2.3932     0.6942     0.9290 H       
  89 H89           -2.4092     0.7125    -0.8508 H       
@<TRIPOS>BOND
   1    1    2 ar
   2    1    6 ar
   3    2    3 ar
   4    2   47 1
   5    3    4 ar
   6    3    7 1
   7    4    5 ar
   8    4   52 1
   9    5    6 ar
  10    5   53 1
  11    6   54 1
  12    7    8 1
  13    7    9 1
  14    7   27 1
  15    8   25 2
  16    8   26 am
  17    9   10 am
  18    9   55 1
  19   10   11 am
  20   10   12 2
  21   11   13 1
  22   11   17 1
  23   13   14 1
  24   13   56 1
  25   13   57 1
  26   14   15 1
  27   14   58 1
  28   14   59 1
  29   15   16 1
  30   15   18 1
  31   16   17 1
  32   16   60 1
  33   16   61 1
  34   17   62 1
  35   17   63 1
  36   18   19 1
  37   18   23 1
  38   19   20 1
  39   19   64 1
  40   19   65 1
  41   20   21 1
  42   20   66 1
  43   20   67 1
  44   21   22 1
  45   21   24 1
  46   22   23 1
  47   22   68 1
  48   22   69 1
  49   23   70 1
  50   23   71 1
  51   24   72 1
  52   24   73 1
  53   24   74 1
  54   26   44 am
  55   26   28 1
  56   27   28 ar
  57   27   29 ar
  58   28   32 ar
  59   29   30 ar
  60   29   75 1
  61   30   31 ar
  62   30   50 1
  63   31   32 ar
  64   31   33 1
  65   32   76 1
  66   34   35 ar
  67   34   36 ar
  68   34   44 1
  69   35   41 1
  70   35   39 ar
  71   36   37 ar
  72   36   77 1
  73   37   38 ar
  74   37   78 1
  75   38   39 ar
  76   38   40 1
  77   39   79 1
  78   41   42 1
  79   42   43 1
  80   42   80 1
  81   42   81 1
  82   43   82 1
  83   43   83 1
  84   43   84 1
  85   44   45 2
  86   44   46 2
  87   47   49 1
  88   48   49 1
  89   48   85 1
  90   48   86 1
  91   48   87 1
  92   49   88 1
  93   49   89 1
  94   50   51 3

#	End of record

