#	Name: ASD04490004
#	Creating user name:	WinNT
#	Creation time:	15. 06. 2019 20:49

#	Modifying user name:	WinNT
#	Modification time:	15. 06. 2019 20:49

#	Program:	/corina/corina34_cracker 3.40 0067  02.08.2006

@<TRIPOS>MOLECULE
ASD04490004
  36   37    0    0    0
SMALL
NO_CHARGES


@<TRIPOS>ATOM
   1 S1            -0.0172     1.4168     0.0098 S.o2    
   2 O2             0.0021    -0.0041     0.0020 O.2     
   3 O3             1.1617     2.2101     0.0028 O.2     
   4 O4            -0.8288     1.8423    -1.2054 O.3     
   5 O5            -0.8054     1.8291     1.2448 O.3     
   6 O6            -0.4775     7.1780    -2.3575 O.3     
   7 C7             0.5897     7.2119    -3.1638 C.2     
   8 C8             1.0860     5.9547    -3.3264 C.2     
   9 C9             0.2130     5.0731    -2.5243 C.ar    
  10 C10           -0.7442     5.9198    -1.9475 C.ar    
  11 C11            0.1846     3.7045    -2.2748 C.ar    
  12 C12           -0.7944     3.1795    -1.4531 C.ar    
  13 C13           -1.7480     4.0198    -0.8777 C.ar    
  14 C14           -1.7237     5.3797    -1.1229 C.ar    
  15 C15            1.1571     8.4558    -3.7977 C.3     
  16 O16           -2.7092     3.4966    -0.0702 O.3     
  17 C17           -3.6557     4.4103     0.4877 C.3     
  18 C18            2.2480     5.5573    -4.1325 C.2     
  19 O19            3.3554     5.5318    -3.6314 O.2     
  20 O20            2.0865     5.2207    -5.4280 O.3     
  21 C21            3.2787     4.8384    -6.1634 C.3     
  22 C22            2.8999     4.4936    -7.6051 C.3     
  23 H23           -0.3741     1.6030     2.0803 H       
  24 H24            0.9236     3.0558    -2.7215 H       
  25 H25           -2.4659     6.0228    -0.6734 H       
  26 H26            0.5643     9.3196    -3.4969 H       
  27 H27            2.1883     8.5916    -3.4718 H       
  28 H28            1.1290     8.3559    -4.8827 H       
  29 H29           -4.1914     4.9147    -0.3165 H       
  30 H30           -4.3647     3.8642     1.1099 H       
  31 H31           -3.1330     5.1490     1.0953 H       
  32 H32            3.9875     5.6665    -6.1621 H       
  33 H33            3.7346     3.9691    -5.6896 H       
  34 H34            2.1911     3.6655    -7.6064 H       
  35 H35            2.4440     5.3629    -8.0788 H       
  36 H36            3.7949     4.2066    -8.1571 H       
@<TRIPOS>BOND
   1    1    2 2
   2    1    3 2
   3    1    4 1
   4    1    5 1
   5    4   12 1
   6    5   23 1
   7    6    7 1
   8    6   10 1
   9    7    8 2
  10    7   15 1
  11    8    9 1
  12    8   18 1
  13    9   10 ar
  14    9   11 ar
  15   10   14 ar
  16   11   12 ar
  17   11   24 1
  18   12   13 ar
  19   13   14 ar
  20   13   16 1
  21   14   25 1
  22   15   26 1
  23   15   27 1
  24   15   28 1
  25   16   17 1
  26   17   29 1
  27   17   30 1
  28   17   31 1
  29   18   19 2
  30   18   20 1
  31   20   21 1
  32   21   22 1
  33   21   32 1
  34   21   33 1
  35   22   34 1
  36   22   35 1
  37   22   36 1

#	End of record

