#	Name: ASD01914125
#	Creating user name:	WinNT
#	Creation time:	15. 06. 2019 20:02

#	Modifying user name:	WinNT
#	Modification time:	15. 06. 2019 20:02

#	Program:	/corina/corina34_cracker 3.40 0067  02.08.2006

@<TRIPOS>MOLECULE
ASD01914125
  45   48    0    0    0
SMALL
NO_CHARGES


@<TRIPOS>ATOM
   1 C1            -3.4193     1.4955     0.9102 C.2     
   2 C2            -2.8693     0.1354     0.8434 C.2     
   3 N3            -3.5282    -0.9713     0.5319 N.2     
   4 C4            -2.6235    -1.9588     0.6008 C.2     
   5 N5            -1.4852    -1.4291     0.9411 N.2     
   6 O6            -1.5980    -0.2297     1.0805 O.3     
   7 C7            -2.8795    -3.4194     0.3322 C.3     
   8 C8            -2.5542    -4.2340     1.5863 C.3     
   9 C9            -2.8450    -5.7137     1.3252 C.3     
  10 C10           -1.9553    -6.2108     0.1814 C.3     
  11 N11           -2.1558    -5.3412    -0.9858 N.am    
  12 C12           -1.9902    -3.8905    -0.8228 C.3     
  13 C13           -0.4884    -6.1595     0.6133 C.3     
  14 C14           -2.4853    -5.8645    -2.1834 C.2     
  15 C15           -2.7654    -4.9727    -3.3272 C.ar    
  16 C16           -1.8652    -3.9591    -3.6624 C.ar    
  17 C17           -2.1315    -3.1297    -4.7306 C.ar    
  18 C18           -3.2907    -3.3004    -5.4719 C.ar    
  19 C19           -4.1882    -4.3049    -5.1432 C.ar    
  20 C20           -3.9287    -5.1438    -4.0808 C.ar    
  21 O21           -2.5521    -7.0704    -2.3222 O.2     
  22 C22           -2.7239     2.6392     1.2355 C.2     
  23 C23           -3.6316     3.7047     1.1771 C.2     
  24 C24           -4.8383     3.2022     0.8248 C.2     
  25 N25           -4.7204     1.8587     0.6536 N.pl3   
  26 Cl26          -3.2730     5.3723     1.4997 Cl      
  27 F27           -3.5469    -2.4848    -6.5180 F       
  28 H28           -3.9270    -3.5624     0.0671 H       
  29 H29           -1.5007    -4.1098     1.8369 H       
  30 H30           -3.1683    -3.8841     2.4160 H       
  31 H31           -2.6353    -6.2902     2.2261 H       
  32 H32           -3.8927    -5.8355     1.0504 H       
  33 H33           -2.2274    -7.2347    -0.0747 H       
  34 H34           -2.2853    -3.3835    -1.7415 H       
  35 H35           -0.9480    -3.6648    -0.5970 H       
  36 H36           -0.3444    -6.7953     1.4869 H       
  37 H37            0.1429    -6.5135    -0.2018 H       
  38 H38           -0.2186    -5.1332     0.8624 H       
  39 H39           -0.9621    -3.8250    -3.0854 H       
  40 H40           -1.4361    -2.3453    -4.9905 H       
  41 H41           -5.0898    -4.4333    -5.7237 H       
  42 H42           -4.6282    -5.9261    -3.8258 H       
  43 H43           -1.6759     2.7026     1.4887 H       
  44 H44           -5.7446     3.7752     0.6962 H       
  45 H45           -5.4364     1.2558     0.3993 H       
@<TRIPOS>BOND
   1    1    2 1
   2    1   22 2
   3    1   25 1
   4    2    3 2
   5    2    6 1
   6    3    4 1
   7    4    5 2
   8    4    7 1
   9    5    6 1
  10    7    8 1
  11    7   12 1
  12    7   28 1
  13    8    9 1
  14    8   29 1
  15    8   30 1
  16    9   10 1
  17    9   31 1
  18    9   32 1
  19   10   11 1
  20   10   13 1
  21   10   33 1
  22   11   12 1
  23   11   14 am
  24   12   34 1
  25   12   35 1
  26   13   36 1
  27   13   37 1
  28   13   38 1
  29   14   15 1
  30   14   21 2
  31   15   16 ar
  32   15   20 ar
  33   16   17 ar
  34   16   39 1
  35   17   18 ar
  36   17   40 1
  37   18   19 ar
  38   18   27 1
  39   19   20 ar
  40   19   41 1
  41   20   42 1
  42   22   23 1
  43   22   43 1
  44   23   24 2
  45   23   26 1
  46   24   25 1
  47   24   44 1
  48   25   45 1

#	End of record

