#	Name: ASD03092069
#	Creating user name:	WinNT
#	Creation time:	15. 06. 2019 20:31

#	Modifying user name:	WinNT
#	Modification time:	15. 06. 2019 20:31

#	Program:	/corina/corina34_cracker 3.40 0067  02.08.2006

@<TRIPOS>MOLECULE
ASD03092069
  46   48    0    0    0
SMALL
NO_CHARGES


@<TRIPOS>ATOM
   1 N1             0.2760     0.9027    -0.3973 N.pl3   
   2 C2             0.0745    -0.3534     0.0931 C.2     
   3 C3            -1.2665    -0.4984     0.3081 C.2     
   4 C4            -1.8913     0.6993    -0.0613 C.2     
   5 N5            -0.9700     1.5374    -0.4772 N.2     
   6 N6            -3.2652     0.9608     0.0067 N.pl3   
   7 C7            -3.7483     2.2408    -0.2818 C.ar    
   8 C8            -5.0291     2.4011    -0.7942 C.ar    
   9 C9            -5.5060     3.6682    -1.0787 C.ar    
  10 C10           -4.7061     4.7775    -0.8526 C.ar    
  11 C11           -2.9499     3.3535    -0.0508 C.ar    
  12 C12            1.1168    -1.3724     0.3453 C.ar    
  13 C13            1.5671     1.4868    -0.7689 C.3     
  14 C14            2.3519    -1.3149    -0.3098 C.ar    
  15 C15            3.2952    -2.2859    -0.0448 C.ar    
  16 N16            3.0450    -3.2577     0.8118 N.ar    
  17 C17            1.8939    -3.3488     1.4507 C.ar    
  18 C18            0.8970    -2.4174     1.2501 C.ar    
  19 C19            1.6682    -4.4826     2.4174 C.3     
  20 C20            1.8044     1.2844    -2.2432 C.2     
  21 N21            2.9366     1.7430    -2.8128 N.am    
  22 C22           -3.4275     4.6190    -0.3411 C.ar    
  23 F23           -6.7518     3.8245    -1.5776 F       
  24 O24            0.9766     0.7089    -2.9173 O.2     
  25 C25            3.1673     1.5462    -4.2461 C.3     
  26 C26            3.9366     2.4382    -1.9986 C.3     
  27 F27           -5.1729     6.0142    -1.1313 F       
  28 F28           -2.6491     5.7011    -0.1218 F       
  29 H29           -1.7575    -1.3797     0.6937 H       
  30 H30           -3.8818     0.2540     0.2540 H       
  31 H31           -5.6525     1.5370    -0.9708 H       
  32 H32           -1.9553     3.2306     0.3518 H       
  33 H33            1.5612     2.5535    -0.5449 H       
  34 H34            2.3620     1.0011    -0.2029 H       
  35 H35            2.5634    -0.5226    -1.0125 H       
  36 H36            4.2514    -2.2504    -0.5457 H       
  37 H37           -0.0426    -2.4982     1.7764 H       
  38 H38            1.9917    -4.1806     3.4136 H       
  39 H39            0.6080    -4.7347     2.4406 H       
  40 H40            2.2416    -5.3526     2.0974 H       
  41 H41            2.7622     2.3937    -4.7990 H       
  42 H42            4.2380     1.4679    -4.4343 H       
  43 H43            2.6733     0.6306    -4.5712 H       
  44 H44            3.5927     2.4884    -0.9654 H       
  45 H45            4.8809     1.8955    -2.0412 H       
  46 H46            4.0801     3.4479    -2.3832 H       
@<TRIPOS>BOND
   1    1    2 1
   2    1   13 1
   3    1    5 1
   4    2    3 2
   5    2   12 1
   6    3    4 1
   7    3   29 1
   8    4    5 2
   9    4    6 1
  10    6    7 1
  11    6   30 1
  12    7    8 ar
  13    7   11 ar
  14    8    9 ar
  15    8   31 1
  16    9   10 ar
  17    9   23 1
  18   10   22 ar
  19   10   27 1
  20   11   22 ar
  21   11   32 1
  22   12   14 ar
  23   12   18 ar
  24   13   20 1
  25   13   33 1
  26   13   34 1
  27   14   15 ar
  28   14   35 1
  29   15   16 ar
  30   15   36 1
  31   16   17 ar
  32   17   18 ar
  33   17   19 1
  34   18   37 1
  35   19   38 1
  36   19   39 1
  37   19   40 1
  38   20   21 am
  39   20   24 2
  40   21   25 1
  41   21   26 1
  42   22   28 1
  43   25   41 1
  44   25   42 1
  45   25   43 1
  46   26   44 1
  47   26   45 1
  48   26   46 1

#	End of record

