#	Name: ASD01880012
#	Creating user name:	WinNT
#	Creation time:	15. 06. 2019 19:39

#	Modifying user name:	WinNT
#	Modification time:	15. 06. 2019 19:39

#	Program:	/corina/corina34_cracker 3.40 0067  02.08.2006

@<TRIPOS>MOLECULE
ASD01880012
  60   62    0    0    0
SMALL
NO_CHARGES


@<TRIPOS>ATOM
   1 N1             0.0505     1.1521     0.0210 N.pl3   
   2 N2             0.0830    -0.1348     0.0133 N.2     
   3 N3             1.3130    -0.5227    -0.0023 N.2     
   4 C4             2.0775     0.5786    -0.0044 C.2     
   5 N5             1.2554     1.6091     0.0105 N.2     
   6 C6             3.5608     0.6280    -0.0198 C.ar    
   7 C7             4.2982    -0.5545    -0.0347 C.ar    
   8 C8             5.6759    -0.5066    -0.0490 C.ar    
   9 C9             6.3296     0.7202    -0.0481 C.ar    
  10 C10            5.5959     1.9008    -0.0333 C.ar    
  11 C11            4.2179     1.8570    -0.0253 C.ar    
  12 C12           10.6187     6.0882     4.0355 C.ar    
  13 C13           10.2716     5.4092     5.2005 C.ar    
  14 C14           10.5743     5.9352     6.4227 C.ar    
  15 C15           11.2389     7.1657     6.5123 C.ar    
  16 C16           11.5914     7.8539     5.3370 C.ar    
  17 C17           11.2772     7.3079     4.1048 C.ar    
  18 C18           11.6506     8.0365     2.8396 C.3     
  19 C19           13.0462     7.5978     2.3914 C.3     
  20 C20           13.4253     8.3375     1.1069 C.3     
  21 O21           12.2344     9.0455     5.4111 O.3     
  22 C22           11.5646     7.7327     7.8231 C.2     
  23 C23           11.0772     7.0567     9.0787 C.3     
  24 O24           12.2267     8.7467     7.8980 O.2     
  25 N25            7.7244     0.7667    -0.0617 N.pl3   
  26 C26            8.4143     2.0591    -0.0608 C.3     
  27 C27            9.6437     4.2914     2.8255 C.3     
  28 C28            8.6688     2.5004     1.3819 C.3     
  29 C29            9.3893     3.8501     1.3828 C.3     
  30 O30           10.3167     5.5521     2.8264 O.3     
  31 C31            8.4986    -0.4769    -0.0768 C.3     
  32 H32           -0.7546     1.6929     0.0292 H       
  33 H33            3.7907    -1.5079    -0.0346 H       
  34 H34            6.2477    -1.4227    -0.0605 H       
  35 H35            6.1055     2.8530    -0.0323 H       
  36 H36            3.6482     2.7744    -0.0141 H       
  37 H37            9.7592     4.4607     5.1364 H       
  38 H38           10.3010     5.4029     7.3218 H       
  39 H39           10.9276     7.8018     2.0584 H       
  40 H40           11.6495     9.1106     3.0250 H       
  41 H41           13.7691     7.8324     3.1727 H       
  42 H42           13.0473     6.5237     2.2060 H       
  43 H43           12.7023     8.1029     0.3256 H       
  44 H44           13.4241     9.4116     1.2923 H       
  45 H45           14.4195     8.0249     0.7876 H       
  46 H46           13.1985     8.9723     5.4205 H       
  47 H47           10.4271     6.2229     8.8135 H       
  48 H48           11.9306     6.6857     9.6463 H       
  49 H49           10.5214     7.7724     9.6844 H       
  50 H50            9.3654     1.9636    -0.5847 H       
  51 H51            7.7952     2.8018    -0.5641 H       
  52 H52            8.6927     4.3869     3.3494 H       
  53 H53           10.2628     3.5488     3.3288 H       
  54 H54            7.7177     2.5959     1.9058 H       
  55 H55            9.2878     1.7577     1.8852 H       
  56 H56            8.7702     4.5928     0.8795 H       
  57 H57           10.3404     3.7547     0.8590 H       
  58 H58            8.6805    -0.7792    -1.1081 H       
  59 H59            9.4512    -0.3180     0.4286 H       
  60 H60            7.9403    -1.2588     0.4380 H       
@<TRIPOS>BOND
   1    1    2 1
   2    1    5 1
   3    1   32 1
   4    2    3 2
   5    3    4 1
   6    4    5 2
   7    4    6 1
   8    6    7 ar
   9    6   11 ar
  10    7    8 ar
  11    7   33 1
  12    8    9 ar
  13    8   34 1
  14    9   10 ar
  15    9   25 1
  16   10   11 ar
  17   10   35 1
  18   11   36 1
  19   12   13 ar
  20   12   17 ar
  21   12   30 1
  22   13   14 ar
  23   13   37 1
  24   14   15 ar
  25   14   38 1
  26   15   16 ar
  27   15   22 1
  28   16   17 ar
  29   16   21 1
  30   17   18 1
  31   18   19 1
  32   18   39 1
  33   18   40 1
  34   19   20 1
  35   19   41 1
  36   19   42 1
  37   20   43 1
  38   20   44 1
  39   20   45 1
  40   21   46 1
  41   22   23 1
  42   22   24 2
  43   23   47 1
  44   23   48 1
  45   23   49 1
  46   25   26 1
  47   25   31 1
  48   26   28 1
  49   26   50 1
  50   26   51 1
  51   27   30 1
  52   27   29 1
  53   27   52 1
  54   27   53 1
  55   28   29 1
  56   28   54 1
  57   28   55 1
  58   29   56 1
  59   29   57 1
  60   31   58 1
  61   31   59 1
  62   31   60 1

#	End of record

