#	Name: ASD09116221
#	Creating user name:	WinNT
#	Creation time:	15. 06. 2019 21:21

#	Modifying user name:	WinNT
#	Modification time:	15. 06. 2019 21:21

#	Program:	/corina/corina34_cracker 3.40 0067  02.08.2006

@<TRIPOS>MOLECULE
ASD09116221
  58   63    0    0    0
SMALL
NO_CHARGES


@<TRIPOS>ATOM
   1 N1            -0.0332     1.4246     0.1761 N.2     
   2 N2            -0.0274     0.0288     0.3294 N.pl3   
   3 C3             1.2196     1.8114     0.1440 C.2     
   4 N4             2.0104     0.7391     0.2683 N.2     
   5 C5             1.2728    -0.3447     0.3812 C.2     
   6 N6             1.6572     3.1285     0.0026 N.pl3   
   7 C7             3.0195     3.4261     0.0968 C.ar    
   8 C8             3.5532     4.5189    -0.5754 C.ar    
   9 C9             5.6714     4.0641     0.2333 C.ar    
  10 C10            5.2121     2.9698     0.9348 C.ar    
  11 C11            3.8654     2.6371     0.8699 C.ar    
  12 C12           -1.1418    -0.8080     0.4120 C.ar    
  13 N13           -1.0402    -2.0825     0.0655 N.ar    
  14 N14           -2.0373    -2.8924     0.1140 N.ar    
  15 C15           -3.2343    -2.4958     0.5154 C.ar    
  16 C16           -3.4311    -1.1727     0.9210 C.ar    
  17 C17           -2.3628    -0.3027     0.8657 C.ar    
  18 C18           -4.3975    -3.4130     0.5207 C.ar    
  19 C19           -5.5905    -2.9929    -0.0694 C.ar    
  20 C20           -5.6477    -1.6486    -0.7417 C.3     
  21 C21           -5.7499    -0.5191     0.2797 C.3     
  22 C22           -4.7751    -0.7428     1.4327 C.3     
  23 C23           -4.3158    -4.6724     1.1045 C.ar    
  24 C24           -5.4256    -5.4951     1.1134 C.ar    
  25 C25           -6.6120    -5.0668     0.5459 C.ar    
  26 C26           -6.6949    -3.8173    -0.0438 C.ar    
  27 N27            1.7424    -1.6361     0.5276 N.pl3   
  28 N28            4.8357     4.7972    -0.4874 N.ar    
  29 C29            7.1258     4.4629     0.2639 C.3     
  30 C30            7.8262     3.7924     1.4457 C.3     
  31 N31            7.5249     2.3524     1.4139 N.3     
  32 C32            6.1235     2.1198     1.7786 C.3     
  33 C33            8.4298     1.6055     2.2977 C.3     
  34 H34            1.0160     3.8377    -0.1610 H       
  35 H35            2.9094     5.1449    -1.1755 H       
  36 H36            3.4823     1.7833     1.4090 H       
  37 H37           -2.4679     0.7325     1.1550 H       
  38 H38           -4.7460    -1.5095    -1.3381 H       
  39 H39           -6.5170    -1.6150    -1.3985 H       
  40 H40           -5.5177     0.4277    -0.2078 H       
  41 H41           -6.7663    -0.4804     0.6715 H       
  42 H42           -5.1712    -1.5149     2.0923 H       
  43 H43           -4.6648     0.1851     1.9940 H       
  44 H44           -3.3895    -5.0058     1.5485 H       
  45 H45           -5.3665    -6.4748     1.5640 H       
  46 H46           -7.4787    -5.7109     0.5634 H       
  47 H47           -7.6245    -3.4887    -0.4844 H       
  48 H48            2.6973    -1.8048     0.5542 H       
  49 H49            1.1173    -2.3738     0.6037 H       
  50 H50            7.6057     4.1528    -0.6644 H       
  51 H51            7.2021     5.5455     0.3649 H       
  52 H52            8.9029     3.9429     1.3664 H       
  53 H53            7.4618     4.2220     2.3789 H       
  54 H54            5.9785     2.3697     2.8296 H       
  55 H55            5.8808     1.0684     1.6244 H       
  56 H56            8.3161     1.9638     3.3209 H       
  57 H57            8.1852     0.5442     2.2551 H       
  58 H58            9.4596     1.7544     1.9730 H       
@<TRIPOS>BOND
   1    1    2 1
   2    1    3 2
   3    2   12 1
   4    2    5 1
   5    3    4 1
   6    3    6 1
   7    4    5 2
   8    5   27 1
   9    6    7 1
  10    6   34 1
  11    7    8 ar
  12    7   11 ar
  13    8   28 ar
  14    8   35 1
  15    9   10 ar
  16    9   29 1
  17    9   28 ar
  18   10   11 ar
  19   10   32 1
  20   11   36 1
  21   12   13 ar
  22   12   17 ar
  23   13   14 ar
  24   14   15 ar
  25   15   16 ar
  26   15   18 1
  27   16   17 ar
  28   16   22 1
  29   17   37 1
  30   18   19 ar
  31   18   23 ar
  32   19   20 1
  33   19   26 ar
  34   20   21 1
  35   20   38 1
  36   20   39 1
  37   21   22 1
  38   21   40 1
  39   21   41 1
  40   22   42 1
  41   22   43 1
  42   23   24 ar
  43   23   44 1
  44   24   25 ar
  45   24   45 1
  46   25   26 ar
  47   25   46 1
  48   26   47 1
  49   27   48 1
  50   27   49 1
  51   29   30 1
  52   29   50 1
  53   29   51 1
  54   30   31 1
  55   30   52 1
  56   30   53 1
  57   31   32 1
  58   31   33 1
  59   32   54 1
  60   32   55 1
  61   33   56 1
  62   33   57 1
  63   33   58 1

#	End of record

