#	Name: ASD09740556
#	Creating user name:	WinNT
#	Creation time:	15. 06. 2019 21:23

#	Modifying user name:	WinNT
#	Modification time:	15. 06. 2019 21:23

#	Program:	/corina/corina34_cracker 3.40 0067  02.08.2006

@<TRIPOS>MOLECULE
ASD09740556
  70   74    0    0    0
SMALL
NO_CHARGES


@<TRIPOS>ATOM
   1 N1            -0.1863     1.4226     0.8985 N.2     
   2 C2            -0.2385     0.1459     1.1862 C.2     
   3 C3             0.9874     1.9897     0.9158 C.2     
   4 S4             2.2048     0.7912     1.3455 S.3     
   5 C5             0.9467    -0.4369     1.4700 C.2     
   6 C6             1.2545     3.4126     0.6207 C.ar    
   7 C7             0.2032     4.2648     0.2914 C.ar    
   8 C8             2.5618     3.9050     0.6776 C.ar    
   9 C9             2.8165     5.2315     0.4037 C.ar    
  10 C10            1.7776     6.0884     0.0699 C.ar    
  11 C11            0.4610     5.6064     0.0145 C.ar    
  12 O12            2.0340     7.3933    -0.1978 O.3     
  13 C13            3.4061     7.7915    -0.2300 C.3     
  14 C14            3.5567     9.0311    -1.1141 C.3     
  15 C15            3.8760     8.1171     1.1892 C.3     
  16 C16           -0.6132     6.4884    -0.3302 C.1     
  17 N17           -1.4654     7.1880    -0.6036 N.1     
  18 C18            1.1526    -1.8572     1.8233 C.ar    
  19 C19            2.1272    -2.6090     1.1607 C.ar    
  20 C20            2.3144    -3.9344     1.4952 C.ar    
  21 C21            1.5369    -4.5144     2.4856 C.ar    
  22 C22            0.5715    -3.7751     3.1436 C.ar    
  23 C23            0.3785    -2.4476     2.8226 C.ar    
  24 C24            3.0899    -2.2162     0.0609 C.3     
  25 C25            4.1752    -3.3138     0.0636 C.3     
  26 C26            3.4167    -4.5267     0.6431 C.3     
  27 N27            4.3138    -5.3412     1.4665 N.am    
  28 C28            4.0551    -6.6508     1.6519 C.2     
  29 N29            4.8804    -7.4001     2.4095 N.am    
  30 O30            3.0771    -7.1564     1.1358 O.2     
  31 C31            6.1013    -6.9507     3.1042 C.3     
  32 C32            6.3216    -7.9035     4.2939 C.3     
  33 C33            5.1706    -8.9319     4.2029 C.3     
  34 C34            4.7433    -8.8419     2.7199 C.3     
  35 N35            5.6519   -10.2814     4.5270 N.3     
  36 C36            6.1774   -10.3379     5.8976 C.3     
  37 C37            4.5931   -11.2800     4.3276 C.3     
  38 H38           -1.1677    -0.4044     1.1963 H       
  39 H39           -0.8080     3.8876     0.2505 H       
  40 H40            3.3750     3.2435     0.9374 H       
  41 H41            3.8287     5.6055     0.4494 H       
  42 H42            4.0104     6.9802    -0.6357 H       
  43 H43            2.9524     9.8424    -0.7083 H       
  44 H44            4.6033     9.3348    -1.1386 H       
  45 H45            3.2219     8.7992    -2.1251 H       
  46 H46            3.7687     7.2340     1.8190 H       
  47 H47            4.9226     8.4208     1.1647 H       
  48 H48            3.2716     8.9284     1.5949 H       
  49 H49            1.6862    -5.5521     2.7449 H       
  50 H50           -0.0293    -4.2365     3.9134 H       
  51 H51           -0.3753    -1.8698     3.3366 H       
  52 H52            2.5770    -2.1938    -0.9006 H       
  53 H53            3.5342    -1.2444     0.2763 H       
  54 H54            4.5201    -3.5203    -0.9495 H       
  55 H55            5.0082    -3.0336     0.7083 H       
  56 H56            2.9917    -5.1267    -0.1616 H       
  57 H57            5.0940    -4.9379     1.8783 H       
  58 H58            6.9536    -6.9999     2.4264 H       
  59 H59            5.9690    -5.9307     3.4650 H       
  60 H60            7.2853    -8.4049     4.2041 H       
  61 H61            6.2656    -7.3547     5.2340 H       
  62 H62            4.3463    -8.6475     4.8570 H       
  63 H63            3.7105    -9.1677     2.5968 H       
  64 H64            5.4110    -9.4307     2.0909 H       
  65 H65            5.3886   -10.0701     6.6005 H       
  66 H66            6.5270   -11.3480     6.1114 H       
  67 H67            7.0066    -9.6377     5.9980 H       
  68 H68            4.3367   -11.3313     3.2694 H       
  69 H69            4.9454   -12.2552     4.6637 H       
  70 H70            3.7116   -10.9945     4.9016 H       
@<TRIPOS>BOND
   1    1    2 1
   2    1    3 2
   3    2    5 2
   4    2   38 1
   5    3    4 1
   6    3    6 1
   7    4    5 1
   8    5   18 1
   9    6    7 ar
  10    6    8 ar
  11    7   11 ar
  12    7   39 1
  13    8    9 ar
  14    8   40 1
  15    9   10 ar
  16    9   41 1
  17   10   11 ar
  18   10   12 1
  19   11   16 1
  20   12   13 1
  21   13   14 1
  22   13   15 1
  23   13   42 1
  24   14   43 1
  25   14   44 1
  26   14   45 1
  27   15   46 1
  28   15   47 1
  29   15   48 1
  30   16   17 3
  31   18   19 ar
  32   18   23 ar
  33   19   20 ar
  34   19   24 1
  35   20   21 ar
  36   20   26 1
  37   21   22 ar
  38   21   49 1
  39   22   23 ar
  40   22   50 1
  41   23   51 1
  42   24   25 1
  43   24   52 1
  44   24   53 1
  45   25   26 1
  46   25   54 1
  47   25   55 1
  48   26   27 1
  49   26   56 1
  50   27   28 am
  51   27   57 1
  52   28   29 am
  53   28   30 2
  54   29   31 1
  55   29   34 1
  56   31   32 1
  57   31   58 1
  58   31   59 1
  59   32   33 1
  60   32   60 1
  61   32   61 1
  62   33   34 1
  63   33   35 1
  64   33   62 1
  65   34   63 1
  66   34   64 1
  67   35   36 1
  68   35   37 1
  69   36   65 1
  70   36   66 1
  71   36   67 1
  72   37   68 1
  73   37   69 1
  74   37   70 1

#	End of record

