#	Name: ASD01881470
#	Creating user name:	WinNT
#	Creation time:	15. 06. 2019 19:42

#	Modifying user name:	WinNT
#	Modification time:	15. 06. 2019 19:42

#	Program:	/corina/corina34_cracker 3.40 0067  02.08.2006

@<TRIPOS>MOLECULE
ASD01881470
  54   56    0    0    0
SMALL
NO_CHARGES


@<TRIPOS>ATOM
   1 C1            -2.3759     3.4004     3.4903 C.ar    
   2 C2            -3.0030     2.5492     4.4087 C.ar    
   3 C3            -3.8926     1.6002     3.9476 C.ar    
   4 N4            -4.1575     1.4859     2.6608 N.ar    
   5 C5            -3.5891     2.2680     1.7562 C.ar    
   6 C6            -2.6847     3.2541     2.1371 C.ar    
   7 S7            -3.9872     2.0619     0.0522 S.3     
   8 C8            -4.9944     0.6161     0.0526 C.ar    
   9 C9            -6.3721     0.7272     0.1940 C.ar    
  10 C10           -7.1584    -0.4081     0.1939 C.ar    
  11 C11           -8.6528    -0.2886     0.3468 C.3     
  12 O12           -9.2549    -0.1608    -0.9429 O.3     
  13 C13          -10.6058    -0.0423    -0.9830 C.ar    
  14 C14          -11.2517     0.0852    -2.2047 C.ar    
  15 C15          -11.3377    -0.0549     0.2014 C.ar    
  16 C16          -12.6969     0.0631     0.1747 C.ar    
  17 C17          -13.3659     0.1976    -1.0493 C.ar    
  18 C18          -12.6296     0.2058    -2.2480 C.ar    
  19 C19          -10.4533     0.0928    -3.4828 C.3     
  20 O20          -13.2658     0.3358    -3.4385 O.3     
  21 C21          -14.8250     0.3239    -1.0808 C.2     
  22 O22          -15.4011     0.4402    -2.1423 O.2     
  23 C23          -15.6105     0.3095     0.2052 C.3     
  24 C24           -1.4157     4.4322     3.9434 C.2     
  25 O25           -1.1350     4.5616     5.2541 O.3     
  26 C26          -10.3056    -1.3394    -4.0004 C.3     
  27 C27           -9.4950    -1.3317    -5.2980 C.3     
  28 C28           -4.4132    -0.6377    -0.0943 C.ar    
  29 C29           -5.2054    -1.7684    -0.0935 C.ar    
  30 C30           -6.5761    -1.6544     0.0533 C.ar    
  31 O31           -0.8812     5.1618     3.1331 O.2     
  32 H32           -2.7928     2.6342     5.4646 H       
  33 H33           -4.3788     0.9408     4.6512 H       
  34 H34           -2.2230     3.8907     1.3969 H       
  35 H35           -6.8275     1.7003     0.3043 H       
  36 H36           -9.0398    -1.1792     0.8418 H       
  37 H37           -8.8876     0.5912     0.9460 H       
  38 H38          -10.8265    -0.1590     1.1471 H       
  39 H39          -13.2576     0.0524     1.0976 H       
  40 H40          -10.9682     0.6975    -4.2293 H       
  41 H41           -9.4662     0.5139    -3.2921 H       
  42 H42          -13.3721     1.2518    -3.7297 H       
  43 H43          -15.7128     1.3279     0.5800 H       
  44 H44          -16.5992    -0.1114     0.0224 H       
  45 H45          -15.0876    -0.2986     0.9435 H       
  46 H46           -0.5019     5.2494     5.5017 H       
  47 H47           -9.7906    -1.9442    -3.2539 H       
  48 H48          -11.2927    -1.7605    -4.1911 H       
  49 H49           -9.3897    -2.3521    -5.6667 H       
  50 H50          -10.0099    -0.7270    -6.0445 H       
  51 H51           -8.5079    -0.9107    -5.1073 H       
  52 H52           -3.3430    -0.7274    -0.2093 H       
  53 H53           -4.7544    -2.7430    -0.2080 H       
  54 H54           -7.1934    -2.5406     0.0535 H       
@<TRIPOS>BOND
   1    1    2 ar
   2    1   24 1
   3    1    6 ar
   4    2    3 ar
   5    2   32 1
   6    3    4 ar
   7    3   33 1
   8    4    5 ar
   9    5    6 ar
  10    5    7 1
  11    6   34 1
  12    7    8 1
  13    8    9 ar
  14    8   28 ar
  15    9   10 ar
  16    9   35 1
  17   10   11 1
  18   10   30 ar
  19   11   12 1
  20   11   36 1
  21   11   37 1
  22   12   13 1
  23   13   14 ar
  24   13   15 ar
  25   14   19 1
  26   14   18 ar
  27   15   16 ar
  28   15   38 1
  29   16   17 ar
  30   16   39 1
  31   17   18 ar
  32   17   21 1
  33   18   20 1
  34   19   26 1
  35   19   40 1
  36   19   41 1
  37   20   42 1
  38   21   22 2
  39   21   23 1
  40   23   43 1
  41   23   44 1
  42   23   45 1
  43   24   25 1
  44   24   31 2
  45   25   46 1
  46   26   27 1
  47   26   47 1
  48   26   48 1
  49   27   49 1
  50   27   50 1
  51   27   51 1
  52   28   29 ar
  53   28   52 1
  54   29   30 ar
  55   29   53 1
  56   30   54 1

#	End of record

