#	Name: ASD01028668
#	Creating user name:	WinNT
#	Creation time:	15. 06. 2019 18:57

#	Modifying user name:	WinNT
#	Modification time:	15. 06. 2019 18:57

#	Program:	/corina/corina34_cracker 3.40 0067  02.08.2006

@<TRIPOS>MOLECULE
ASD01028668
  33   33    0    0    0
SMALL
NO_CHARGES


@<TRIPOS>ATOM
   1 S1            -0.0209     1.6918     0.0113 S.3     
   2 N2             0.0021    -0.0041     0.0020 N.2     
   3 C3             1.2500    -0.3711    -0.0119 C.2     
   4 C4             2.1947     0.6320    -0.0155 C.2     
   5 C5             1.6885     1.8862    -0.0039 C.2     
   6 C6             1.6441    -1.8256    -0.0230 C.3     
   7 O7             3.0690    -1.9329    -0.0367 O.3     
   8 Si8            3.6185    -3.4685    -0.0496 Si      
   9 C9             3.0150    -4.3569     1.4726 C.3     
  10 C10            2.9869    -4.3413    -1.5695 C.3     
  11 C11            5.4814    -3.4613    -0.0668 C.3     
  12 C12            6.0002    -2.7445     1.1814 C.3     
  13 C13            5.9969    -4.9018    -0.0789 C.3     
  14 C14            5.9771    -2.7317    -1.3169 C.3     
  15 Br15           2.6558     3.5111    -0.0050 Br      
  16 H16            3.2560     0.4325    -0.0264 H       
  17 H17            1.2514    -2.3152     0.8682 H       
  18 H18            1.2350    -2.3061    -0.9117 H       
  19 H19            1.9250    -4.3611     1.4827 H       
  20 H20            3.3822    -5.3831     1.4640 H       
  21 H21            3.3845    -3.8462     2.3619 H       
  22 H22            3.3400    -3.8215    -2.4601 H       
  23 H23            3.3541    -5.3676    -1.5781 H       
  24 H24            1.8969    -4.3455    -1.5594 H       
  25 H25            5.6471    -3.2642     2.0720 H       
  26 H26            7.0901    -2.7402     1.1713 H       
  27 H27            5.6329    -1.7182     1.1900 H       
  28 H28            5.6274    -5.4124    -0.9682 H       
  29 H29            7.0869    -4.8975    -0.0890 H       
  30 H30            5.6438    -5.4215     0.8117 H       
  31 H31            5.6099    -1.7054    -1.3083 H       
  32 H32            7.0670    -2.7274    -1.3270 H       
  33 H33            5.6075    -3.2423    -2.2062 H       
@<TRIPOS>BOND
   1    1    2 1
   2    1    5 1
   3    2    3 2
   4    3    4 1
   5    3    6 1
   6    4    5 2
   7    4   16 1
   8    5   15 1
   9    6    7 1
  10    6   17 1
  11    6   18 1
  12    7    8 1
  13    8    9 1
  14    8   10 1
  15    8   11 1
  16    9   19 1
  17    9   20 1
  18    9   21 1
  19   10   22 1
  20   10   23 1
  21   10   24 1
  22   11   12 1
  23   11   14 1
  24   11   13 1
  25   12   25 1
  26   12   26 1
  27   12   27 1
  28   13   28 1
  29   13   29 1
  30   13   30 1
  31   14   31 1
  32   14   32 1
  33   14   33 1

#	End of record

