#	Name: ASD05720302
#	Creating user name:	WinNT
#	Creation time:	15. 06. 2019 21:02

#	Modifying user name:	WinNT
#	Modification time:	15. 06. 2019 21:02

#	Program:	/corina/corina34_cracker 3.40 0067  02.08.2006

@<TRIPOS>MOLECULE
ASD05720302
  75   79    0    0    0
SMALL
NO_CHARGES


@<TRIPOS>ATOM
   1 C1            -1.2552     0.4503     1.9473 C.3     
   2 C2            -1.1767    -1.0149     1.6037 C.2     
   3 C3            -1.4954    -1.9158     2.4998 C.2     
   4 C4            -0.7314    -1.4438     0.2294 C.3     
   5 C5            -1.9126    -1.4357    -0.7066 C.ar    
   6 C6            -2.2214    -0.2891    -1.4162 C.ar    
   7 C7            -3.3020    -0.2756    -2.2744 C.ar    
   8 C8            -4.0828    -1.4207    -2.4258 C.ar    
   9 C9            -3.7664    -2.5735    -1.7082 C.ar    
  10 C10           -2.6802    -2.5766    -0.8569 C.ar    
  11 C11           -7.2710    -0.3832    -4.1278 C.ar    
  12 C12           -7.4267    -1.3905    -5.0674 C.ar    
  13 C13           -6.5031    -2.4062    -5.1529 C.ar    
  14 C14           -5.4003    -2.4362    -4.2983 C.ar    
  15 C15           -5.2450    -1.4124    -3.3455 C.ar    
  16 C16           -6.1883    -0.3918    -3.2718 C.ar    
  17 C17           -5.1200    -4.3206    -5.5980 C.2     
  18 C18           -6.3843    -3.6214    -6.0405 C.3     
  19 C19           -4.5862    -3.6232    -4.6088 C.2     
  20 C20          -10.0808    -4.6988    -6.0113 C.3     
  21 C21           -8.8722    -3.7809    -6.2054 C.3     
  22 C22           -7.5928    -4.5393    -5.8463 C.3     
  23 C23           -7.4542    -5.7638    -6.7532 C.3     
  24 C24           -8.6628    -6.6817    -6.5590 C.3     
  25 C25           -9.9421    -5.9232    -6.9182 C.3     
  26 C26           -8.2846     0.7289    -4.0448 C.3     
  27 C27           -9.1976     0.4979    -2.8391 C.3     
  28 C28          -10.2267     1.6270    -2.7548 C.3     
  29 C29           -9.5031     2.9659    -2.5975 C.3     
  30 C30           -8.5900     3.1969    -3.8033 C.3     
  31 C31           -7.5610     2.0678    -3.8875 C.3     
  32 C32           -8.3580     0.4767    -1.5602 C.3     
  33 C33            0.1210     0.9425     2.3997 C.3     
  34 H34           -1.5717     1.0129     1.0690 H       
  35 H35           -1.9760     0.5967     2.7518 H       
  36 H36           -1.4390    -2.9659     2.2536 H       
  37 H37           -1.8144    -1.6085     3.4848 H       
  38 H38            0.0282    -0.7539    -0.1383 H       
  39 H39           -0.3148    -2.4497     0.2798 H       
  40 H40           -1.6159     0.5973    -1.2981 H       
  41 H41           -3.5426     0.6204    -2.8273 H       
  42 H42           -4.3676    -3.4635    -1.8215 H       
  43 H43           -2.4315    -3.4703    -0.3039 H       
  44 H44           -8.2761    -1.3779    -5.7343 H       
  45 H45           -6.0729     0.3959    -2.5420 H       
  46 H46           -4.7212    -5.2327    -6.0168 H       
  47 H47           -6.3027    -3.3195    -7.0847 H       
  48 H48           -3.6733    -3.8892    -4.0967 H       
  49 H49          -10.1291    -5.0207    -4.9710 H       
  50 H50          -10.9922    -4.1585    -6.2671 H       
  51 H51           -8.8238    -3.4590    -7.2457 H       
  52 H52           -8.9709    -2.9086    -5.5594 H       
  53 H53           -7.6412    -4.8613    -4.8061 H       
  54 H54           -7.4059    -5.4418    -7.7934 H       
  55 H55           -6.5428    -6.3041    -6.4973 H       
  56 H56           -8.5641    -7.5540    -7.2051 H       
  57 H57           -8.7111    -7.0036    -5.5188 H       
  58 H58          -10.8032    -6.5772    -6.7798 H       
  59 H59           -9.8938    -5.6013    -7.9584 H       
  60 H60           -8.8828     0.7441    -4.9559 H       
  61 H61           -9.7131    -0.4559    -2.9511 H       
  62 H62          -10.8249     1.6422    -3.6659 H       
  63 H63          -10.8771     1.4624    -1.8958 H       
  64 H64          -10.2362     3.7703    -2.5375 H       
  65 H65           -8.9049     2.9507    -1.6864 H       
  66 H66           -9.1882     3.2120    -4.7144 H       
  67 H67           -8.0745     4.1507    -3.6912 H       
  68 H68           -6.9628     2.0526    -2.9765 H       
  69 H69           -6.9105     2.2324    -4.7466 H       
  70 H70           -7.7502     1.3801    -1.5095 H       
  71 H71           -9.0173     0.4332    -0.6933 H       
  72 H72           -7.7082    -0.3985    -1.5667 H       
  73 H73            0.4375     0.3799     3.2780 H       
  74 H74            0.8417     0.7961     1.5953 H       
  75 H75            0.0641     2.0023     2.6482 H       
@<TRIPOS>BOND
   1    1    2 1
   2    1   33 1
   3    1   34 1
   4    1   35 1
   5    2    3 2
   6    2    4 1
   7    3   36 1
   8    3   37 1
   9    4    5 1
  10    4   38 1
  11    4   39 1
  12    5    6 ar
  13    5   10 ar
  14    6    7 ar
  15    6   40 1
  16    7    8 ar
  17    7   41 1
  18    8    9 ar
  19    8   15 1
  20    9   10 ar
  21    9   42 1
  22   10   43 1
  23   11   12 ar
  24   11   16 ar
  25   11   26 1
  26   12   13 ar
  27   12   44 1
  28   13   14 ar
  29   13   18 1
  30   14   15 ar
  31   14   19 1
  32   15   16 ar
  33   16   45 1
  34   17   18 1
  35   17   19 2
  36   17   46 1
  37   18   22 1
  38   18   47 1
  39   19   48 1
  40   20   21 1
  41   20   25 1
  42   20   49 1
  43   20   50 1
  44   21   22 1
  45   21   51 1
  46   21   52 1
  47   22   23 1
  48   22   53 1
  49   23   24 1
  50   23   54 1
  51   23   55 1
  52   24   25 1
  53   24   56 1
  54   24   57 1
  55   25   58 1
  56   25   59 1
  57   26   27 1
  58   26   31 1
  59   26   60 1
  60   27   28 1
  61   27   32 1
  62   27   61 1
  63   28   29 1
  64   28   62 1
  65   28   63 1
  66   29   30 1
  67   29   64 1
  68   29   65 1
  69   30   31 1
  70   30   66 1
  71   30   67 1
  72   31   68 1
  73   31   69 1
  74   32   70 1
  75   32   71 1
  76   32   72 1
  77   33   73 1
  78   33   74 1
  79   33   75 1

#	End of record

