#	Name: ASD02198125
#	Creating user name:	WinNT
#	Creation time:	15. 06. 2019 20:18

#	Modifying user name:	WinNT
#	Modification time:	15. 06. 2019 20:18

#	Program:	/corina/corina34_cracker 3.40 0067  02.08.2006

@<TRIPOS>MOLECULE
ASD02198125
  55   57    0    0    0
SMALL
NO_CHARGES


@<TRIPOS>ATOM
   1 C1             0.9202     1.4497    -0.6675 C.2     
   2 C2             1.1788     0.1109    -0.9054 C.2     
   3 C3             0.1462    -0.8759    -1.0079 C.1     
   4 S4             2.4277     2.3502    -0.6076 S.3     
   5 C5             3.3670     0.8957    -0.9052 C.2     
   6 C6             2.5288    -0.1911    -1.0360 C.2     
   7 C7             4.7787     0.8467    -0.9974 C.2     
   8 C8             5.5330     2.0207    -0.8466 C.2     
   9 O9             5.3418    -0.2200    -1.2087 O.2     
  10 N10            2.9928    -1.4744    -1.2769 N.pl3   
  11 N11           -0.3289     1.9940    -0.5080 N.pl3   
  12 N12           -0.6730    -1.6588    -1.0893 N.1     
  13 S13            4.9198     3.4221    -0.5761 S.o     
  14 C14           -0.4722     3.4123    -0.1704 C.3     
  15 C15           -0.5277     4.2395    -1.4564 C.3     
  16 C16           -1.7753     3.8571    -2.2553 C.3     
  17 C17           -3.3208     4.9670     1.7821 C.3     
  18 O18           -2.0832     4.8452     1.0326 O.3     
  19 C19           -1.7432     3.6162     0.6133 C.2     
  20 O20           -2.4561     2.6735     0.8641 O.2     
  21 C21           -0.5841     5.7272    -1.1037 C.3     
  22 C22            0.5937     6.0806    -0.1933 C.3     
  23 C23           -0.5051     6.5586    -2.3857 C.3     
  24 C24            6.4677     4.3841    -0.5070 C.3     
  25 C25            7.5314     3.3287    -0.7465 C.ar    
  26 C26            6.9425     2.0715    -0.9164 C.ar    
  27 C27            8.9025     3.4789    -0.8027 C.ar    
  28 C28            9.7220     2.3875    -1.0337 C.ar    
  29 C29            9.1620     1.1316    -1.2105 C.ar    
  30 C30            7.8040     0.9621    -1.1527 C.ar    
  31 H31            3.9452    -1.6380    -1.3608 H       
  32 H32            2.3652    -2.2091    -1.3616 H       
  33 H33           -1.1172     1.4397    -0.6187 H       
  34 H34            4.4048     3.7628    -1.7709 H       
  35 H35            0.3799     3.7308     0.4300 H       
  36 H36            0.3617     4.0414    -2.0545 H       
  37 H37           -2.6647     4.0553    -1.6572 H       
  38 H38           -1.8148     4.4464    -3.1714 H       
  39 H39           -1.7351     2.7972    -2.5065 H       
  40 H40           -3.4764     6.0095     2.0597 H       
  41 H41           -4.1534     4.6268     1.1664 H       
  42 H42           -3.2617     4.3560     2.6829 H       
  43 H43           -1.5197     5.9431    -0.5878 H       
  44 H44            1.5241     5.7606    -0.6623 H       
  45 H45            0.6191     7.1586    -0.0339 H       
  46 H46            0.4769     5.5743     0.7649 H       
  47 H47           -1.3442     6.3069    -3.0343 H       
  48 H48           -0.5453     7.6185    -2.1345 H       
  49 H49            0.4305     6.3427    -2.9017 H       
  50 H50            6.4887     5.1386    -1.2934 H       
  51 H51            6.5934     4.8433     0.4735 H       
  52 H52            9.3397     4.4568    -0.6655 H       
  53 H53           10.7937     2.5139    -1.0765 H       
  54 H54            9.8014     0.2801    -1.3911 H       
  55 H55            7.3818    -0.0221    -1.2923 H       
@<TRIPOS>BOND
   1    1    2 2
   2    1    4 1
   3    1   11 1
   4    2    3 1
   5    2    6 1
   6    3   12 3
   7    4    5 1
   8    5    6 2
   9    5    7 1
  10    6   10 1
  11    7    8 1
  12    7    9 2
  13    8   13 2
  14    8   26 1
  15   10   31 1
  16   10   32 1
  17   11   14 1
  18   11   33 1
  19   13   24 1
  20   13   34 1
  21   14   15 1
  22   14   19 1
  23   14   35 1
  24   15   16 1
  25   15   21 1
  26   15   36 1
  27   16   37 1
  28   16   38 1
  29   16   39 1
  30   17   18 1
  31   17   40 1
  32   17   41 1
  33   17   42 1
  34   18   19 1
  35   19   20 2
  36   21   22 1
  37   21   23 1
  38   21   43 1
  39   22   44 1
  40   22   45 1
  41   22   46 1
  42   23   47 1
  43   23   48 1
  44   23   49 1
  45   24   25 1
  46   24   50 1
  47   24   51 1
  48   25   26 ar
  49   25   27 ar
  50   26   30 ar
  51   27   28 ar
  52   27   52 1
  53   28   29 ar
  54   28   53 1
  55   29   30 ar
  56   29   54 1
  57   30   55 1

#	End of record

