#	Name: ASD01900505
#	Creating user name:	WinNT
#	Creation time:	15. 06. 2019 19:52

#	Modifying user name:	WinNT
#	Modification time:	15. 06. 2019 19:52

#	Program:	/corina/corina34_cracker 3.40 0067  02.08.2006

@<TRIPOS>MOLECULE
ASD01900505
  33   35    0    0    0
SMALL
NO_CHARGES


@<TRIPOS>ATOM
   1 C1            -0.0152     1.5206    -0.5810 C.ar    
   2 C2             0.0527     0.4095    -1.4344 C.ar    
   3 C3             1.2639    -0.2630    -1.5733 C.ar    
   4 C4             2.3544     0.1974    -0.8587 C.ar    
   5 C5             2.2139     1.3034    -0.0328 C.ar    
   6 N6             1.0612     1.9244     0.0841 N.ar    
   7 O7            -1.1724     0.2336    -1.9673 O.3     
   8 N8            -2.0487     1.2244    -1.4689 N.2     
   9 C9            -1.4061     2.0017    -0.6426 C.2     
  10 N10           -1.9329     3.0869     0.0451 N.pl3   
  11 C11           -3.3036     3.3613    -0.0250 C.ar    
  12 C12           -3.7576     4.6678     0.1016 C.ar    
  13 C13           -5.1140     4.9375     0.0321 C.ar    
  14 C14           -6.0195     3.8988    -0.1644 C.ar    
  15 C15           -5.5635     2.5970    -0.2898 C.ar    
  16 C16           -4.2090     2.3283    -0.2267 C.ar    
  17 O17           -7.3527     4.1624    -0.2329 O.3     
  18 C18           -8.2246     3.0485    -0.4362 C.3     
  19 O19           -5.5609     6.2158     0.1562 O.3     
  20 C20           -4.5755     7.2311     0.3564 C.3     
  21 H21            1.3493    -1.1221    -2.2221 H       
  22 H22            3.3090    -0.3008    -0.9427 H       
  23 H23            3.0674     1.6608     0.5242 H       
  24 H24           -1.3510     3.6548     0.5740 H       
  25 H25           -3.0536     5.4723     0.2544 H       
  26 H26           -6.2667     1.7914    -0.4416 H       
  27 H27           -3.8550     1.3132    -0.3295 H       
  28 H28           -9.2568     3.3968    -0.4714 H       
  29 H29           -7.9743     2.5581    -1.3769 H       
  30 H30           -8.1077     2.3411     0.3847 H       
  31 H31           -4.0216     7.0243     1.2722 H       
  32 H32           -3.8880     7.2420    -0.4894 H       
  33 H33           -5.0651     8.2014     0.4392 H       
@<TRIPOS>BOND
   1    1    2 ar
   2    1    6 ar
   3    1    9 1
   4    2    3 ar
   5    2    7 1
   6    3    4 ar
   7    3   21 1
   8    4    5 ar
   9    4   22 1
  10    5    6 ar
  11    5   23 1
  12    7    8 1
  13    8    9 2
  14    9   10 1
  15   10   11 1
  16   10   24 1
  17   11   12 ar
  18   11   16 ar
  19   12   13 ar
  20   12   25 1
  21   13   14 ar
  22   13   19 1
  23   14   15 ar
  24   14   17 1
  25   15   16 ar
  26   15   26 1
  27   16   27 1
  28   17   18 1
  29   18   28 1
  30   18   29 1
  31   18   30 1
  32   19   20 1
  33   20   31 1
  34   20   32 1
  35   20   33 1

#	End of record

