#	Name: ASD01410478
#	Creating user name:	WinNT
#	Creation time:	15. 06. 2019 19:17

#	Modifying user name:	WinNT
#	Modification time:	15. 06. 2019 19:17

#	Program:	/corina/corina34_cracker 3.40 0067  02.08.2006

@<TRIPOS>MOLECULE
ASD01410478
  92   99    0    0    0
SMALL
NO_CHARGES


@<TRIPOS>ATOM
   1 C1            -0.3555     0.9239     0.8128 C.ar    
   2 C2            -0.4394    -0.4694     0.7105 C.ar    
   3 C3            -1.6216    -1.1107     0.4539 C.ar    
   4 C4            -2.7587    -0.3019     0.2923 C.ar    
   5 C5            -2.6831     1.1027     0.4033 C.ar    
   6 C6            -1.4806     1.7449     0.6580 C.ar    
   7 C7            -4.0971    -0.5983     0.0081 C.2     
   8 C8            -4.8218     0.5687     0.0478 C.2     
   9 N9            -3.9606     1.6174     0.2137 N.pl3   
  10 C10            0.9546     1.5455     1.0850 C.2     
  11 N11            2.0495     0.7733     1.2316 N.am    
  12 O12            1.0466     2.7545     1.1771 O.2     
  13 S13            3.5199     1.4709     1.5371 S.o2    
  14 O14            4.4498     0.4047     1.6712 O.2     
  15 O15            3.6711     2.5195     0.5901 O.2     
  16 N16            3.4200     2.1940     3.0236 N.am    
  17 C17            3.7711     1.4404     4.2298 C.3     
  18 C18            2.9806     3.5873     3.1323 C.3     
  19 C19           -6.2973     0.5680    -0.0431 C.ar    
  20 C20           -7.0400     1.6048    -0.6130 C.ar    
  21 C21           -6.4321     2.8174    -1.1285 C.3     
  22 C22           -5.4170     3.6168    -0.3482 C.3     
  23 C23           -4.1167     3.0673     0.2069 C.3     
  24 C24           -5.4183     3.4733    -1.9088 C.3     
  25 C25           -6.9908    -0.4972     0.5510 C.ar    
  26 C26           -8.3581    -0.6077     0.4680 C.ar    
  27 C27           -9.0858     0.3888    -0.1681 C.ar    
  28 C28           -8.4251     1.4850    -0.6861 C.ar    
  29 C29           -4.5722    -1.9847    -0.3429 C.3     
  30 C30           -3.8538    -2.4657    -1.6052 C.3     
  31 C31           -4.3362    -3.8733    -1.9615 C.3     
  32 C32           -4.0279    -4.8261    -0.8048 C.3     
  33 C33           -4.7463    -4.3451     0.4575 C.3     
  34 C34           -4.2639    -2.9375     0.8138 C.3     
  35 C35           -5.8699     4.9329     0.2305 C.2     
  36 O36          -10.4351     0.2889    -0.2794 O.3     
  37 C37          -11.0482    -0.8732     0.2824 C.3     
  38 O38           -5.4078     5.9719    -0.1913 O.2     
  39 N39           -6.7884     4.9551     1.2165 N.am    
  40 C40           -7.5450     3.8185     1.7990 C.3     
  41 C41           -7.2853     6.1211     1.9891 C.3     
  42 C42           -8.7306     6.3796     1.5322 C.3     
  43 N43           -9.5577     5.2169     1.8844 N.3     
  44 C44           -9.0031     3.9639     1.3329 C.3     
  45 C45          -10.9499     5.4129     1.4587 C.3     
  46 C46           -7.3389     5.6092     3.4480 C.3     
  47 C47           -7.5106     4.0863     3.3222 C.3     
  48 H48            0.4566    -1.0583     0.8396 H       
  49 H49           -1.6728    -2.1866     0.3816 H       
  50 H50           -1.4159     2.8197     0.7417 H       
  51 H51            1.9761    -0.1912     1.1581 H       
  52 H52            4.8327     1.5677     4.4416 H       
  53 H53            3.1858     1.8095     5.0720 H       
  54 H54            3.5560     0.3834     4.0733 H       
  55 H55            2.7652     3.9790     2.1381 H       
  56 H56            2.0808     3.6377     3.7454 H       
  57 H57            3.7688     4.1819     3.5942 H       
  58 H58           -7.2923     3.4444    -1.3444 H       
  59 H59           -4.0046     3.4262     1.2314 H       
  60 H60           -3.2967     3.4897    -0.3802 H       
  61 H61           -4.6495     2.8476    -2.3621 H       
  62 H62           -5.7213     4.3416    -2.4959 H       
  63 H63           -6.4647    -1.2330     1.1407 H       
  64 H64           -8.8596    -1.4649     0.8927 H       
  65 H65           -9.0019     2.2660    -1.1595 H       
  66 H66           -5.6473    -1.9660    -0.5215 H       
  67 H67           -4.0735    -1.7869    -2.4293 H       
  68 H68           -2.7787    -2.4844    -1.4266 H       
  69 H69           -5.4113    -3.8546    -2.1402 H       
  70 H70           -3.8244    -4.2159    -2.8608 H       
  71 H71           -4.3715    -5.8289    -1.0587 H       
  72 H72           -2.9528    -4.8448    -0.6262 H       
  73 H73           -5.8214    -4.3264     0.2788 H       
  74 H74           -4.5267    -5.0239     1.2815 H       
  75 H75           -3.1888    -2.9562     0.9924 H       
  76 H76           -4.7758    -2.5949     1.7131 H       
  77 H77          -12.1258    -0.8277     0.1248 H       
  78 H78          -10.6477    -1.7647    -0.2003 H       
  79 H79          -10.8387    -0.9137     1.3513 H       
  80 H80           -7.1185     2.8527     1.5277 H       
  81 H81           -6.6507     6.9994     1.8702 H       
  82 H82           -9.1179     7.2676     2.0316 H       
  83 H83           -8.7508     6.5281     0.4525 H       
  84 H84           -9.0361     4.0003     0.2440 H       
  85 H85           -9.5864     3.1148     1.6890 H       
  86 H86          -10.9833     5.5510     0.3780 H       
  87 H87          -11.5399     4.5379     1.7316 H       
  88 H88          -11.3595     6.2951     1.9506 H       
  89 H89           -6.4093     5.8425     3.9670 H       
  90 H90           -8.1883     6.0462     3.9731 H       
  91 H91           -8.4450     3.7687     3.7851 H       
  92 H92           -6.6651     3.5723     3.7795 H       
@<TRIPOS>BOND
   1    1    2 ar
   2    1   10 1
   3    1    6 ar
   4    2    3 ar
   5    2   48 1
   6    3    4 ar
   7    3   49 1
   8    4    5 ar
   9    4    7 1
  10    5    6 ar
  11    5    9 1
  12    6   50 1
  13    7    8 2
  14    7   29 1
  15    8    9 1
  16    8   19 1
  17    9   23 1
  18   10   11 am
  19   10   12 2
  20   11   13 am
  21   11   51 1
  22   13   14 2
  23   13   15 2
  24   13   16 am
  25   16   17 1
  26   16   18 1
  27   17   52 1
  28   17   53 1
  29   17   54 1
  30   18   55 1
  31   18   56 1
  32   18   57 1
  33   19   20 ar
  34   19   25 ar
  35   20   21 1
  36   20   28 ar
  37   21   22 1
  38   21   24 1
  39   21   58 1
  40   22   23 1
  41   22   24 1
  42   22   35 1
  43   23   59 1
  44   23   60 1
  45   24   61 1
  46   24   62 1
  47   25   26 ar
  48   25   63 1
  49   26   27 ar
  50   26   64 1
  51   27   28 ar
  52   27   36 1
  53   28   65 1
  54   29   30 1
  55   29   34 1
  56   29   66 1
  57   30   31 1
  58   30   67 1
  59   30   68 1
  60   31   32 1
  61   31   69 1
  62   31   70 1
  63   32   33 1
  64   32   71 1
  65   32   72 1
  66   33   34 1
  67   33   73 1
  68   33   74 1
  69   34   75 1
  70   34   76 1
  71   35   38 2
  72   35   39 am
  73   36   37 1
  74   37   77 1
  75   37   78 1
  76   37   79 1
  77   39   40 1
  78   39   41 1
  79   40   44 1
  80   40   47 1
  81   40   80 1
  82   41   42 1
  83   41   46 1
  84   41   81 1
  85   42   43 1
  86   42   82 1
  87   42   83 1
  88   43   44 1
  89   43   45 1
  90   44   84 1
  91   44   85 1
  92   45   86 1
  93   45   87 1
  94   45   88 1
  95   46   47 1
  96   46   89 1
  97   46   90 1
  98   47   91 1
  99   47   92 1

#	End of record

