#	Name: ASD03490051
#	Creating user name:	WinNT
#	Creation time:	15. 06. 2019 20:42

#	Modifying user name:	WinNT
#	Modification time:	15. 06. 2019 20:42

#	Program:	/corina/corina34_cracker 3.40 0067  02.08.2006

@<TRIPOS>MOLECULE
ASD03490051
  54   54    0    0    0
SMALL
NO_CHARGES


@<TRIPOS>ATOM
   1 O1            -0.5470     1.9243     1.0803 O.3     
   2 C2            -0.2423     0.6240     0.9461 C.2     
   3 C3            -1.3304    -0.3795     0.6628 C.3     
   4 O4             0.9043     0.2580     1.0523 O.2     
   5 O5            -0.7789    -1.6977     0.6792 O.3     
   6 C6            -2.4189    -0.2681     1.7335 C.3     
   7 O7            -1.8986    -0.1165    -0.6217 O.3     
   8 C8            -2.9285    -1.0310    -1.0024 C.3     
   9 C9            -4.0814    -0.9456     0.0012 C.3     
  10 C10           -3.5491    -1.2486     1.4054 C.3     
  11 C11           -3.4399    -0.6711    -2.3988 C.3     
  12 C12           -2.3307    -0.9097    -3.4253 C.3     
  13 C13           -2.0245    -2.4065    -3.5067 C.3     
  14 O14           -3.2272    -3.1241    -3.7903 O.3     
  15 O15           -2.7578    -0.4406    -4.7058 O.3     
  16 C16           -4.6799     0.4622    -0.0262 C.3     
  17 O17           -5.6764     0.5760     0.9917 O.3     
  18 O18           -3.0490    -2.5865     1.4488 O.3     
  19 P19           -1.9137     0.6167    -5.5786 P.3     
  20 S20           -0.1193     0.1140    -5.5978 S.2     
  21 N21           -5.2891     0.7085    -1.3356 N.am    
  22 O22           -4.5334     2.7940    -1.3704 O.2     
  23 C23           -5.1568     1.9135    -1.9245 C.2     
  24 C24           -5.7834     2.1669    -3.2714 C.3     
  25 O25           -2.4801     0.6421    -7.0855 O.3     
  26 C26           -1.7667     1.2300    -8.1752 C.3     
  27 O27           -2.0534     2.0827    -4.9280 O.3     
  28 C28           -1.3830     2.4679    -3.7262 C.3     
  29 H29            0.1846     2.5302     1.2615 H       
  30 H30           -0.1369    -1.8642    -0.0245 H       
  31 H31           -1.9970    -0.5116     2.7086 H       
  32 H32           -2.8118     0.7485     1.7492 H       
  33 H33           -2.5290    -2.0451    -1.0117 H       
  34 H34           -4.8485    -1.6738    -0.2624 H       
  35 H35           -4.3531    -1.1348     2.1326 H       
  36 H36           -4.3005    -1.2942    -2.6424 H       
  37 H37           -3.7339     0.3783    -2.4188 H       
  38 H38           -1.4330    -0.3711    -3.1220 H       
  39 H39           -1.2986    -2.5862    -4.2997 H       
  40 H40           -1.6147    -2.7457    -2.5553 H       
  41 H41           -3.1078    -4.0814    -3.8562 H       
  42 H42           -3.8930     1.1950     0.1521 H       
  43 H43           -6.3698    -0.0960     0.9403 H       
  44 H44           -2.6954    -2.8465     2.3104 H       
  45 H45           -5.7876     0.0042    -1.7788 H       
  46 H46           -6.2976     1.2667    -3.6080 H       
  47 H47           -6.4986     2.9855    -3.1912 H       
  48 H48           -5.0071     2.4317    -3.9892 H       
  49 H49           -0.8074     0.7266    -8.2953 H       
  50 H50           -2.3495     1.1243    -9.0902 H       
  51 H51           -1.5991     2.2875    -7.9714 H       
  52 H52           -1.5607     3.5261    -3.5343 H       
  53 H53           -1.7644     1.8784    -2.8924 H       
  54 H54           -0.3127     2.2931    -3.8352 H       
@<TRIPOS>BOND
   1    1    2 1
   2    1   29 1
   3    2    3 1
   4    2    4 2
   5    3    5 1
   6    3    6 1
   7    3    7 1
   8    5   30 1
   9    6   10 1
  10    6   31 1
  11    6   32 1
  12    7    8 1
  13    8    9 1
  14    8   11 1
  15    8   33 1
  16    9   10 1
  17    9   16 1
  18    9   34 1
  19   10   18 1
  20   10   35 1
  21   11   12 1
  22   11   36 1
  23   11   37 1
  24   12   13 1
  25   12   15 1
  26   12   38 1
  27   13   14 1
  28   13   39 1
  29   13   40 1
  30   14   41 1
  31   15   19 1
  32   16   17 1
  33   16   21 1
  34   16   42 1
  35   17   43 1
  36   18   44 1
  37   19   20 2
  38   19   25 1
  39   19   27 1
  40   21   23 am
  41   21   45 1
  42   22   23 2
  43   23   24 1
  44   24   46 1
  45   24   47 1
  46   24   48 1
  47   25   26 1
  48   26   49 1
  49   26   50 1
  50   26   51 1
  51   27   28 1
  52   28   52 1
  53   28   53 1
  54   28   54 1

#	End of record

