#	Name: ASD04882050
#	Creating user name:	WinNT
#	Creation time:	15. 06. 2019 20:54

#	Modifying user name:	WinNT
#	Modification time:	15. 06. 2019 20:54

#	Program:	/corina/corina34_cracker 3.40 0067  02.08.2006

@<TRIPOS>MOLECULE
ASD04882050
  83   88    0    0    0
SMALL
NO_CHARGES


@<TRIPOS>ATOM
   1 C1             1.1333     1.2700     5.2449 C.ar    
   2 C2             0.6906     0.0893     4.6279 C.ar    
   3 C3             1.2294    -0.2900     3.3733 C.ar    
   4 C4             2.2002     0.5289     2.7710 C.ar    
   5 C5             2.6063     1.6672     3.3970 C.ar    
   6 C6             2.0757     2.0376     4.6308 C.ar    
   7 C7            -0.2814    -0.7323     5.2296 C.ar    
   8 C8            -0.6637    -1.8662     4.5714 C.ar    
   9 C9            -0.0937    -2.1809     3.3396 C.ar    
  10 N10            0.8115    -1.4139     2.7823 N.ar    
  11 S11            2.8891     0.0832     1.2117 S.o2    
  12 O12            1.8014    -0.3298     0.3958 O.2     
  13 O13            3.7769     1.1324     0.8506 O.2     
  14 N14            3.8268    -1.2597     1.4558 N.am    
  15 C15            3.2413    -2.4506     1.9029 C.ar    
  16 C16            3.2582    -2.7706     3.2632 C.ar    
  17 C17            2.6776    -3.9522     3.7085 C.ar    
  18 C18            2.0835    -4.8122     2.8112 C.ar    
  19 C19            2.0626    -4.4983     1.4497 C.ar    
  20 C20            2.6414    -3.3077     1.0000 C.ar    
  21 N21            3.8584    -1.9039     4.1744 N.3     
  22 C22            5.3102    -1.8345     3.9575 C.3     
  23 C23            3.5536    -2.2992     5.5566 C.3     
  24 C24            4.1629    -1.2798     6.5221 C.3     
  25 N25            5.6147    -1.2104     6.3051 N.3     
  26 C26            5.9195    -0.8151     4.9229 C.3     
  27 C27            6.2163    -0.3417     7.2185 C.ar    
  28 C28            5.8428     0.9955     7.2570 C.ar    
  29 C29            7.1857    -0.8144     8.0943 C.ar    
  30 C30            7.7785     0.0472     8.9959 C.ar    
  31 C31            7.4079     1.3793     9.0281 C.ar    
  32 C32            6.4398     1.8519     8.1614 C.ar    
  33 C33            7.5894    -2.2659     8.0606 C.3     
  34 C34            1.4268    -5.4197     0.4888 C.2     
  35 N35            0.8655    -6.5651     0.9239 N.am    
  36 O36            1.4092    -5.1456    -0.6957 O.2     
  37 C37            0.2342    -7.4801    -0.0303 C.3     
  38 C38           -0.3204    -8.6941     0.7177 C.3     
  39 C39           -0.9798    -9.6496    -0.2788 C.3     
  40 N40           -1.5108   -10.8121     0.4374 N.am    
  41 C41           -2.8675   -10.8949     0.9908 C.3     
  42 C42           -2.8308   -12.0651     1.9987 C.3     
  43 C43           -1.6705   -12.9232     1.4434 C.3     
  44 C44           -0.8198   -11.9420     0.6672 C.2     
  45 O45            0.3218   -12.1428     0.3105 O.2     
  46 H46            0.7257     1.5702     6.1989 H       
  47 H47            3.3527     2.2928     2.9303 H       
  48 H48            2.4153     2.9461     5.1058 H       
  49 H49           -0.7126    -0.4732     6.1854 H       
  50 H50           -1.4070    -2.5186     5.0055 H       
  51 H51           -0.4058    -3.0808     2.8305 H       
  52 H52            4.7816    -1.2213     1.2892 H       
  53 H53            2.6925    -4.1968     4.7603 H       
  54 H54            1.6337    -5.7300     3.1603 H       
  55 H55            2.6269    -3.0624    -0.0517 H       
  56 H56            5.7520    -2.8146     4.1371 H       
  57 H57            5.5102    -1.5277     2.9309 H       
  58 H58            2.4730    -2.3312     5.6958 H       
  59 H59            3.9755    -3.2846     5.7544 H       
  60 H60            3.7211    -0.2997     6.3424 H       
  61 H61            3.9628    -1.5866     7.5487 H       
  62 H62            7.0000    -0.7831     4.7837 H       
  63 H63            5.4976     0.1703     4.7251 H       
  64 H64            5.0866     1.3653     6.5804 H       
  65 H65            8.5321    -0.3196     9.6770 H       
  66 H66            7.8727     2.0509     9.7347 H       
  67 H67            6.1528     2.8927     8.1891 H       
  68 H68            8.4166    -2.3969     7.3629 H       
  69 H69            7.9013    -2.5795     9.0569 H       
  70 H70            6.7424    -2.8712     7.7378 H       
  71 H71            0.8796    -6.7837     1.8689 H       
  72 H72           -0.5792    -6.9662    -0.5426 H       
  73 H73            0.9729    -7.8097    -0.7608 H       
  74 H74            0.4930    -9.2079     1.2300 H       
  75 H75           -1.0591    -8.3644     1.4483 H       
  76 H76           -1.7932    -9.1358    -0.7911 H       
  77 H77           -0.2410    -9.9793    -1.0093 H       
  78 H78           -3.1245    -9.9662     1.5003 H       
  79 H79           -3.5862   -11.1024     0.1980 H       
  80 H80           -2.6054   -11.7076     3.0034 H       
  81 H81           -3.7682   -12.6211     1.9852 H       
  82 H82           -1.0989   -13.3657     2.2592 H       
  83 H83           -2.0531   -13.6987     0.7799 H       
@<TRIPOS>BOND
   1    1    2 ar
   2    1    6 ar
   3    1   46 1
   4    2    3 ar
   5    2    7 ar
   6    3    4 ar
   7    3   10 ar
   8    4    5 ar
   9    4   11 1
  10    5    6 ar
  11    5   47 1
  12    6   48 1
  13    7    8 ar
  14    7   49 1
  15    8    9 ar
  16    8   50 1
  17    9   10 ar
  18    9   51 1
  19   11   12 2
  20   11   13 2
  21   11   14 am
  22   14   15 1
  23   14   52 1
  24   15   16 ar
  25   15   20 ar
  26   16   17 ar
  27   16   21 1
  28   17   18 ar
  29   17   53 1
  30   18   19 ar
  31   18   54 1
  32   19   20 ar
  33   19   34 1
  34   20   55 1
  35   21   22 1
  36   21   23 1
  37   22   26 1
  38   22   56 1
  39   22   57 1
  40   23   24 1
  41   23   58 1
  42   23   59 1
  43   24   25 1
  44   24   60 1
  45   24   61 1
  46   25   26 1
  47   25   27 1
  48   26   62 1
  49   26   63 1
  50   27   28 ar
  51   27   29 ar
  52   28   32 ar
  53   28   64 1
  54   29   30 ar
  55   29   33 1
  56   30   31 ar
  57   30   65 1
  58   31   32 ar
  59   31   66 1
  60   32   67 1
  61   33   68 1
  62   33   69 1
  63   33   70 1
  64   34   35 am
  65   34   36 2
  66   35   37 1
  67   35   71 1
  68   37   38 1
  69   37   72 1
  70   37   73 1
  71   38   39 1
  72   38   74 1
  73   38   75 1
  74   39   40 1
  75   39   76 1
  76   39   77 1
  77   40   41 1
  78   40   44 am
  79   41   42 1
  80   41   78 1
  81   41   79 1
  82   42   43 1
  83   42   80 1
  84   42   81 1
  85   43   44 1
  86   43   82 1
  87   43   83 1
  88   44   45 2

#	End of record

