#	Name: ASD09116390
#	Creating user name:	WinNT
#	Creation time:	15. 06. 2019 21:21

#	Modifying user name:	WinNT
#	Modification time:	15. 06. 2019 21:21

#	Program:	/corina/corina34_cracker 3.40 0067  02.08.2006

@<TRIPOS>MOLECULE
ASD09116390
  72   78    0    0    0
SMALL
NO_CHARGES


@<TRIPOS>ATOM
   1 N1            -0.0103     1.2350    -0.1680 N.2     
   2 N2            -0.0183    -0.1049    -0.5881 N.pl3   
   3 C3             1.2410     1.6281    -0.1661 C.2     
   4 N4             2.0178     0.6123    -0.5606 N.2     
   5 C5             1.2725    -0.4409    -0.8190 C.2     
   6 N6             1.7274    -1.6727    -1.2497 N.pl3   
   7 C7            -1.1364    -0.9279    -0.7376 C.ar    
   8 N8             1.6897     2.9001     0.1892 N.pl3   
   9 C9             3.0632     3.1651     0.2549 C.ar    
  10 C10            3.5381     4.4410    -0.0194 C.ar    
  11 C11            3.9498     2.1534     0.5998 C.ar    
  12 C12            5.3041     2.4147     0.6645 C.ar    
  13 C13            5.7795     3.6892     0.3851 C.ar    
  14 C14            4.8924     4.7022     0.0453 C.ar    
  15 N15           -1.0969    -1.9544    -1.5735 N.ar    
  16 N16           -2.0999    -2.7371    -1.7547 N.ar    
  17 C17           -3.2444    -2.5645    -1.1129 C.ar    
  18 C18           -3.3706    -1.5118    -0.1922 C.ar    
  19 C19           -2.2963    -0.6728    -0.0011 C.ar    
  20 C20           -4.4134    -3.4383    -1.3568 C.ar    
  21 C21           -5.6617    -2.8423    -1.5914 C.ar    
  22 O22           -5.7630    -1.4893    -1.5931 O.3     
  23 C23           -5.7505    -0.8132    -0.3434 C.3     
  24 C24           -4.6545    -1.3484     0.5743 C.3     
  25 C25           -4.2949    -4.8224    -1.3560 C.ar    
  26 C26           -5.4096    -5.6057    -1.5852 C.ar    
  27 C27           -6.6404    -5.0168    -1.8148 C.ar    
  28 C28           -6.7687    -3.6399    -1.8185 C.ar    
  29 N29            7.1523     3.9542     0.4511 N.3     
  30 C30            7.4341     5.3568     0.1202 C.3     
  31 C31            8.9478     5.5740     0.0600 C.3     
  32 C32            9.5641     5.2162     1.4153 C.3     
  33 C33            9.2151     3.7654     1.7587 C.3     
  34 C34            7.6937     3.6006     1.7696 C.3     
  35 N35           11.0237     5.3668     1.3459 N.3     
  36 C36           11.3981     6.7667     1.0737 C.3     
  37 C37           11.6604     4.9470     2.6125 C.3     
  38 C38           12.8856     5.8820     2.7682 C.3     
  39 C39           12.3298     7.2213     2.2168 C.3     
  40 H40            2.6764    -1.8182    -1.3876 H       
  41 H41            1.0976    -2.3919    -1.4141 H       
  42 H42            1.0503     3.6012     0.3907 H       
  43 H43            2.8482     5.2288    -0.2836 H       
  44 H44            3.5801     1.1623     0.8177 H       
  45 H45            5.9936     1.6279     0.9327 H       
  46 H46            5.2621     5.6934    -0.1719 H       
  47 H47           -2.3505     0.1576     0.6874 H       
  48 H48           -5.5827     0.2500    -0.5157 H       
  49 H49           -6.7173    -0.9453     0.1423 H       
  50 H50           -4.9602    -2.3141     0.9771 H       
  51 H51           -4.4982    -0.6496     1.3961 H       
  52 H52           -3.3352    -5.2843    -1.1772 H       
  53 H53           -5.3199    -6.6820    -1.5855 H       
  54 H54           -7.5068    -5.6366    -1.9927 H       
  55 H55           -7.7328    -3.1875    -1.9982 H       
  56 H56            6.9940     5.5971    -0.8477 H       
  57 H57            7.0045     6.0038     0.8850 H       
  58 H58            9.3763     4.9374    -0.7141 H       
  59 H59            9.1567     6.6187    -0.1703 H       
  60 H60            9.1647     5.8785     2.1833 H       
  61 H61            9.6478     3.1003     1.0113 H       
  62 H62            9.6150     3.5179     2.7420 H       
  63 H63            7.2629     4.2558     2.5267 H       
  64 H64            7.4421     2.5653     1.9998 H       
  65 H65           11.9221     6.8317     0.1201 H       
  66 H66           10.5054     7.3918     1.0521 H       
  67 H67           10.9716     5.0819     3.4464 H       
  68 H68           11.9820     3.9074     2.5492 H       
  69 H69           13.1716     5.9796     3.8155 H       
  70 H70           13.7242     5.5302     2.1672 H       
  71 H71           13.1371     7.8440     1.8313 H       
  72 H72           11.7668     7.7506     2.9855 H       
@<TRIPOS>BOND
   1    1    2 1
   2    1    3 2
   3    2    7 1
   4    2    5 1
   5    3    4 1
   6    3    8 1
   7    4    5 2
   8    5    6 1
   9    6   40 1
  10    6   41 1
  11    7   15 ar
  12    7   19 ar
  13    8    9 1
  14    8   42 1
  15    9   10 ar
  16    9   11 ar
  17   10   14 ar
  18   10   43 1
  19   11   12 ar
  20   11   44 1
  21   12   13 ar
  22   12   45 1
  23   13   14 ar
  24   13   29 1
  25   14   46 1
  26   15   16 ar
  27   16   17 ar
  28   17   18 ar
  29   17   20 1
  30   18   19 ar
  31   18   24 1
  32   19   47 1
  33   20   21 ar
  34   20   25 ar
  35   21   22 1
  36   21   28 ar
  37   22   23 1
  38   23   24 1
  39   23   48 1
  40   23   49 1
  41   24   50 1
  42   24   51 1
  43   25   26 ar
  44   25   52 1
  45   26   27 ar
  46   26   53 1
  47   27   28 ar
  48   27   54 1
  49   28   55 1
  50   29   30 1
  51   29   34 1
  52   30   31 1
  53   30   56 1
  54   30   57 1
  55   31   32 1
  56   31   58 1
  57   31   59 1
  58   32   33 1
  59   32   35 1
  60   32   60 1
  61   33   34 1
  62   33   61 1
  63   33   62 1
  64   34   63 1
  65   34   64 1
  66   35   36 1
  67   35   37 1
  68   36   39 1
  69   36   65 1
  70   36   66 1
  71   37   38 1
  72   37   67 1
  73   37   68 1
  74   38   39 1
  75   38   69 1
  76   38   70 1
  77   39   71 1
  78   39   72 1

#	End of record

