#	Name: ASD08830082
#	Creating user name:	WinNT
#	Creation time:	15. 06. 2019 21:19

#	Modifying user name:	WinNT
#	Modification time:	15. 06. 2019 21:19

#	Program:	/corina/corina34_cracker 3.40 0067  02.08.2006

@<TRIPOS>MOLECULE
ASD08830082
  52   54    0    0    0
SMALL
NO_CHARGES


@<TRIPOS>ATOM
   1 C1            -0.0179     1.4664     0.0101 C.ar    
   2 C2             0.0021    -0.0041     0.0020 C.2     
   3 C3            -1.2926    -0.7753     0.0102 C.3     
   4 C4            -0.9927    -2.2755    -0.0007 C.3     
   5 N5            -2.2547    -3.0273     0.0073 N.3     
   6 O6             1.0604    -0.5961    -0.0113 O.2     
   7 C7             1.1774     2.1721     0.0025 C.ar    
   8 C8             1.1498     3.5742     0.0103 C.ar    
   9 C9            -0.0981     4.2488     0.0258 C.ar    
  10 C10           -1.2933     3.5050     0.0332 C.ar    
  11 C11           -1.2503     2.1495     0.0197 C.ar    
  12 C12            2.3394     4.3244     0.0035 C.ar    
  13 C13            2.2783     5.6843     0.0118 C.ar    
  14 C14            1.0525     6.3463     0.0274 C.ar    
  15 C15           -0.1196     5.6527     0.0339 C.ar    
  16 C16           -2.0183    -4.4552    -0.2407 C.3     
  17 C17           -3.2054    -2.4700    -0.9633 C.3     
  18 C18           -4.5532    -3.1817    -0.8256 C.3     
  19 C19           -4.3612    -4.6804    -1.0737 C.3     
  20 C20           -3.3307    -5.2261    -0.0814 C.3     
  21 C21           -5.6939    -5.4059    -0.8777 C.3     
  22 N22           -5.5367    -6.8229    -1.2316 N.3     
  23 C23           -6.7192    -7.5990    -0.8348 C.3     
  24 C24           -5.2611    -6.9798    -2.6660 C.3     
  25 H25           -1.8592    -0.5245     0.9070 H       
  26 H26           -1.8762    -0.5150    -0.8728 H       
  27 H27           -0.4261    -2.5263    -0.8975 H       
  28 H28           -0.4091    -2.5358     0.8824 H       
  29 H29            2.1205     1.6460    -0.0090 H       
  30 H30           -2.2456     4.0144     0.0450 H       
  31 H31           -2.1719     1.5866     0.0252 H       
  32 H32            3.2965     3.8242    -0.0079 H       
  33 H33            3.1931     6.2583     0.0065 H       
  34 H34            1.0314     7.4261     0.0344 H       
  35 H35           -1.0618     6.1804     0.0456 H       
  36 H36           -1.6386    -4.5899    -1.2535 H       
  37 H37           -1.2868    -4.8318     0.4743 H       
  38 H38           -3.3361    -1.4047    -0.7732 H       
  39 H39           -2.8201    -2.6140    -1.9728 H       
  40 H40           -4.9456    -3.0265     0.1794 H       
  41 H41           -5.2539    -2.7786    -1.5568 H       
  42 H42           -4.0057    -4.8384    -2.0919 H       
  43 H43           -3.1580    -6.2837    -0.2808 H       
  44 H44           -3.7039    -5.1031     0.9353 H       
  45 H45           -6.0025    -5.3238     0.1645 H       
  46 H46           -6.4515    -4.9535    -1.5176 H       
  47 H47           -7.5991    -7.2069    -1.3449 H       
  48 H48           -6.5763    -8.6444    -1.1084 H       
  49 H49           -6.8596    -7.5216     0.2434 H       
  50 H50           -4.3414    -6.4523    -2.9190 H       
  51 H51           -5.1491    -8.0383    -2.9008 H       
  52 H52           -6.0881    -6.5653    -3.2424 H       
@<TRIPOS>BOND
   1    1    2 1
   2    1    7 ar
   3    1   11 ar
   4    2    3 1
   5    2    6 2
   6    3    4 1
   7    3   25 1
   8    3   26 1
   9    4    5 1
  10    4   27 1
  11    4   28 1
  12    5   16 1
  13    5   17 1
  14    7    8 ar
  15    7   29 1
  16    8    9 ar
  17    8   12 ar
  18    9   10 ar
  19    9   15 ar
  20   10   11 ar
  21   10   30 1
  22   11   31 1
  23   12   13 ar
  24   12   32 1
  25   13   14 ar
  26   13   33 1
  27   14   15 ar
  28   14   34 1
  29   15   35 1
  30   16   20 1
  31   16   36 1
  32   16   37 1
  33   17   18 1
  34   17   38 1
  35   17   39 1
  36   18   19 1
  37   18   40 1
  38   18   41 1
  39   19   20 1
  40   19   21 1
  41   19   42 1
  42   20   43 1
  43   20   44 1
  44   21   22 1
  45   21   45 1
  46   21   46 1
  47   22   23 1
  48   22   24 1
  49   23   47 1
  50   23   48 1
  51   23   49 1
  52   24   50 1
  53   24   51 1
  54   24   52 1

#	End of record

