#	Name: ASD03740120
#	Creating user name:	WinNT
#	Creation time:	15. 06. 2019 20:46

#	Modifying user name:	WinNT
#	Modification time:	15. 06. 2019 20:46

#	Program:	/corina/corina34_cracker 3.40 0067  02.08.2006

@<TRIPOS>MOLECULE
ASD03740120
  26   28    0    0    0
SMALL
NO_CHARGES


@<TRIPOS>ATOM
   1 C1            -0.0167     1.3815     0.0096 C.ar    
   2 C2             0.0021    -0.0041     0.0020 C.ar    
   3 C3             1.2003    -0.6897    -0.0132 C.ar    
   4 C4             2.3987     0.0098    -0.0209 C.ar    
   5 C5             2.3803     1.4148    -0.0132 C.ar    
   6 C6             1.1644     2.0940     0.0022 C.ar    
   7 N7             3.7265    -0.3879    -0.0358 N.pl3   
   8 N8             4.5509     0.7417    -0.0376 N.am    
   9 C9             3.7874     1.8530    -0.0243 C.2     
  10 C10            4.1938    -1.7764    -0.0477 C.3     
  11 C11            4.3404    -2.2448    -1.4725 C.2     
  12 S12            3.0744    -3.0116    -2.4227 S.3     
  13 O13            4.1854     3.0020    -0.0219 O.2     
  14 C14            5.4480    -2.1360    -2.2071 C.2     
  15 C15            5.3468    -2.6383    -3.4935 C.2     
  16 C16            4.1546    -3.1530    -3.8035 C.2     
  17 Cl17           3.7344    -3.8532    -5.3354 Cl      
  18 H18           -0.9607     1.9061     0.0170 H       
  19 H19           -0.9285    -0.5522     0.0084 H       
  20 H20            1.2050    -1.7697    -0.0186 H       
  21 H21            1.1464     3.1738     0.0078 H       
  22 H22            5.5207     0.7279    -0.0470 H       
  23 H23            5.1581    -1.8395     0.4566 H       
  24 H24            3.4711    -2.4074     0.4697 H       
  25 H25            6.3552    -1.6896    -1.8275 H       
  26 H26            6.1690    -2.6137    -4.1934 H       
@<TRIPOS>BOND
   1    1    2 ar
   2    1    6 ar
   3    1   18 1
   4    2    3 ar
   5    2   19 1
   6    3    4 ar
   7    3   20 1
   8    4    5 ar
   9    4    7 1
  10    5    6 ar
  11    5    9 1
  12    6   21 1
  13    7    8 1
  14    7   10 1
  15    8    9 am
  16    8   22 1
  17    9   13 2
  18   10   11 1
  19   10   23 1
  20   10   24 1
  21   11   14 2
  22   11   12 1
  23   12   16 1
  24   14   15 1
  25   14   25 1
  26   15   16 2
  27   15   26 1
  28   16   17 1

#	End of record

