#	Name: ASD01882856
#	Creating user name:	WinNT
#	Creation time:	15. 06. 2019 19:45

#	Modifying user name:	WinNT
#	Modification time:	15. 06. 2019 19:45

#	Program:	/corina/corina34_cracker 3.40 0067  02.08.2006

@<TRIPOS>MOLECULE
ASD01882856
  57   61    0    0    0
SMALL
NO_CHARGES


@<TRIPOS>ATOM
   1 C1             0.3541    -0.0802    -2.5548 C.2     
   2 N2             0.5688    -1.2307    -3.1786 N.2     
   3 C3             1.8056    -1.7055    -3.3595 C.2     
   4 C4             2.9167    -0.9687    -2.8768 C.2     
   5 C5             2.6855     0.2004    -2.2437 C.2     
   6 N6             1.4008     0.6394    -2.0858 N.pl3   
   7 O7            -0.8350     0.5130    -2.3114 O.3     
   8 C8             0.8958     1.8632    -1.4406 C.3     
   9 C9            -0.6311     1.7641    -1.6012 C.3     
  10 O10            1.9772    -2.7680    -3.9370 O.2     
  11 C11           -1.1561     2.9402    -2.4270 C.3     
  12 O12           -2.5773     2.8449    -2.5417 O.3     
  13 C13           -3.2063     3.8201    -3.2505 C.ar    
  14 C14           -4.5848     3.7886    -3.4011 C.ar    
  15 C15           -5.2236     4.7789    -4.1214 C.ar    
  16 C16           -4.4866     5.8053    -4.6939 C.ar    
  17 C17           -3.1080     5.8370    -4.5428 C.ar    
  18 C18           -2.4699     4.8495    -3.8181 C.ar    
  19 O19           -5.1154     6.7799    -5.4034 O.3     
  20 C20           -6.4738     6.7699    -5.4358 C.ar    
  21 C21           -7.1972     7.4389    -4.4588 C.ar    
  22 C22           -8.5781     7.4271    -4.4940 C.ar    
  23 C23           -9.2394     6.7495    -5.5017 C.ar    
  24 C24           -8.5209     6.0821    -6.4765 C.ar    
  25 C25           -7.1399     6.0955    -6.4491 C.ar    
  26 C26          -10.7460     6.7380    -5.5373 C.3     
  27 C27          -11.2300     7.3633    -6.8471 C.3     
  28 C28          -12.7595     7.3516    -6.8832 C.3     
  29 C29          -13.2608     5.9090    -6.7911 C.3     
  30 C30          -12.7768     5.2836    -5.4813 C.3     
  31 C31          -11.2472     5.2954    -5.4451 C.3     
  32 H32            3.9238    -1.3346    -3.0122 H       
  33 H33            3.5102     0.7852    -1.8639 H       
  34 H34            1.1709     1.8808    -0.3861 H       
  35 H35            1.2752     2.7487    -1.9505 H       
  36 H36           -1.1186     1.7334    -0.6268 H       
  37 H37           -0.8933     3.8763    -1.9342 H       
  38 H38           -0.7089     2.9148    -3.4207 H       
  39 H39           -5.1585     2.9895    -2.9554 H       
  40 H40           -6.2969     4.7539    -4.2393 H       
  41 H41           -2.5341     6.6361    -4.9885 H       
  42 H42           -1.3970     4.8763    -3.6970 H       
  43 H43           -6.6812     7.9680    -3.6713 H       
  44 H44           -9.1417     7.9473    -3.7336 H       
  45 H45           -9.0399     5.5536    -7.2624 H       
  46 H46           -6.5791     5.5781    -7.2135 H       
  47 H47          -11.1337     7.3118    -4.6956 H       
  48 H48          -10.8728     8.3911    -6.9128 H       
  49 H49          -10.8422     6.7895    -7.6888 H       
  50 H50          -13.1472     7.9255    -6.0416 H       
  51 H51          -13.1043     7.7971    -7.8164 H       
  52 H52          -14.3504     5.9007    -6.8168 H       
  53 H53          -12.8730     5.3351    -7.6327 H       
  54 H54          -13.1645     5.8575    -4.6396 H       
  55 H55          -13.1339     4.2559    -5.4156 H       
  56 H56          -10.8595     4.7215    -6.2868 H       
  57 H57          -10.9024     4.8498    -4.5120 H       
@<TRIPOS>BOND
   1    1    2 2
   2    1    6 1
   3    1    7 1
   4    2    3 1
   5    3    4 1
   6    3   10 2
   7    4    5 2
   8    4   32 1
   9    5    6 1
  10    5   33 1
  11    6    8 1
  12    7    9 1
  13    8    9 1
  14    8   34 1
  15    8   35 1
  16    9   11 1
  17    9   36 1
  18   11   12 1
  19   11   37 1
  20   11   38 1
  21   12   13 1
  22   13   14 ar
  23   13   18 ar
  24   14   15 ar
  25   14   39 1
  26   15   16 ar
  27   15   40 1
  28   16   17 ar
  29   16   19 1
  30   17   18 ar
  31   17   41 1
  32   18   42 1
  33   19   20 1
  34   20   21 ar
  35   20   25 ar
  36   21   22 ar
  37   21   43 1
  38   22   23 ar
  39   22   44 1
  40   23   24 ar
  41   23   26 1
  42   24   25 ar
  43   24   45 1
  44   25   46 1
  45   26   27 1
  46   26   31 1
  47   26   47 1
  48   27   28 1
  49   27   48 1
  50   27   49 1
  51   28   29 1
  52   28   50 1
  53   28   51 1
  54   29   30 1
  55   29   52 1
  56   29   53 1
  57   30   31 1
  58   30   54 1
  59   30   55 1
  60   31   56 1
  61   31   57 1

#	End of record

