#	Name: ASD01916239
#	Creating user name:	WinNT
#	Creation time:	15. 06. 2019 20:07

#	Modifying user name:	WinNT
#	Modification time:	15. 06. 2019 20:07

#	Program:	/corina/corina34_cracker 3.40 0067  02.08.2006

@<TRIPOS>MOLECULE
ASD01916239
  28   30    0    0    0
SMALL
NO_CHARGES


@<TRIPOS>ATOM
   1 C1             0.0972     1.3425     0.5020 C.2     
   2 N2             0.1203    -0.0008     0.5164 N.am    
   3 C3             1.2074    -0.6749     0.0129 C.2     
   4 C4             2.3247     0.0999    -0.5330 C.2     
   5 C5             2.2388     1.4441    -0.5183 C.2     
   6 N6             1.1212     2.0552     0.0024 N.am    
   7 N7             0.9867    -1.9658     0.1428 N.2     
   8 C8            -0.2100    -2.1548     0.7151 C.2     
   9 C9            -0.7675    -0.9520     0.9567 C.2     
  10 O10           -0.8730     1.9257     0.9459 O.2     
  11 C11            1.0483     3.4537     0.0102 C.ar    
  12 C12            0.4947     4.1273    -1.0705 C.ar    
  13 C13            0.4243     5.5085    -1.0595 C.ar    
  14 C14            0.9061     6.2184     0.0282 C.ar    
  15 C15            1.4573     5.5487     1.1044 C.ar    
  16 C16            1.5244     4.1689     1.1011 C.ar    
  17 F17           -0.1140     6.1657    -2.1100 F       
  18 C18           -0.8298    -3.4907     1.0350 C.3     
  19 Cl19          -0.3480    -3.9939     2.6980 Cl      
  20 H20            3.1958    -0.3945    -0.9370 H       
  21 H21            3.0468     2.0417    -0.9138 H       
  22 H22           -1.7304    -0.7702     1.4107 H       
  23 H23            0.1200     3.5734    -1.9185 H       
  24 H24            0.8511     7.2970     0.0352 H       
  25 H25            1.8321     6.1048     1.9511 H       
  26 H26            1.9513     3.6468     1.9446 H       
  27 H27           -1.9154    -3.4100     0.9800 H       
  28 H28           -0.4837    -4.2333     0.3161 H       
@<TRIPOS>BOND
   1    1    2 am
   2    1    6 am
   3    1   10 2
   4    2    3 1
   5    2    9 1
   6    3    4 1
   7    3    7 2
   8    4    5 2
   9    4   20 1
  10    5    6 1
  11    5   21 1
  12    6   11 1
  13    7    8 1
  14    8    9 2
  15    8   18 1
  16    9   22 1
  17   11   12 ar
  18   11   16 ar
  19   12   13 ar
  20   12   23 1
  21   13   14 ar
  22   13   17 1
  23   14   15 ar
  24   14   24 1
  25   15   16 ar
  26   15   25 1
  27   16   26 1
  28   18   19 1
  29   18   27 1
  30   18   28 1

#	End of record

