#	Name: ASD04882117
#	Creating user name:	WinNT
#	Creation time:	15. 06. 2019 20:54

#	Modifying user name:	WinNT
#	Modification time:	15. 06. 2019 20:54

#	Program:	/corina/corina34_cracker 3.40 0067  02.08.2006

@<TRIPOS>MOLECULE
ASD04882117
  87   92    0    0    0
SMALL
NO_CHARGES


@<TRIPOS>ATOM
   1 C1            -0.9933     1.4787    -1.5893 C.ar    
   2 C2            -0.7848     0.2217    -1.0266 C.ar    
   3 C3            -1.9383    -0.5787    -0.5641 C.2     
   4 O4            -1.7659    -1.7056    -0.1416 O.2     
   5 N5            -3.1810    -0.0593    -0.6109 N.am    
   6 C6            -4.2847    -0.8515    -0.2684 C.ar    
   7 C7            -5.3965    -0.2723     0.3504 C.ar    
   8 C8            -6.4920    -1.0569     0.6908 C.ar    
   9 C9            -6.4863    -2.4077     0.4202 C.ar    
  10 C10           -5.3783    -2.9929    -0.1982 C.ar    
  11 C11           -4.2776    -2.2048    -0.5471 C.ar    
  12 N12           -5.4061     1.0924     0.6266 N.3     
  13 C13           -4.3125     1.4526     1.5399 C.3     
  14 C14           -4.3091     2.9680     1.7547 C.3     
  15 N15           -5.6075     3.3854     2.3020 N.3     
  16 C16           -6.7011     3.0252     1.3888 C.3     
  17 C17           -6.7045     1.5099     1.1739 C.3     
  18 C18           -5.6172     4.7544     2.5790 C.ar    
  19 C19           -4.8212     5.2643     3.5972 C.ar    
  20 C20           -5.6359     7.4664     3.1276 C.ar    
  21 C21           -6.4181     5.6098     1.8335 C.ar    
  22 C22           -4.8328     6.6182     3.8682 C.ar    
  23 C23           -6.4249     6.9631     2.1098 C.ar    
  24 C24           -3.9466     4.3407     4.4054 C.3     
  25 C25           -5.3724    -4.4396    -0.4874 C.2     
  26 N26           -6.4362    -5.1976    -0.1552 N.am    
  27 O27           -4.4078    -4.9480    -1.0255 O.2     
  28 C28           -6.4303    -6.6341    -0.4425 C.3     
  29 C29           -7.7462    -7.2544     0.0314 C.3     
  30 C30           -7.7400    -8.7547    -0.2686 C.3     
  31 N31           -9.0001    -9.3486     0.1851 N.am    
  32 C32          -10.1033    -9.4594    -0.5749 C.2     
  33 C33          -11.2165   -10.1107     0.2159 C.3     
  34 C34          -10.7535    -9.9969     1.6868 C.3     
  35 C35           -9.2181    -9.9046     1.5257 C.3     
  36 O36          -10.1933    -9.0906    -1.7267 O.2     
  37 C37            0.5156    -0.2874    -0.8976 C.ar    
  38 C38            1.5827     0.4587    -1.3355 C.ar    
  39 C39            1.3652     1.7138    -1.8934 C.ar    
  40 C40            0.0874     2.2208    -2.0197 C.ar    
  41 C41            0.6782    -1.6457    -0.2675 C.3     
  42 C42            2.0528    -2.2273    -0.5909 C.3     
  43 C43            3.1157    -1.1782    -0.2439 C.3     
  44 C44            3.0048    -0.0305    -1.2453 C.3     
  45 H45           -1.9953     1.8683    -1.6922 H       
  46 H46           -3.3113     0.8630    -0.8817 H       
  47 H47           -7.3495    -0.6068     1.1688 H       
  48 H48           -7.3389    -3.0148     0.6865 H       
  49 H49           -3.4217    -2.6536    -1.0292 H       
  50 H50           -4.4569     0.9501     2.4962 H       
  51 H51           -3.3608     1.1446     1.1069 H       
  52 H52           -3.5170     3.2343     2.4545 H       
  53 H53           -4.1375     3.4699     0.8025 H       
  54 H54           -7.6528     3.3332     1.8217 H       
  55 H55           -6.5567     3.5278     0.4324 H       
  56 H56           -7.4966     1.2436     0.4741 H       
  57 H57           -6.8761     1.0079     2.1261 H       
  58 H58           -5.6433     8.5249     3.3418 H       
  59 H59           -7.0347     5.2173     1.0384 H       
  60 H60           -4.2143     7.0153     4.6595 H       
  61 H61           -7.0509     7.6282     1.5334 H       
  62 H62           -2.9815     4.2293     3.9111 H       
  63 H63           -3.7988     4.7590     5.4010 H       
  64 H64           -4.4269     3.3658     4.4885 H       
  65 H65           -7.2056    -4.7920     0.2740 H       
  66 H66           -6.3210    -6.7896    -1.5158 H       
  67 H67           -5.5976    -7.1056     0.0796 H       
  68 H68           -7.8554    -7.0989     1.1047 H       
  69 H69           -8.5788    -6.7829    -0.4907 H       
  70 H70           -7.6308    -8.9101    -1.3419 H       
  71 H71           -6.9074    -9.2262     0.2534 H       
  72 H72          -12.1537    -9.5740     0.0683 H       
  73 H73          -11.3258   -11.1569    -0.0698 H       
  74 H74          -11.1555    -9.0978     2.1538 H       
  75 H75          -11.0309   -10.8861     2.2530 H       
  76 H76           -8.7680   -10.8944     1.6013 H       
  77 H77           -8.7998    -9.2405     2.2821 H       
  78 H78            2.2069     2.2996    -2.2322 H       
  79 H79           -0.0662     3.1970    -2.4553 H       
  80 H80            0.5715    -1.5554     0.8135 H       
  81 H81           -0.0937    -2.3138    -0.6495 H       
  82 H82            2.2189    -3.1277     0.0006 H       
  83 H83            2.1086    -2.4693    -1.6523 H       
  84 H84            2.9453    -0.8028     0.7651 H       
  85 H85            4.1076    -1.6258    -0.3069 H       
  86 H86            3.3285    -0.3772    -2.2267 H       
  87 H87            3.6473     0.7896    -0.9247 H       
@<TRIPOS>BOND
   1    1    2 ar
   2    1   40 ar
   3    1   45 1
   4    2    3 1
   5    2   37 ar
   6    3    4 2
   7    3    5 am
   8    5    6 1
   9    5   46 1
  10    6    7 ar
  11    6   11 ar
  12    7    8 ar
  13    7   12 1
  14    8    9 ar
  15    8   47 1
  16    9   10 ar
  17    9   48 1
  18   10   11 ar
  19   10   25 1
  20   11   49 1
  21   12   13 1
  22   12   17 1
  23   13   14 1
  24   13   50 1
  25   13   51 1
  26   14   15 1
  27   14   52 1
  28   14   53 1
  29   15   16 1
  30   15   18 1
  31   16   17 1
  32   16   54 1
  33   16   55 1
  34   17   56 1
  35   17   57 1
  36   18   19 ar
  37   18   21 ar
  38   19   22 ar
  39   19   24 1
  40   20   22 ar
  41   20   23 ar
  42   20   58 1
  43   21   23 ar
  44   21   59 1
  45   22   60 1
  46   23   61 1
  47   24   62 1
  48   24   63 1
  49   24   64 1
  50   25   26 am
  51   25   27 2
  52   26   28 1
  53   26   65 1
  54   28   29 1
  55   28   66 1
  56   28   67 1
  57   29   30 1
  58   29   68 1
  59   29   69 1
  60   30   31 1
  61   30   70 1
  62   30   71 1
  63   31   32 am
  64   31   35 1
  65   32   33 1
  66   32   36 2
  67   33   34 1
  68   33   72 1
  69   33   73 1
  70   34   35 1
  71   34   74 1
  72   34   75 1
  73   35   76 1
  74   35   77 1
  75   37   38 ar
  76   37   41 1
  77   38   39 ar
  78   38   44 1
  79   39   40 ar
  80   39   78 1
  81   40   79 1
  82   41   42 1
  83   41   80 1
  84   41   81 1
  85   42   43 1
  86   42   82 1
  87   42   83 1
  88   43   44 1
  89   43   84 1
  90   43   85 1
  91   44   86 1
  92   44   87 1

#	End of record

