#	Name: ASD05060001
#	Creating user name:	WinNT
#	Creation time:	15. 06. 2019 20:56

#	Modifying user name:	WinNT
#	Modification time:	15. 06. 2019 20:56

#	Program:	/corina/corina34_cracker 3.40 0067  02.08.2006

@<TRIPOS>MOLECULE
ASD05060001
 132  131    0    0    0
SMALL
NO_CHARGES


@<TRIPOS>ATOM
   1 C1            -0.7003     0.8835     5.0865 C.2     
   2 O2            -0.6370    -0.3106     4.8841 O.2     
   3 N3             1.3134     0.6327     6.4233 N.3     
   4 C4             0.4617     1.6026     5.7220 C.3     
   5 C5             1.2787     2.3089     4.6382 C.3     
   6 O6             2.3110     3.0850     5.2498 O.3     
   7 C7            -3.7354     1.8452     3.2904 C.2     
   8 O8            -3.3978     3.0085     3.2295 O.2     
   9 N9            -1.8075     1.5683     4.7380 N.am    
  10 C10           -2.9347     0.8703     4.1147 C.3     
  11 C11           -3.8268     0.2691     5.2026 C.3     
  12 C12           -3.0508    -0.8105     5.9596 C.3     
  13 C13           -3.8975    -1.3243     7.1258 C.3     
  14 C14           -2.7319    -1.9686     5.0119 C.3     
  15 C15           -7.0223     1.8758     1.6908 C.2     
  16 O16           -7.3498     0.8332     2.2168 O.2     
  17 N17           -4.8267     1.4243     2.6208 N.am    
  18 C18           -5.6052     2.3720     1.8194 C.3     
  19 C19           -4.9805     2.4973     0.4284 C.3     
  20 C20           -3.5872     3.1180     0.5490 C.3     
  21 C21           -2.9625     3.2432    -0.8420 C.3     
  22 C22           -1.5693     3.8639    -0.7213 C.3     
  23 N23           -0.9695     3.9842    -2.0569 N.3     
  24 C24           -9.9235     2.6775    -0.3837 C.2     
  25 O25           -9.2782     3.4137    -1.0996 O.2     
  26 N26           -7.9257     2.5906     0.9913 N.am    
  27 C27           -9.3034     2.1082     0.8663 C.3     
  28 C28          -10.1126     2.5543     2.0858 C.3     
  29 C29          -10.1126     4.0821     2.1668 C.3     
  30 C30          -11.0228     4.5322     3.3113 C.3     
  31 C31           -9.4830     1.9763     3.3548 C.3     
  32 C32          -12.4964     4.2895    -1.4171 C.2     
  33 O33          -12.4386     4.6333    -0.2555 O.2     
  34 N34          -11.1951     2.3685    -0.7060 N.am    
  35 C35          -11.8352     3.0090    -1.8577 C.3     
  36 C36          -12.8882     2.0671    -2.4449 C.3     
  37 C37          -12.2115     0.8393    -2.9978 C.2     
  38 O38          -11.0209     0.6904    -2.8565 O.2     
  39 O39          -12.9316    -0.0889    -3.6472 O.3     
  40 C40          -15.2375     5.8305    -1.3476 C.2     
  41 O41          -15.5586     4.6609    -1.3483 O.2     
  42 N42          -13.1518     5.0527    -2.3140 N.am    
  43 C43          -13.8843     6.2407    -1.8686 C.3     
  44 C44          -14.0609     7.2020    -3.0457 C.3     
  45 C45          -12.7113     7.7003    -3.4942 C.2     
  46 O46          -11.7165     7.4050    -2.8664 O.2     
  47 N47          -12.6096     8.4740    -4.5931 N.am    
  48 C48          -18.3439     7.5894    -0.5183 C.2     
  49 O49          -17.8635     8.6977    -0.6267 O.2     
  50 N50          -16.0911     6.7633    -0.8809 N.am    
  51 C51          -17.4461     6.3797    -0.4770 C.3     
  52 C52          -17.4141     5.8166     0.9453 C.3     
  53 C53          -18.8222     5.3772     1.3516 C.3     
  54 C54          -19.2529     4.1869     0.4922 C.3     
  55 C55          -18.8234     4.9687     2.8260 C.3     
  56 C56          -20.6628     9.1240     1.0100 C.2     
  57 O57          -20.0778     8.5572     1.9025 O.2     
  58 N58          -19.6807     7.4395    -0.4347 N.am    
  59 C59          -20.5495     8.6187    -0.4052 C.3     
  60 C60          -21.9384     8.2421    -0.9250 C.3     
  61 C61          -21.8427     7.8536    -2.3779 C.2     
  62 O62          -20.7734     7.8758    -2.9400 O.2     
  63 O63          -22.9454     7.4830    -3.0475 O.3     
  64 O64          -21.4135    10.2036     1.2792 O.3     
  65 H65            1.6724    -0.0613     5.7850 H       
  66 H66            2.0641     1.0975     6.9118 H       
  67 H67            0.0880     2.3392     6.4332 H       
  68 H68            1.7258     1.5657     3.9780 H       
  69 H69            0.6264     2.9632     4.0599 H       
  70 H70            2.8699     3.5616     4.6208 H       
  71 H71           -1.8581     2.5234     4.8999 H       
  72 H72           -2.5586     0.0742     3.4722 H       
  73 H73           -4.1309     1.0523     5.8971 H       
  74 H74           -4.7111    -0.1732     4.7440 H       
  75 H75           -2.1218    -0.3887     6.3433 H       
  76 H76           -4.8265    -1.7461     6.7422 H       
  77 H77           -3.3446    -2.0934     7.6651 H       
  78 H78           -4.1247    -0.4993     7.8010 H       
  79 H79           -2.1286    -1.6026     4.1811 H       
  80 H80           -2.1790    -2.7377     5.5512 H       
  81 H81           -3.6608    -2.3904     4.6282 H       
  82 H82           -5.0968     0.4939     2.6695 H       
  83 H83           -5.6044     3.3468     2.3072 H       
  84 H84           -4.9000     1.5089    -0.0241 H       
  85 H85           -5.6085     3.1327    -0.1960 H       
  86 H86           -3.6677     4.1063     1.0015 H       
  87 H87           -2.9592     2.4825     1.1735 H       
  88 H88           -2.8820     2.2548    -1.2945 H       
  89 H89           -3.5905     3.8786    -1.4664 H       
  90 H90           -1.6498     4.8523    -0.2688 H       
  91 H91           -0.9413     3.2285    -0.0969 H       
  92 H92           -0.0480     4.3918    -2.0041 H       
  93 H93           -0.9430     3.0898    -2.5233 H       
  94 H94           -7.6638     3.4245     0.5707 H       
  95 H95           -9.3034     1.0197     0.8086 H       
  96 H96          -11.1376     2.1954     1.9928 H       
  97 H97           -9.0979     4.4363     2.3487 H       
  98 H98          -10.4788     4.4958     1.2272 H       
  99 H99          -12.0374     4.1780     3.1293 H       
 100 H100         -10.6566     4.1186     4.2509 H       
 101 H101         -11.0228     5.6207     3.3690 H       
 102 H102          -8.4580     2.3352     3.4479 H       
 103 H103         -10.0595     2.2941     4.2236 H       
 104 H104          -9.4830     0.8878     3.2972 H       
 105 H105         -11.6866     1.7221    -0.1754 H       
 106 H106         -11.0829     3.2303    -2.6148 H       
 107 H107         -13.5900     1.7746    -1.6640 H       
 108 H108         -13.4260     2.5767    -3.2445 H       
 109 H109         -12.4535    -0.8591    -3.9839 H       
 110 H110         -13.1386     4.8153    -3.2544 H       
 111 H111         -13.3246     6.7364    -1.0754 H       
 112 H112         -14.5484     6.6814    -3.8700 H       
 113 H113         -14.6755     8.0471    -2.7355 H       
 114 H114         -13.4053     8.7102    -5.0952 H       
 115 H115         -11.7409     8.7947    -4.8818 H       
 116 H116         -15.8082     7.6886    -0.8124 H       
 117 H117         -17.8276     5.6206    -1.1598 H       
 118 H118         -16.7414     4.9598     0.9818 H       
 119 H119         -17.0609     6.5854     1.6326 H       
 120 H120         -19.5177     6.2033     1.2028 H       
 121 H121         -18.6014     3.3371     0.6959 H       
 122 H122         -20.2827     3.9205     0.7303 H       
 123 H123         -19.1814     4.4550    -0.5619 H       
 124 H124         -18.5166     5.8167     3.4383 H       
 125 H125         -19.8266     4.6557     3.1155 H       
 126 H126         -18.1280     4.1427     2.9748 H       
 127 H127         -20.0675     6.5509    -0.3941 H       
 128 H128         -20.1246     9.3990    -1.0366 H       
 129 H129         -22.3263     7.4019    -0.3490 H       
 130 H130         -22.6091     9.0949    -0.8203 H       
 131 H131         -22.8342     7.2427    -3.9776 H       
 132 H132         -21.4556    10.4901     2.2018 H       
@<TRIPOS>BOND
   1    1    2 2
   2    1    4 1
   3    1    9 am
   4    3    4 1
   5    3   65 1
   6    3   66 1
   7    4    5 1
   8    4   67 1
   9    5    6 1
  10    5   68 1
  11    5   69 1
  12    6   70 1
  13    7    8 2
  14    7   10 1
  15    7   17 am
  16    9   10 1
  17    9   71 1
  18   10   11 1
  19   10   72 1
  20   11   12 1
  21   11   73 1
  22   11   74 1
  23   12   13 1
  24   12   14 1
  25   12   75 1
  26   13   76 1
  27   13   77 1
  28   13   78 1
  29   14   79 1
  30   14   80 1
  31   14   81 1
  32   15   16 2
  33   15   18 1
  34   15   26 am
  35   17   18 1
  36   17   82 1
  37   18   19 1
  38   18   83 1
  39   19   20 1
  40   19   84 1
  41   19   85 1
  42   20   21 1
  43   20   86 1
  44   20   87 1
  45   21   22 1
  46   21   88 1
  47   21   89 1
  48   22   23 1
  49   22   90 1
  50   22   91 1
  51   23   92 1
  52   23   93 1
  53   24   25 2
  54   24   27 1
  55   24   34 am
  56   26   27 1
  57   26   94 1
  58   27   28 1
  59   27   95 1
  60   28   29 1
  61   28   31 1
  62   28   96 1
  63   29   30 1
  64   29   97 1
  65   29   98 1
  66   30   99 1
  67   30  100 1
  68   30  101 1
  69   31  102 1
  70   31  103 1
  71   31  104 1
  72   32   33 2
  73   32   35 1
  74   32   42 am
  75   34   35 1
  76   34  105 1
  77   35   36 1
  78   35  106 1
  79   36   37 1
  80   36  107 1
  81   36  108 1
  82   37   38 2
  83   37   39 1
  84   39  109 1
  85   40   41 2
  86   40   43 1
  87   40   50 am
  88   42   43 1
  89   42  110 1
  90   43   44 1
  91   43  111 1
  92   44   45 1
  93   44  112 1
  94   44  113 1
  95   45   46 2
  96   45   47 am
  97   47  114 1
  98   47  115 1
  99   48   49 2
 100   48   51 1
 101   48   58 am
 102   50   51 1
 103   50  116 1
 104   51   52 1
 105   51  117 1
 106   52   53 1
 107   52  118 1
 108   52  119 1
 109   53   54 1
 110   53   55 1
 111   53  120 1
 112   54  121 1
 113   54  122 1
 114   54  123 1
 115   55  124 1
 116   55  125 1
 117   55  126 1
 118   56   57 2
 119   56   59 1
 120   56   64 1
 121   58   59 1
 122   58  127 1
 123   59   60 1
 124   59  128 1
 125   60   61 1
 126   60  129 1
 127   60  130 1
 128   61   62 2
 129   61   63 1
 130   63  131 1
 131   64  132 1

#	End of record

