#	Name: ASD01028327
#	Creating user name:	WinNT
#	Creation time:	15. 06. 2019 18:56

#	Modifying user name:	WinNT
#	Modification time:	15. 06. 2019 18:56

#	Program:	/corina/corina34_cracker 3.40 0067  02.08.2006

@<TRIPOS>MOLECULE
ASD01028327
  50   54    0    0    0
SMALL
NO_CHARGES


@<TRIPOS>ATOM
   1 C1            -0.0171     1.4118     0.0098 C.ar    
   2 C2             0.0021    -0.0041     0.0020 C.ar    
   3 C3             1.2105     2.1116     0.0018 C.ar    
   4 C4             2.3793     1.3714    -0.0133 C.ar    
   5 C5             2.3160    -0.0162    -0.0202 C.ar    
   6 N6             1.1704    -0.6565    -0.0123 N.ar    
   7 O7             1.2420     3.4670     0.0084 O.3     
   8 C8             2.5299     4.0861    -0.0005 C.3     
   9 C9             2.3673     5.5842     0.0086 C.2     
  10 N10            2.2910     6.3756     1.1077 N.pl3   
  11 C11            2.1482     7.6606     0.6386 C.2     
  12 N12            2.1449     7.5878    -0.6821 N.2     
  13 N13            2.2795     6.3597    -1.0433 N.2     
  14 N14            2.3286     6.1317     2.4818 N.2     
  15 C15            2.2281     7.1247     3.3380 C.2     
  16 C16            2.0806     8.4541     2.8880 C.2     
  17 C17            2.0415     8.7228     1.5562 C.2     
  18 C18            2.2698     6.8442     4.7937 C.ar    
  19 C19            2.4149     5.5334     5.2466 C.ar    
  20 C20            2.4537     5.2717     6.5995 C.ar    
  21 C21            2.3481     6.3217     7.5168 C.ar    
  22 C22            2.2033     7.6340     7.0604 C.ar    
  23 C23            2.1697     7.8927     5.7085 C.ar    
  24 C24           -1.2152    -0.7043     0.0100 C.ar    
  25 C25           -2.4012    -0.0065     0.0251 C.ar    
  26 C26           -2.4085     1.3917     0.0322 C.ar    
  27 C27           -1.2431     2.0938     0.0309 C.ar    
  28 O28           -3.5786    -0.6840     0.0328 O.3     
  29 C29           -4.7758     0.0961     0.0485 C.3     
  30 Cl30           2.6332     3.6398     7.1639 Cl      
  31 C31            2.3890     6.0436     8.9668 C.2     
  32 N32            2.2870     7.0563     9.8503 N.am    
  33 O33            2.5146     4.9013     9.3634 O.2     
  34 H34            3.3370     1.8705    -0.0202 H       
  35 H35            3.2348    -0.5838    -0.0321 H       
  36 H36            3.0883     3.7758     0.8827 H       
  37 H37            3.0716     3.7849    -0.8972 H       
  38 H38            1.9990     9.2594     3.6030 H       
  39 H39            1.9291     9.7384     1.2064 H       
  40 H40            2.4964     4.7230     4.5373 H       
  41 H41            2.1212     8.4459     7.7678 H       
  42 H42            2.0577     8.9074     5.3560 H       
  43 H43           -1.2205    -1.7843     0.0039 H       
  44 H44           -3.3501     1.9205     0.0433 H       
  45 H45           -1.2617     3.1736     0.0364 H       
  46 H46           -4.7911     0.7202     0.9420 H       
  47 H47           -4.8082     0.7297    -0.8378 H       
  48 H48           -5.6412    -0.5666     0.0533 H       
  49 H49            2.1868     7.9677     9.5340 H       
  50 H50            2.3139     6.8737    10.8026 H       
@<TRIPOS>BOND
   1    1    2 ar
   2    1    3 ar
   3    1   27 ar
   4    2   24 ar
   5    2    6 ar
   6    3    4 ar
   7    3    7 1
   8    4    5 ar
   9    4   34 1
  10    5    6 ar
  11    5   35 1
  12    7    8 1
  13    8    9 1
  14    8   36 1
  15    8   37 1
  16    9   10 1
  17    9   13 2
  18   10   11 1
  19   10   14 1
  20   11   12 2
  21   11   17 1
  22   12   13 1
  23   14   15 2
  24   15   16 1
  25   15   18 1
  26   16   17 2
  27   16   38 1
  28   17   39 1
  29   18   19 ar
  30   18   23 ar
  31   19   20 ar
  32   19   40 1
  33   20   21 ar
  34   20   30 1
  35   21   22 ar
  36   21   31 1
  37   22   23 ar
  38   22   41 1
  39   23   42 1
  40   24   25 ar
  41   24   43 1
  42   25   26 ar
  43   25   28 1
  44   26   27 ar
  45   26   44 1
  46   27   45 1
  47   28   29 1
  48   29   46 1
  49   29   47 1
  50   29   48 1
  51   31   32 am
  52   31   33 2
  53   32   49 1
  54   32   50 1

#	End of record

