#	Name: ASD01811679
#	Creating user name:	WinNT
#	Creation time:	15. 06. 2019 19:27

#	Modifying user name:	WinNT
#	Modification time:	15. 06. 2019 19:27

#	Program:	/corina/corina34_cracker 3.40 0067  02.08.2006

@<TRIPOS>MOLECULE
ASD01811679
  51   55    0    0    0
SMALL
NO_CHARGES


@<TRIPOS>ATOM
   1 C1            -0.0167     1.3805     0.0096 C.ar    
   2 C2             0.0021    -0.0041     0.0020 C.ar    
   3 C3             1.2075    -0.6836    -0.0131 C.ar    
   4 C4             2.3988     0.0115    -0.0208 C.ar    
   5 C5             2.3882     1.4079    -0.0132 C.ar    
   6 C6             1.1657     2.0837     0.0021 C.ar    
   7 C7            -1.2939    -0.7731     0.0108 C.3     
   8 C8             1.2187    -2.1906    -0.0208 C.3     
   9 C9             1.0848    -2.6867    -1.4375 C.ar    
  10 C10            2.2162    -2.9044    -2.2022 C.ar    
  11 C11            2.0967    -3.3595    -3.5008 C.ar    
  12 C12            0.8390    -3.5984    -4.0382 C.ar    
  13 C13           -0.2951    -3.3788    -3.2680 C.ar    
  14 C14           -0.1689    -2.9287    -1.9683 C.ar    
  15 N15            0.7145    -4.0599    -5.3560 N.pl3   
  16 N16            1.7684    -4.3224    -6.2407 N.2     
  17 C17            1.2588    -4.7364    -7.3728 C.2     
  18 C18           -0.1346    -4.7512    -7.2466 C.2     
  19 C19           -0.4441    -4.3360    -5.9964 C.2     
  20 C20            3.4707     2.4099    -0.0173 C.2     
  21 N21            2.9566     3.6518    -0.0053 N.am    
  22 C22            1.4924     3.5561     0.0077 C.3     
  23 O23            4.6580     2.1496    -0.0295 O.2     
  24 C24            3.6931     4.8356    -0.0052 C.ar    
  25 C25            4.0537     5.4415    -1.2174 C.ar    
  26 C26            4.7920     6.6279    -1.2038 C.ar    
  27 C27            5.1611     7.1951    -0.0033 C.ar    
  28 C28            4.8040     6.5952     1.1934 C.ar    
  29 C29            4.0689     5.4247     1.1968 C.ar    
  30 F30            3.7251     4.8467     2.3685 F       
  31 C31            3.6680     4.8477    -2.4621 C.1     
  32 N32            3.3621     4.3765    -3.4495 N.1     
  33 H33           -0.9590     1.9081     0.0170 H       
  34 H34            3.3374    -0.5227    -0.0323 H       
  35 H35           -1.6166    -0.9530    -1.0147 H       
  36 H36           -1.1472    -1.7266     0.5181 H       
  37 H37           -2.0554    -0.1959     0.5353 H       
  38 H38            2.1569    -2.5491     0.4026 H       
  39 H39            0.3854    -2.5631     0.5749 H       
  40 H40            3.1942    -2.7181    -1.7837 H       
  41 H41            2.9807    -3.5290    -4.0976 H       
  42 H42           -1.2747    -3.5635    -3.6834 H       
  43 H43           -1.0508    -2.7577    -1.3686 H       
  44 H44            1.8177    -5.0179    -8.2531 H       
  45 H45           -0.8386    -5.0458    -8.0107 H       
  46 H46           -1.4381    -4.2373    -5.5857 H       
  47 H47            1.0778     4.0352    -0.8792 H       
  48 H48            1.0944     4.0247     0.9078 H       
  49 H49            5.0736     7.0998    -2.1336 H       
  50 H50            5.7320     8.1118     0.0047 H       
  51 H51            5.0981     7.0471     2.1292 H       
@<TRIPOS>BOND
   1    1    2 ar
   2    1    6 ar
   3    1   33 1
   4    2    3 ar
   5    2    7 1
   6    3    4 ar
   7    3    8 1
   8    4    5 ar
   9    4   34 1
  10    5    6 ar
  11    5   20 1
  12    6   22 1
  13    7   35 1
  14    7   36 1
  15    7   37 1
  16    8    9 1
  17    8   38 1
  18    8   39 1
  19    9   10 ar
  20    9   14 ar
  21   10   11 ar
  22   10   40 1
  23   11   12 ar
  24   11   41 1
  25   12   13 ar
  26   12   15 1
  27   13   14 ar
  28   13   42 1
  29   14   43 1
  30   15   16 1
  31   15   19 1
  32   16   17 2
  33   17   18 1
  34   17   44 1
  35   18   19 2
  36   18   45 1
  37   19   46 1
  38   20   21 am
  39   20   23 2
  40   21   22 1
  41   21   24 1
  42   22   47 1
  43   22   48 1
  44   24   25 ar
  45   24   29 ar
  46   25   31 1
  47   25   26 ar
  48   26   27 ar
  49   26   49 1
  50   27   28 ar
  51   27   50 1
  52   28   29 ar
  53   28   51 1
  54   29   30 1
  55   31   32 3

#	End of record

