#	Name: ASD04370073
#	Creating user name:	WinNT
#	Creation time:	15. 06. 2019 20:49

#	Modifying user name:	WinNT
#	Modification time:	15. 06. 2019 20:49

#	Program:	/corina/corina34_cracker 3.40 0067  02.08.2006

@<TRIPOS>MOLECULE
ASD04370073
  69   69    0    0    0
SMALL
NO_CHARGES


@<TRIPOS>ATOM
   1 C1             3.8868    -0.9724    -0.3481 C.2     
   2 C2             2.7732    -0.0276    -0.7197 C.3     
   3 C3             1.5564    -0.2995     0.1671 C.3     
   4 C4             0.3847     0.5696    -0.2942 C.3     
   5 O5             3.7470    -1.7369     0.5770 O.2     
   6 O6             5.0321    -0.9684    -1.0482 O.3     
   7 N7             1.8846     0.0217     1.5583 N.am    
   8 C8             2.1868     1.2888     1.9041 C.2     
   9 C9             2.4144     1.6409     3.3516 C.3     
  10 C10            2.7392     3.1314     3.4689 C.3     
  11 C11            2.9702     3.4889     4.9385 C.3     
  12 C12            3.2951     4.9794     5.0558 C.3     
  13 C13            3.5260     5.3370     6.5254 C.3     
  14 C14            3.8509     6.8275     6.6427 C.3     
  15 C15            4.0819     7.1850     8.1123 C.3     
  16 C16            4.4067     8.6755     8.2296 C.3     
  17 C17            4.6377     9.0330     9.6992 C.3     
  18 C18            4.9626    10.5235     9.8165 C.3     
  19 C19            5.1935    10.8810    11.2861 C.3     
  20 O20            2.2758     2.1456     1.0504 O.2     
  21 C21            5.5135    12.3491    11.4017 C.ar    
  22 C22            4.4949    13.2667    11.5784 C.ar    
  23 C23            4.7884    14.6134    11.6844 C.ar    
  24 C24            6.1006    15.0424    11.6140 C.ar    
  25 C25            7.1193    14.1247    11.4382 C.ar    
  26 C26            6.8262    12.7776    11.3366 C.ar    
  27 N27           -0.7438     0.4013     0.6311 N.3     
  28 C28           -1.7314     1.4748     0.4576 C.3     
  29 C29           -1.3669    -0.9189     0.4669 C.3     
  30 H30            3.1055     1.0005    -0.5754 H       
  31 H31            2.5022    -0.1785    -1.7647 H       
  32 H32            1.2802    -1.3512     0.0925 H       
  33 H33            0.6911     1.6155    -0.3071 H       
  34 H34            0.0809     0.2676    -1.2965 H       
  35 H35            5.7174    -1.5923    -0.7724 H       
  36 H36            1.8843    -0.6776     2.2305 H       
  37 H37            1.5145     1.4189     3.9253 H       
  38 H38            3.2473     1.0557     3.7413 H       
  39 H39            3.6390     3.3534     2.8952 H       
  40 H40            1.9063     3.7166     3.0792 H       
  41 H41            2.0704     3.2669     5.5122 H       
  42 H42            3.8031     2.9038     5.3282 H       
  43 H43            4.1949     5.2014     4.4821 H       
  44 H44            2.4621     5.5646     4.6661 H       
  45 H45            2.6262     5.1150     7.0991 H       
  46 H46            4.3590     4.7518     6.9151 H       
  47 H47            4.7507     7.0494     6.0690 H       
  48 H48            3.0179     7.4126     6.2530 H       
  49 H49            3.1820     6.9630     8.6860 H       
  50 H50            4.9148     6.5998     8.5020 H       
  51 H51            5.3066     8.8975     7.6559 H       
  52 H52            3.5738     9.2606     7.8399 H       
  53 H53            3.7379     8.8110    10.2729 H       
  54 H54            5.4707     8.4478    10.0889 H       
  55 H55            5.8624    10.7455     9.2428 H       
  56 H56            4.1296    11.1087     9.4268 H       
  57 H57            4.2937    10.6590    11.8598 H       
  58 H58            6.0265    10.2958    11.6759 H       
  59 H59            3.4697    12.9315    11.6334 H       
  60 H60            3.9924    15.3303    11.8217 H       
  61 H61            6.3298    16.0946    11.6961 H       
  62 H62            8.1445    14.4599    11.3829 H       
  63 H63            7.6224    12.0603    11.2029 H       
  64 H64           -2.1722     1.4057    -0.5369 H       
  65 H65           -2.5139     1.3736     1.2096 H       
  66 H66           -1.2410     2.4416     0.5713 H       
  67 H67           -0.6300    -1.6961     0.6694 H       
  68 H68           -2.1993    -1.0169     1.1638 H       
  69 H69           -1.7336    -1.0231    -0.5542 H       
@<TRIPOS>BOND
   1    1    2 1
   2    1    5 2
   3    1    6 1
   4    2    3 1
   5    2   30 1
   6    2   31 1
   7    3    4 1
   8    3    7 1
   9    3   32 1
  10    4   27 1
  11    4   33 1
  12    4   34 1
  13    6   35 1
  14    7    8 am
  15    7   36 1
  16    8    9 1
  17    8   20 2
  18    9   10 1
  19    9   37 1
  20    9   38 1
  21   10   11 1
  22   10   39 1
  23   10   40 1
  24   11   12 1
  25   11   41 1
  26   11   42 1
  27   12   13 1
  28   12   43 1
  29   12   44 1
  30   13   14 1
  31   13   45 1
  32   13   46 1
  33   14   15 1
  34   14   47 1
  35   14   48 1
  36   15   16 1
  37   15   49 1
  38   15   50 1
  39   16   17 1
  40   16   51 1
  41   16   52 1
  42   17   18 1
  43   17   53 1
  44   17   54 1
  45   18   19 1
  46   18   55 1
  47   18   56 1
  48   19   21 1
  49   19   57 1
  50   19   58 1
  51   21   22 ar
  52   21   26 ar
  53   22   23 ar
  54   22   59 1
  55   23   24 ar
  56   23   60 1
  57   24   25 ar
  58   24   61 1
  59   25   26 ar
  60   25   62 1
  61   26   63 1
  62   27   28 1
  63   27   29 1
  64   28   64 1
  65   28   65 1
  66   28   66 1
  67   29   67 1
  68   29   68 1
  69   29   69 1

#	End of record

