#	Name: ASD01530011
#	Creating user name:	WinNT
#	Creation time:	15. 06. 2019 19:22

#	Modifying user name:	WinNT
#	Modification time:	15. 06. 2019 19:22

#	Program:	/corina/corina34_cracker 3.40 0067  02.08.2006

@<TRIPOS>MOLECULE
ASD01530011
  28   29    0    0    0
SMALL
NO_CHARGES


@<TRIPOS>ATOM
   1 C1            -0.0168     1.3852     0.0097 C.ar    
   2 C2             0.0022    -0.0041     0.0175 C.ar    
   3 C3             1.2067    -0.6938     0.0027 C.ar    
   4 C4             2.4044    -0.0471    -0.0198 C.ar    
   5 C5             2.4608     1.3566    -0.0289 C.ar    
   6 C6             3.6897     2.0386    -0.0520 C.ar    
   7 C7             3.7039     3.4000    -0.0607 C.ar    
   8 C8             2.5176     4.1300    -0.0470 C.ar    
   9 C9             1.3085     3.5011    -0.0245 C.ar    
  10 C10            1.2564     2.1021    -0.0150 C.ar    
  11 C11           -1.2935     2.1200     0.0197 C.2     
  12 O12           -1.2967     3.3313     0.1181 O.2     
  13 O13           -2.4581     1.4489    -0.0801 O.3     
  14 C14           -3.6770     2.2378    -0.0634 C.3     
  15 C15           -4.8688     1.3234    -0.1841 C.2     
  16 C16           -5.9079     1.4954     0.5949 C.2     
  17 H17           -0.9283    -0.5520     0.0357 H       
  18 H18            1.1933    -1.7737     0.0096 H       
  19 H19            3.3205    -0.6190    -0.0304 H       
  20 H20            4.6174     1.4858    -0.0624 H       
  21 H21            4.6492     3.9219    -0.0781 H       
  22 H22            2.5564     5.2093    -0.0541 H       
  23 H23            0.3959     4.0787    -0.0138 H       
  24 H24           -3.7380     2.7925     0.8729 H       
  25 H25           -3.6691     2.9366    -0.8999 H       
  26 H26           -4.8663     0.5263    -0.9128 H       
  27 H27           -5.9104     2.2924     1.3237 H       
  28 H28           -6.7620     0.8401     0.5085 H       
@<TRIPOS>BOND
   1    1    2 ar
   2    1   10 ar
   3    1   11 1
   4    2    3 ar
   5    2   17 1
   6    3    4 ar
   7    3   18 1
   8    4    5 ar
   9    4   19 1
  10    5    6 ar
  11    5   10 ar
  12    6    7 ar
  13    6   20 1
  14    7    8 ar
  15    7   21 1
  16    8    9 ar
  17    8   22 1
  18    9   10 ar
  19    9   23 1
  20   11   12 2
  21   11   13 1
  22   13   14 1
  23   14   15 1
  24   14   24 1
  25   14   25 1
  26   15   16 2
  27   15   26 1
  28   16   27 1
  29   16   28 1

#	End of record

