#	Name: ASD03331317
#	Creating user name:	WinNT
#	Creation time:	15. 06. 2019 20:39

#	Modifying user name:	WinNT
#	Modification time:	15. 06. 2019 20:39

#	Program:	/corina/corina34_cracker 3.40 0067  02.08.2006

@<TRIPOS>MOLECULE
ASD03331317
  54   56    0    0    0
SMALL
NO_CHARGES


@<TRIPOS>ATOM
   1 C1             0.0367     1.3421     2.1518 C.3     
   2 C2             0.0252    -0.1126     1.7546 C.2     
   3 C3             1.0962    -0.7510     1.2245 C.2     
   4 C4             2.4194    -0.0724     0.9690 C.3     
   5 C5             2.1888     1.4443     1.0246 C.3     
   6 N6             1.4384     1.7855     2.2407 N.3     
   7 N7            -0.5947    -2.1940     1.3884 N.2     
   8 N8             0.7424    -2.0371     0.9909 N.am    
   9 C9            -1.0271    -1.0371     1.8477 C.2     
  10 C10            1.5331    -2.9958     0.4691 C.2     
  11 O11            2.6796    -2.7368     0.1616 O.2     
  12 N12            1.0520    -4.2417     0.2883 N.am    
  13 C13            1.5183     3.2251     2.5221 C.3     
  14 C14            1.8695    -5.2040    -1.8062 C.3     
  15 C15            1.9114    -5.2837    -0.2789 C.3     
  16 C16            1.4137    -6.6578     0.1740 C.3     
  17 C17            2.2271    -7.7501    -0.5232 C.3     
  18 C18            1.5804    -6.7866     1.6894 C.3     
  19 C19           -0.0641    -6.8107    -0.1914 C.3     
  20 O20            0.5361    -5.4466    -2.2594 O.3     
  21 C21           -2.3876    -0.7601     2.3713 C.ar    
  22 C22           -3.4947    -1.3935     1.8097 C.ar    
  23 C23           -4.7593    -1.1329     2.3008 C.ar    
  24 C24           -4.9267    -0.2415     3.3513 C.ar    
  25 C25           -3.8283     0.3890     3.9108 C.ar    
  26 C26           -2.5610     0.1295     3.4294 C.ar    
  27 F27           -6.1648     0.0121     3.8289 F       
  28 F28           -5.8339    -1.7458     1.7579 F       
  29 H29           -0.4885     1.9322     1.4008 H       
  30 H30           -0.4489     1.4624     3.1202 H       
  31 H31            3.1379    -0.3647     1.7348 H       
  32 H32            2.7939    -0.3528    -0.0155 H       
  33 H33            3.1504     1.9574     1.0355 H       
  34 H34            1.6209     1.7573     0.1485 H       
  35 H35            0.1366    -4.4484     0.5338 H       
  36 H36            1.0236     3.4381     3.4697 H       
  37 H37            2.5642     3.5260     2.5826 H       
  38 H38            1.0264     3.7794     1.7228 H       
  39 H39            2.1874    -4.2120    -2.1272 H       
  40 H40            2.5386    -5.9541    -2.2277 H       
  41 H41            2.9354    -5.1368     0.0646 H       
  42 H42            3.2800    -7.6411    -0.2629 H       
  43 H43            1.8725    -8.7290    -0.2006 H       
  44 H44            2.1084    -7.6583    -1.6028 H       
  45 H45            1.0009    -6.0084     2.1861 H       
  46 H46            1.2258    -7.7655     2.0121 H       
  47 H47            2.6332    -6.6776     1.9497 H       
  48 H48           -0.1628    -6.9096    -1.2724 H       
  49 H49           -0.4681    -7.6996     0.2932 H       
  50 H50           -0.6144    -5.9319     0.1448 H       
  51 H51            0.4348    -5.4115    -3.2204 H       
  52 H52           -3.3642    -2.0867     0.9918 H       
  53 H53           -3.9630     1.0820     4.7281 H       
  54 H54           -1.7049     0.6190     3.8697 H       
@<TRIPOS>BOND
   1    1    2 1
   2    1    6 1
   3    1   29 1
   4    1   30 1
   5    2    3 2
   6    2    9 1
   7    3    4 1
   8    3    8 1
   9    4    5 1
  10    4   31 1
  11    4   32 1
  12    5    6 1
  13    5   33 1
  14    5   34 1
  15    6   13 1
  16    7    8 1
  17    7    9 2
  18    8   10 am
  19    9   21 1
  20   10   11 2
  21   10   12 am
  22   12   15 1
  23   12   35 1
  24   13   36 1
  25   13   37 1
  26   13   38 1
  27   14   20 1
  28   14   15 1
  29   14   39 1
  30   14   40 1
  31   15   16 1
  32   15   41 1
  33   16   17 1
  34   16   18 1
  35   16   19 1
  36   17   42 1
  37   17   43 1
  38   17   44 1
  39   18   45 1
  40   18   46 1
  41   18   47 1
  42   19   48 1
  43   19   49 1
  44   19   50 1
  45   20   51 1
  46   21   22 ar
  47   21   26 ar
  48   22   23 ar
  49   22   52 1
  50   23   24 ar
  51   23   28 1
  52   24   25 ar
  53   24   27 1
  54   25   26 ar
  55   25   53 1
  56   26   54 1

#	End of record

