#	Name: ASD03330785
#	Creating user name:	WinNT
#	Creation time:	15. 06. 2019 20:37

#	Modifying user name:	WinNT
#	Modification time:	15. 06. 2019 20:37

#	Program:	/corina/corina34_cracker 3.40 0067  02.08.2006

@<TRIPOS>MOLECULE
ASD03330785
  57   59    0    0    0
SMALL
NO_CHARGES


@<TRIPOS>ATOM
   1 C1            -0.7118     1.9006    -0.2692 C.2     
   2 N2            -0.9231     0.5607    -0.1781 N.pl3   
   3 C3             0.6297     2.1033    -0.1500 C.2     
   4 N4             1.2179     0.8955    -0.0064 N.2     
   5 C5             0.2942    -0.0366    -0.0279 C.2     
   6 C6             0.5331    -1.4914     0.0909 C.ar    
   7 C7             1.3166     3.4067    -0.1735 C.2     
   8 O8             0.6741     4.4304    -0.3095 O.2     
   9 C9             3.3399     4.7604    -0.0675 C.3     
  10 N10            2.6569     3.4645    -0.0442 N.am    
  11 C11            4.7872     4.5659    -0.5240 C.3     
  12 C12            3.3254     5.3608     1.3146 C.2     
  13 O13            3.2468     4.6410     2.2876 O.2     
  14 C14           -2.2315    -0.0981    -0.2212 C.3     
  15 C15           -3.0408     0.4685    -1.3919 C.3     
  16 C16           -3.8063     1.7072    -0.9380 C.3     
  17 N17           -3.0485     2.4565     0.0661 N.3     
  18 C18           -1.7750     2.9468    -0.4817 C.3     
  19 C19           -0.2333    -2.2577     0.9695 C.ar    
  20 C20           -0.0052    -3.6161     1.0758 C.ar    
  21 C21           -3.8473     3.5620     0.6117 C.3     
  22 N22            3.3998     6.6975     1.4695 N.am    
  23 C23            0.9827    -4.2178     0.3124 C.ar    
  24 C24            4.8027     3.8875    -1.8953 C.3     
  25 C25            5.4787     5.9273    -0.6207 C.3     
  26 C26            5.5275     3.6885     0.4875 C.3     
  27 F27           -0.7464    -4.3595     1.9262 F       
  28 F28            2.2660    -1.3706    -1.5373 F       
  29 C29            1.5231    -2.1049    -0.6805 C.ar    
  30 C30            1.7456    -3.4642    -0.5601 C.ar    
  31 H31            2.8274     5.4288    -0.7594 H       
  32 H32            3.1693     2.6481     0.0643 H       
  33 H33           -2.0949    -1.1708    -0.3580 H       
  34 H34           -2.7631     0.0864     0.7123 H       
  35 H35           -2.3647     0.7373    -2.2035 H       
  36 H36           -3.7460    -0.2849    -1.7432 H       
  37 H37           -3.9908     2.3492    -1.7994 H       
  38 H38           -4.7611     1.4010    -0.5105 H       
  39 H39           -1.4887     3.8664     0.0288 H       
  40 H40           -1.8876     3.1406    -1.5484 H       
  41 H41           -1.0030    -1.7899     1.5655 H       
  42 H42           -4.7478     3.1634     1.0790 H       
  43 H43           -3.2607     4.1018     1.3550 H       
  44 H44           -4.1263     4.2410    -0.1941 H       
  45 H45            3.3897     7.2772     0.6918 H       
  46 H46            3.4634     7.0800     2.3586 H       
  47 H47            1.1576    -5.2799     0.3997 H       
  48 H48            4.2753     4.5126    -2.6159 H       
  49 H49            5.8338     3.7490    -2.2205 H       
  50 H50            4.3100     2.9177    -1.8264 H       
  51 H51            5.5520     6.3690     0.3731 H       
  52 H52            6.4784     5.7984    -1.0356 H       
  53 H53            4.8985     6.5844    -1.2684 H       
  54 H54            5.0348     2.7187     0.5563 H       
  55 H55            6.5586     3.5500     0.1623 H       
  56 H56            5.5164     4.1719     1.4644 H       
  57 H57            2.5109    -3.9397    -1.1555 H       
@<TRIPOS>BOND
   1    1    2 1
   2    1    3 2
   3    1   18 1
   4    2   14 1
   5    2    5 1
   6    3    4 1
   7    3    7 1
   8    4    5 2
   9    5    6 1
  10    6   29 ar
  11    6   19 ar
  12    7    8 2
  13    7   10 am
  14    9   10 1
  15    9   11 1
  16    9   12 1
  17    9   31 1
  18   10   32 1
  19   11   24 1
  20   11   25 1
  21   11   26 1
  22   12   13 2
  23   12   22 am
  24   14   15 1
  25   14   33 1
  26   14   34 1
  27   15   16 1
  28   15   35 1
  29   15   36 1
  30   16   17 1
  31   16   37 1
  32   16   38 1
  33   17   18 1
  34   17   21 1
  35   18   39 1
  36   18   40 1
  37   19   20 ar
  38   19   41 1
  39   20   27 1
  40   20   23 ar
  41   21   42 1
  42   21   43 1
  43   21   44 1
  44   22   45 1
  45   22   46 1
  46   23   30 ar
  47   23   47 1
  48   24   48 1
  49   24   49 1
  50   24   50 1
  51   25   51 1
  52   25   52 1
  53   25   53 1
  54   26   54 1
  55   26   55 1
  56   26   56 1
  57   28   29 1
  58   29   30 ar
  59   30   57 1

#	End of record

