#	Name: ASD01230617
#	Creating user name:	WinNT
#	Creation time:	15. 06. 2019 19:14

#	Modifying user name:	WinNT
#	Modification time:	15. 06. 2019 19:14

#	Program:	/corina/corina34_cracker 3.40 0067  02.08.2006

@<TRIPOS>MOLECULE
ASD01230617
  42   45    0    0    0
SMALL
NO_CHARGES


@<TRIPOS>ATOM
   1 C1            -0.0184     1.5050     0.0103 C.2     
   2 C2             0.0021    -0.0041     0.0020 C.3     
   3 C3             1.4873    -0.3908    -0.0142 C.3     
   4 C4             2.2617     0.9058    -0.0147 C.ar    
   5 C5             3.6106     1.1325    -0.0270 C.ar    
   6 C6             4.1040     2.4397    -0.0250 C.ar    
   7 C7             3.2158     3.5201    -0.0107 C.ar    
   8 C8             1.8717     3.2976     0.0012 C.ar    
   9 C9             1.3706     1.9827    -0.0004 C.ar    
  10 O10           -1.0106     2.2029     0.0190 O.2     
  11 C11           -0.6739    -0.5502     1.2613 C.3     
  12 C12           -0.6979    -0.5367    -1.2499 C.3     
  13 S13            6.0266     4.3521     3.4989 S.o2    
  14 N14            5.4491     3.6262     2.1287 N.am    
  15 C15            6.2241     3.3283     1.1155 C.2     
  16 N16            7.5682     3.5658     1.0474 N.pl3   
  17 C17            8.3306     4.2576     2.0902 C.3     
  18 C18            7.7904     3.9009     3.4781 C.3     
  19 C19            5.5613     2.6803    -0.0374 C.2     
  20 C20            6.3239     2.3030    -1.1252 C.2     
  21 C21            7.7016     2.5480    -1.1047 C.2     
  22 C22            8.2783     3.1525    -0.0498 C.2     
  23 O23            5.8591     5.7435     3.2641 O.2     
  24 O24            5.3507     3.6963     4.5630 O.2     
  25 H25            1.7324    -0.9732     0.8739 H       
  26 H26            1.7154    -0.9636    -0.9131 H       
  27 H27            4.2965     0.2984    -0.0381 H       
  28 H28            3.5956     4.5311    -0.0087 H       
  29 H29            1.1882     4.1337     0.0122 H       
  30 H30           -1.7155    -0.2295     1.2826 H       
  31 H31           -0.6291    -1.6392     1.2545 H       
  32 H32           -0.1588    -0.1708     2.1438 H       
  33 H33           -0.1997    -0.1478    -2.1379 H       
  34 H34           -0.6531    -1.6257    -1.2557 H       
  35 H35           -1.7397    -0.2159    -1.2479 H       
  36 H36            9.3779     3.9625     2.0253 H       
  37 H37            8.2510     5.3341     1.9393 H       
  38 H38            8.3270     4.4643     4.2415 H       
  39 H39            7.9024     2.8315     3.6568 H       
  40 H40            5.8643     1.8261    -1.9783 H       
  41 H41            8.3093     2.2478    -1.9455 H       
  42 H42            9.3452     3.3192    -0.0685 H       
@<TRIPOS>BOND
   1    1    2 1
   2    1    9 1
   3    1   10 2
   4    2    3 1
   5    2   11 1
   6    2   12 1
   7    3    4 1
   8    3   25 1
   9    3   26 1
  10    4    5 ar
  11    4    9 ar
  12    5    6 ar
  13    5   27 1
  14    6    7 ar
  15    6   19 1
  16    7    8 ar
  17    7   28 1
  18    8    9 ar
  19    8   29 1
  20   11   30 1
  21   11   31 1
  22   11   32 1
  23   12   33 1
  24   12   34 1
  25   12   35 1
  26   13   14 am
  27   13   18 1
  28   13   23 2
  29   13   24 2
  30   14   15 2
  31   15   16 1
  32   15   19 1
  33   16   17 1
  34   16   22 1
  35   17   18 1
  36   17   36 1
  37   17   37 1
  38   18   38 1
  39   18   39 1
  40   19   20 2
  41   20   21 1
  42   20   40 1
  43   21   22 2
  44   21   41 1
  45   22   42 1

#	End of record

