#	Name: ASD01230095
#	Creating user name:	WinNT
#	Creation time:	15. 06. 2019 19:11

#	Modifying user name:	WinNT
#	Modification time:	15. 06. 2019 19:11

#	Program:	/corina/corina34_cracker 3.40 0067  02.08.2006

@<TRIPOS>MOLECULE
ASD01230095
  56   60    0    0    0
SMALL
NO_CHARGES


@<TRIPOS>ATOM
   1 C1            -0.0166     1.3746     0.0096 C.2     
   2 C2             0.0021    -0.0041     0.0020 C.2     
   3 C3            -1.3406    -0.4406     0.0130 C.2     
   4 N4            -2.1091     0.6141     0.0263 N.2     
   5 N5            -1.3051     1.7596     0.0299 N.pl3   
   6 C6            -1.7856     3.1435     0.0442 C.3     
   7 C7             1.1858     2.2831     0.0030 C.3     
   8 O8             1.5787     2.5630     1.3481 O.3     
   9 C9             2.6553     3.3742     1.5203 C.ar    
  10 C10            3.0916     3.6877     2.7993 C.ar    
  11 C11            4.1863     4.5126     2.9716 C.ar    
  12 C12            4.8470     5.0256     1.8707 C.ar    
  13 C13            4.4138     4.7150     0.5949 C.ar    
  14 C14            3.3234     3.8856     0.4172 C.ar    
  15 C15            1.2024    -0.8636    -0.0149 C.2     
  16 O16            2.4802    -0.4527    -0.0254 O.3     
  17 N17            3.2225    -1.4116    -0.0384 N.2     
  18 C18            2.5312    -2.5226    -0.0378 C.2     
  19 N19            1.2247    -2.1842    -0.0169 N.2     
  20 C20            3.0819    -3.9003    -0.0520 C.ar    
  21 C21            4.4637    -4.0993    -0.0673 C.ar    
  22 C22            2.2192    -4.9958    -0.0442 C.ar    
  23 C23            2.7287    -6.2750    -0.0564 C.ar    
  24 C24            4.1108    -6.4768    -0.0767 C.ar    
  25 C25            4.9755    -5.3812    -0.0801 C.ar    
  26 F26            5.2994    -3.0378    -0.0702 F       
  27 C27            4.6573    -7.8503    -0.0889 C.2     
  28 N28            5.9909    -8.0447    -0.1085 N.am    
  29 O29            3.9041    -8.8043    -0.0813 O.2     
  30 C30            6.5325    -9.4059    -0.1206 C.3     
  31 C31            7.9405    -9.5095    -0.7365 C.3     
  32 O32            8.2372   -10.3842     0.3707 O.3     
  33 C33            7.2036    -9.8201     1.2026 C.3     
  34 C34            6.0408     5.9252     2.0616 C.3     
  35 F35            7.2053     5.1512     2.1074 F       
  36 F36            6.1213     6.8260     0.9943 F       
  37 F37            5.9042     6.6334     3.2603 F       
  38 H38           -1.6735    -1.4680     0.0103 H       
  39 H39           -1.8981     3.4784     1.0754 H       
  40 H40           -1.0674     3.7828    -0.4691 H       
  41 H41           -2.7489     3.1989    -0.4629 H       
  42 H42            2.0072     1.7948    -0.5213 H       
  43 H43            0.9343     3.2149    -0.5035 H       
  44 H44            2.5757     3.2875     3.6596 H       
  45 H45            4.5261     4.7572     3.9672 H       
  46 H46            4.9311     5.1175    -0.2635 H       
  47 H47            2.9855     3.6432    -0.5796 H       
  48 H48            1.1505    -4.8409    -0.0282 H       
  49 H49            2.0595    -7.1226    -0.0500 H       
  50 H50            6.0442    -5.5363    -0.0961 H       
  51 H51            6.5920    -7.2835    -0.1145 H       
  52 H52            5.8274   -10.1414    -0.5078 H       
  53 H53            7.9618   -10.0044    -1.7074 H       
  54 H54            8.4987    -8.5735    -0.7209 H       
  55 H55            7.5367    -8.9788     1.8103 H       
  56 H56            6.6403   -10.5612     1.7696 H       
@<TRIPOS>BOND
   1    1    2 2
   2    1    7 1
   3    1    5 1
   4    2    3 1
   5    2   15 1
   6    3    4 2
   7    3   38 1
   8    4    5 1
   9    5    6 1
  10    6   39 1
  11    6   40 1
  12    6   41 1
  13    7    8 1
  14    7   42 1
  15    7   43 1
  16    8    9 1
  17    9   10 ar
  18    9   14 ar
  19   10   11 ar
  20   10   44 1
  21   11   12 ar
  22   11   45 1
  23   12   34 1
  24   12   13 ar
  25   13   14 ar
  26   13   46 1
  27   14   47 1
  28   15   16 1
  29   15   19 2
  30   16   17 1
  31   17   18 2
  32   18   19 1
  33   18   20 1
  34   20   21 ar
  35   20   22 ar
  36   21   26 1
  37   21   25 ar
  38   22   23 ar
  39   22   48 1
  40   23   24 ar
  41   23   49 1
  42   24   25 ar
  43   24   27 1
  44   25   50 1
  45   27   28 am
  46   27   29 2
  47   28   30 1
  48   28   51 1
  49   30   31 1
  50   30   33 1
  51   30   52 1
  52   31   32 1
  53   31   53 1
  54   31   54 1
  55   32   33 1
  56   33   55 1
  57   33   56 1
  58   34   35 1
  59   34   36 1
  60   34   37 1

#	End of record

