#	Name: ASD03092190
#	Creating user name:	WinNT
#	Creation time:	15. 06. 2019 20:32

#	Modifying user name:	WinNT
#	Modification time:	15. 06. 2019 20:32

#	Program:	/corina/corina34_cracker 3.40 0067  02.08.2006

@<TRIPOS>MOLECULE
ASD03092190
  49   52    0    0    0
SMALL
NO_CHARGES


@<TRIPOS>ATOM
   1 N1             0.2707     0.9020    -0.4006 N.pl3   
   2 C2             0.0675    -0.3534     0.0907 C.2     
   3 C3            -1.2735    -0.4961     0.3073 C.2     
   4 C4            -1.8967     0.7025    -0.0622 C.2     
   5 N5            -0.9744     1.5387    -0.4798 N.2     
   6 C6             1.1084    -1.3739     0.3426 C.ar    
   7 C7             2.3433    -1.3188    -0.3136 C.ar    
   8 C8             3.2851    -2.2910    -0.0490 C.ar    
   9 N9             3.0339    -3.2622     0.8082 N.ar    
  10 C10            1.8834    -3.3512     1.4481 C.ar    
  11 C11            0.8877    -2.4179     1.2481 C.ar    
  12 C12            1.5624     1.4839    -0.7736 C.3     
  13 N13           -3.2700     0.9662     0.0068 N.pl3   
  14 C14           -3.7517     2.2479    -0.2820 C.ar    
  15 C15           -5.0318     2.4094    -0.7946 C.ar    
  16 C16           -5.5090     3.6749    -1.0798 C.ar    
  17 C17           -4.7119     4.7852    -0.8557 C.ar    
  18 C18           -3.4269     4.6266    -0.3414 C.ar    
  19 C19           -2.9514     3.3592    -0.0505 C.ar    
  20 O20           -2.8527     5.8585    -0.2141 O.3     
  21 O21           -4.9420     6.1178    -1.0502 O.3     
  22 C22           -3.9421     6.7983    -0.2691 C.3     
  23 F23           -4.4228     7.0693     1.0165 F       
  24 F24           -3.5414     7.9786    -0.9043 F       
  25 C25            1.7982     1.2802    -2.2480 C.2     
  26 N26            2.9306     1.7366    -2.8187 N.am    
  27 C27            3.1598     1.5386    -4.2521 C.3     
  28 C28            1.6565    -4.4844     2.4153 C.3     
  29 C29            4.6190    -2.2437    -0.7486 C.3     
  30 O30            0.9688     0.7056    -2.9210 O.2     
  31 H31           -1.7655    -1.3763     0.6938 H       
  32 H32            2.5554    -0.5272    -1.0170 H       
  33 H33           -0.0516    -2.4970     1.7752 H       
  34 H34            1.5584     2.5508    -0.5502 H       
  35 H35            2.3570     0.9973    -0.2079 H       
  36 H36           -3.8875     0.2605     0.2548 H       
  37 H37           -5.6553     1.5454    -0.9711 H       
  38 H38           -6.5051     3.7982    -1.4785 H       
  39 H39           -1.9557     3.2341     0.3486 H       
  40 H40            3.5939     2.1962    -2.2805 H       
  41 H41            3.1638     0.4717    -4.4754 H       
  42 H42            2.3652     2.0252    -4.8177 H       
  43 H43            4.1209     1.9715    -4.5296 H       
  44 H44            1.9814    -4.1827     3.4111 H       
  45 H45            0.5959    -4.7346     2.4395 H       
  46 H46            2.2281    -5.3554     2.0950 H       
  47 H47            5.3201    -1.6571    -0.1550 H       
  48 H48            5.0028    -3.2569    -0.8679 H       
  49 H49            4.4988    -1.7829    -1.7291 H       
@<TRIPOS>BOND
   1    1    2 1
   2    1   12 1
   3    1    5 1
   4    2    3 2
   5    2    6 1
   6    3    4 1
   7    3   31 1
   8    4    5 2
   9    4   13 1
  10    6    7 ar
  11    6   11 ar
  12    7    8 ar
  13    7   32 1
  14    8    9 ar
  15    8   29 1
  16    9   10 ar
  17   10   11 ar
  18   10   28 1
  19   11   33 1
  20   12   25 1
  21   12   34 1
  22   12   35 1
  23   13   14 1
  24   13   36 1
  25   14   15 ar
  26   14   19 ar
  27   15   16 ar
  28   15   37 1
  29   16   17 ar
  30   16   38 1
  31   17   18 ar
  32   17   21 1
  33   18   19 ar
  34   18   20 1
  35   19   39 1
  36   20   22 1
  37   21   22 1
  38   22   23 1
  39   22   24 1
  40   25   26 am
  41   25   30 2
  42   26   27 1
  43   26   40 1
  44   27   41 1
  45   27   42 1
  46   27   43 1
  47   28   44 1
  48   28   45 1
  49   28   46 1
  50   29   47 1
  51   29   48 1
  52   29   49 1

#	End of record

