#	Name: ASD01140462
#	Creating user name:	WinNT
#	Creation time:	15. 06. 2019 19:00

#	Modifying user name:	WinNT
#	Modification time:	15. 06. 2019 19:00

#	Program:	/corina/corina34_cracker 3.40 0067  02.08.2006

@<TRIPOS>MOLECULE
ASD01140462
  35   38    0    0    0
SMALL
NO_CHARGES


@<TRIPOS>ATOM
   1 C1            -0.0411     1.3637     0.0586 C.ar    
   2 C2             0.0190     0.0631    -0.4092 C.ar    
   3 C3             1.2241    -0.6083    -0.4361 C.ar    
   4 C4             2.3831     0.0268     0.0095 C.ar    
   5 C5             2.3161     1.3381     0.4799 C.ar    
   6 C6             1.1051     1.9990     0.5020 C.ar    
   7 C7             3.6801    -0.6886    -0.0164 C.2     
   8 N8             3.6180    -1.9734     0.0695 N.2     
   9 C9             6.0455    -0.0751     0.5856 C.ar    
  10 C10            4.8217    -2.8109     0.0396 C.3     
  11 C11            5.6827    -2.4191     1.2138 C.2     
  12 C12            4.8756     0.1526    -0.1423 C.ar    
  13 C13            4.8288     1.2388    -1.0289 C.ar    
  14 C14            5.9064     2.0865    -1.1543 C.ar    
  15 C15            7.0498     1.8759    -0.4000 C.ar    
  16 C16            7.1183     0.8024     0.4629 C.ar    
  17 N17            6.1813    -1.1787     1.4381 N.pl3   
  18 C18            6.8460    -1.2437     2.6217 C.2     
  19 N19            6.7614    -2.4810     3.0366 N.2     
  20 N20            6.0793    -3.1811     2.1927 N.2     
  21 C21            7.5465    -0.1078     3.3219 C.3     
  22 Cl22           5.8329     3.4223    -2.2606 Cl      
  23 H23           -0.9859     1.8867     0.0736 H       
  24 H24           -0.8792    -0.4278    -0.7536 H       
  25 H25            1.2698    -1.6237    -0.8012 H       
  26 H26            3.2101     1.8350     0.8266 H       
  27 H27            1.0519     3.0144     0.8661 H       
  28 H28            4.5428    -3.8615     0.1203 H       
  29 H29            5.3657    -2.6427    -0.8898 H       
  30 H30            3.9403     1.4113    -1.6182 H       
  31 H31            7.8872     2.5522    -0.4882 H       
  32 H32            8.0118     0.6414     1.0477 H       
  33 H33            6.8250     0.4525     3.9166 H       
  34 H34            8.3233    -0.5068     3.9742 H       
  35 H35            7.9977     0.5525     2.5813 H       
@<TRIPOS>BOND
   1    1    2 ar
   2    1    6 ar
   3    1   23 1
   4    2    3 ar
   5    2   24 1
   6    3    4 ar
   7    3   25 1
   8    4    5 ar
   9    4    7 1
  10    5    6 ar
  11    5   26 1
  12    6   27 1
  13    7   12 1
  14    7    8 2
  15    8   10 1
  16    9   17 1
  17    9   12 ar
  18    9   16 ar
  19   10   11 1
  20   10   28 1
  21   10   29 1
  22   11   20 2
  23   11   17 1
  24   12   13 ar
  25   13   14 ar
  26   13   30 1
  27   14   15 ar
  28   14   22 1
  29   15   16 ar
  30   15   31 1
  31   16   32 1
  32   17   18 1
  33   18   19 2
  34   18   21 1
  35   19   20 1
  36   21   33 1
  37   21   34 1
  38   21   35 1

#	End of record

