#	Name: ASD00170917
#	Creating user name:	WinNT
#	Creation time:	15. 06. 2019 18:32

#	Modifying user name:	WinNT
#	Modification time:	15. 06. 2019 18:32

#	Program:	/corina/corina34_cracker 3.40 0067  02.08.2006

@<TRIPOS>MOLECULE
ASD00170917
  17   17    0    0    0
SMALL
NO_CHARGES


@<TRIPOS>ATOM
   1 C1             0.0180    -1.1779    -0.0044 C.1     
   2 C2             0.0021    -0.0041     0.0020 C.1     
   3 C3            -0.0179     1.4678     0.0101 C.3     
   4 C4             1.3959     1.9894    -0.0006 C.ar    
   5 C5             2.0327     2.2350    -1.2028 C.ar    
   6 C6             3.3294     2.7134    -1.2132 C.ar    
   7 C7             3.9900     2.9465    -0.0202 C.ar    
   8 C8             3.3522     2.7005     1.1826 C.ar    
   9 C9             2.0536     2.2275     1.1918 C.ar    
  10 Cl10           5.6189     3.5468    -0.0325 Cl      
  11 H11            0.0322    -2.2278    -0.0102 H       
  12 H12           -0.5451     1.8289    -0.8729 H       
  13 H13           -0.5281     1.8193     0.9069 H       
  14 H14            1.5170     2.0526    -2.1340 H       
  15 H15            3.8268     2.9049    -2.1525 H       
  16 H16            3.8675     2.8823     2.1142 H       
  17 H17            1.5540     2.0396     2.1308 H       
@<TRIPOS>BOND
   1    1    2 3
   2    1   11 1
   3    2    3 1
   4    3    4 1
   5    3   12 1
   6    3   13 1
   7    4    5 ar
   8    4    9 ar
   9    5    6 ar
  10    5   14 1
  11    6    7 ar
  12    6   15 1
  13    7    8 ar
  14    7   10 1
  15    8    9 ar
  16    8   16 1
  17    9   17 1

#	End of record

