#	Name: ASD03331300
#	Creating user name:	WinNT
#	Creation time:	15. 06. 2019 20:38

#	Modifying user name:	WinNT
#	Modification time:	15. 06. 2019 20:38

#	Program:	/corina/corina34_cracker 3.40 0067  02.08.2006

@<TRIPOS>MOLECULE
ASD03331300
  61   64    0    0    0
SMALL
NO_CHARGES


@<TRIPOS>ATOM
   1 N1            -0.2308     1.3331     0.1914 N.2     
   2 N2            -0.1395    -0.0674     0.1546 N.am    
   3 C3             1.1541    -0.4039     0.3664 C.2     
   4 C4             1.8617     0.7403     0.5343 C.2     
   5 C5             0.9729     1.8196     0.4196 C.2     
   6 C6             3.3466     0.7600     0.7973 C.3     
   7 C7             1.7858    -1.7732     0.4209 C.3     
   8 C8             3.3051    -1.5924     0.2883 C.3     
   9 O9             3.7462    -0.5637     1.1784 O.3     
  10 C10           -1.1588    -0.9242    -0.0539 C.2     
  11 O11           -0.9536    -2.1217    -0.0629 O.2     
  12 N12           -2.4056    -0.4526    -0.2523 N.am    
  13 C13            1.3257     3.2560     0.5341 C.ar    
  14 C14            0.5487     4.1070     1.3216 C.ar    
  15 C15            0.8815     5.4443     1.4257 C.ar    
  16 C16            1.9840     5.9402     0.7502 C.ar    
  17 C17            2.7592     5.0979    -0.0337 C.ar    
  18 C18            2.4371     3.7584    -0.1394 C.ar    
  19 F19            3.8334     5.5871    -0.6908 F       
  20 F20            2.3054     7.2483     0.8545 F       
  21 F21           -0.5273     3.6243     1.9806 F       
  22 C22           -4.6044    -0.6884    -1.2517 C.2     
  23 C23           -3.5136    -1.3840    -0.4788 C.3     
  24 C24           -4.0650    -1.8578     0.8674 C.3     
  25 C25           -5.3070    -2.7204     0.6347 C.3     
  26 O26           -4.8398     0.4836    -1.0472 O.2     
  27 C27           -2.9999    -2.6824     1.5930 C.3     
  28 C28           -4.4394    -0.6443     1.7207 C.3     
  29 N29           -5.3185    -1.3688    -2.1702 N.am    
  30 C30           -6.4775    -0.8498    -2.9110 C.3     
  31 C31           -6.9823    -1.9852    -3.8262 C.3     
  32 C32           -6.4295    -3.2599    -3.1355 C.3     
  33 C33           -5.0628    -2.7547    -2.6030 C.3     
  34 O34           -6.4444    -1.8501    -5.1431 O.3     
  35 H35            3.8770     1.0591    -0.1067 H       
  36 H36            3.5687     1.4586     1.6040 H       
  37 H37            1.5522    -2.2502     1.3727 H       
  38 H38            1.4133    -2.3848    -0.4009 H       
  39 H39            3.8051    -2.5280     0.5389 H       
  40 H40            3.5493    -1.3144    -0.7370 H       
  41 H41           -2.5695     0.5034    -0.2451 H       
  42 H42            0.2807     6.1037     2.0345 H       
  43 H43            3.0437     3.1025    -0.7463 H       
  44 H44           -3.1561    -2.2424    -1.0475 H       
  45 H45           -5.0250    -3.6261     0.0979 H       
  46 H46           -5.7476    -2.9893     1.5947 H       
  47 H47           -6.0333    -2.1602     0.0458 H       
  48 H48           -2.1151    -2.0679     1.7588 H       
  49 H49           -3.3927    -3.0200     2.5521 H       
  50 H50           -2.7332    -3.5469     0.9851 H       
  51 H51           -5.1981    -0.0568     1.2038 H       
  52 H52           -4.8322    -0.9818     2.6798 H       
  53 H53           -3.5545    -0.0297     1.8865 H       
  54 H54           -7.2631    -0.5587    -2.2138 H       
  55 H55           -6.1782     0.0073    -3.5144 H       
  56 H56           -8.0718    -2.0031    -3.8534 H       
  57 H57           -7.0789    -3.5744    -2.3185 H       
  58 H58           -6.2923    -4.0663    -3.8559 H       
  59 H59           -4.3143    -2.7728    -3.3952 H       
  60 H60           -4.7373    -3.3620    -1.7584 H       
  61 H61           -6.7311    -2.5395    -5.7577 H       
@<TRIPOS>BOND
   1    1    2 1
   2    1    5 2
   3    2    3 1
   4    2   10 am
   5    3    4 2
   6    3    7 1
   7    4    5 1
   8    4    6 1
   9    5   13 1
  10    6    9 1
  11    6   35 1
  12    6   36 1
  13    7    8 1
  14    7   37 1
  15    7   38 1
  16    8    9 1
  17    8   39 1
  18    8   40 1
  19   10   11 2
  20   10   12 am
  21   12   23 1
  22   12   41 1
  23   13   14 ar
  24   13   18 ar
  25   14   15 ar
  26   14   21 1
  27   15   16 ar
  28   15   42 1
  29   16   17 ar
  30   16   20 1
  31   17   18 ar
  32   17   19 1
  33   18   43 1
  34   22   26 2
  35   22   29 am
  36   22   23 1
  37   23   24 1
  38   23   44 1
  39   24   25 1
  40   24   27 1
  41   24   28 1
  42   25   45 1
  43   25   46 1
  44   25   47 1
  45   27   48 1
  46   27   49 1
  47   27   50 1
  48   28   51 1
  49   28   52 1
  50   28   53 1
  51   29   30 1
  52   29   33 1
  53   30   31 1
  54   30   54 1
  55   30   55 1
  56   31   32 1
  57   31   34 1
  58   31   56 1
  59   32   33 1
  60   32   57 1
  61   32   58 1
  62   33   59 1
  63   33   60 1
  64   34   61 1

#	End of record

