#	Name: ASD01884204
#	Creating user name:	WinNT
#	Creation time:	15. 06. 2019 19:47

#	Modifying user name:	WinNT
#	Modification time:	15. 06. 2019 19:47

#	Program:	/corina/corina34_cracker 3.40 0067  02.08.2006

@<TRIPOS>MOLECULE
ASD01884204
  52   56    0    0    0
SMALL
NO_CHARGES


@<TRIPOS>ATOM
   1 S1            -0.0219     1.7672     0.0118 S.3     
   2 C2             0.0021    -0.0041     0.0020 C.2     
   3 N3             1.2907    -0.3577    -0.0122 N.am    
   4 C4             2.2517     0.6358    -0.0160 C.ar    
   5 C5             1.7392     1.9355    -0.0042 C.ar    
   6 C6             2.5664     3.0406    -0.0065 C.ar    
   7 C7             3.9501     2.8706    -0.0211 C.ar    
   8 C8             4.4768     1.5777    -0.0330 C.ar    
   9 C9             3.6482     0.4838    -0.0306 C.ar    
  10 O10           -0.9607    -0.7487     0.0072 O.2     
  11 C11            4.8502     4.0471    -0.0242 C.ar    
  12 C12            6.7353     5.2270     0.8815 C.ar    
  13 C13            6.5397     6.2534    -0.0283 C.ar    
  14 C14            5.5033     6.1937    -0.9360 C.ar    
  15 C15            4.6469     5.0915    -0.9449 C.ar    
  16 C16            1.6772    -1.7707    -0.0230 C.3     
  17 C17            1.7984    -2.2553    -1.4692 C.3     
  18 C18            2.3090    -3.6795    -1.6966 C.3     
  19 C19            0.8336    -3.3492    -1.9309 C.3     
  20 F20            3.1067    -3.9076    -2.8230 F       
  21 F21            2.6292    -4.4391    -0.5662 F       
  22 C22            5.8993     4.1290     0.8876 C.ar    
  23 C23            3.5689     5.0238    -1.8851 C.1     
  24 N24            2.7138     4.9702    -2.6310 N.1     
  25 C25            7.8725     5.3072     1.8671 C.3     
  26 N26            7.4132     5.9767     3.0913 N.3     
  27 C27            8.4157     5.8646     4.1609 C.3     
  28 C28            7.9239     6.6247     5.3955 C.3     
  29 O29            6.6502     6.1084     5.7910 O.3     
  30 C30            5.6497     6.2023     4.7733 C.3     
  31 C31            6.1184     5.4379     3.5324 C.3     
  32 H32            2.1429     4.0341     0.0025 H       
  33 H33            5.5475     1.4369    -0.0447 H       
  34 H34            4.0757    -0.5079    -0.0400 H       
  35 H35            7.2029     7.1057    -0.0264 H       
  36 H36            5.3568     6.9974    -1.6424 H       
  37 H37            2.6362    -1.8889     0.4814 H       
  38 H38            0.9194    -2.3587     0.4949 H       
  39 H39            2.0844    -1.4959    -2.1970 H       
  40 H40            0.1124    -3.7237    -1.2044 H       
  41 H41            0.4844    -3.3096    -2.9627 H       
  42 H42            6.0586     3.3332     1.6001 H       
  43 H43            8.2147     4.3011     2.1096 H       
  44 H44            8.6937     5.8745     1.4289 H       
  45 H45            8.5618     4.8146     4.4142 H       
  46 H46            9.3591     6.2925     3.8218 H       
  47 H47            8.6372     6.4968     6.2097 H       
  48 H48            7.8291     7.6840     5.1569 H       
  49 H49            4.7183     5.7689     5.1375 H       
  50 H50            5.4888     7.2493     4.5166 H       
  51 H51            5.3850     5.5544     2.7346 H       
  52 H52            6.2278     4.3810     3.7757 H       
@<TRIPOS>BOND
   1    1    2 1
   2    1    5 1
   3    2    3 am
   4    2   10 2
   5    3    4 1
   6    3   16 1
   7    4    5 ar
   8    4    9 ar
   9    5    6 ar
  10    6    7 ar
  11    6   32 1
  12    7    8 ar
  13    7   11 1
  14    8    9 ar
  15    8   33 1
  16    9   34 1
  17   11   22 ar
  18   11   15 ar
  19   12   13 ar
  20   12   25 1
  21   12   22 ar
  22   13   14 ar
  23   13   35 1
  24   14   15 ar
  25   14   36 1
  26   15   23 1
  27   16   17 1
  28   16   37 1
  29   16   38 1
  30   17   18 1
  31   17   19 1
  32   17   39 1
  33   18   19 1
  34   18   20 1
  35   18   21 1
  36   19   40 1
  37   19   41 1
  38   22   42 1
  39   23   24 3
  40   25   26 1
  41   25   43 1
  42   25   44 1
  43   26   27 1
  44   26   31 1
  45   27   28 1
  46   27   45 1
  47   27   46 1
  48   28   29 1
  49   28   47 1
  50   28   48 1
  51   29   30 1
  52   30   31 1
  53   30   49 1
  54   30   50 1
  55   31   51 1
  56   31   52 1

#	End of record

