#	Name: ASD01209035
#	Creating user name:	WinNT
#	Creation time:	15. 06. 2019 19:10

#	Modifying user name:	WinNT
#	Modification time:	15. 06. 2019 19:10

#	Program:	/corina/corina34_cracker 3.40 0067  02.08.2006

@<TRIPOS>MOLECULE
ASD01209035
  59   63    0    0    0
SMALL
NO_CHARGES


@<TRIPOS>ATOM
   1 S1            -0.4055     0.7848     0.5716 S.o2    
   2 C2            -3.6052    -0.9174    -5.3728 C.3     
   3 C3            -4.9499    -0.4415    -4.8193 C.3     
   4 C4            -4.7633     0.9020    -4.1114 C.3     
   5 C5            -6.1062     1.4343    -3.6820 C.2     
   6 O6            -6.3662     1.5437    -2.5024 O.2     
   7 N7            -3.9112     0.7193    -2.9339 N.pl3   
   8 C8            -2.7084     1.3400    -2.7188 C.ar    
   9 C9            -2.2327     0.8830    -1.4747 C.ar    
  10 C10           -3.2359    -0.0494    -0.9700 C.2     
  11 N11           -4.1975    -0.1119    -1.8460 N.2     
  12 N12           -7.0182     1.7888    -4.6088 N.am    
  13 C13           -1.9515     2.2540    -3.4478 C.ar    
  14 C14           -0.7490     2.7006    -2.9445 C.ar    
  15 C15           -0.2828     2.2459    -1.7142 C.ar    
  16 C16           -1.0084     1.3508    -0.9842 C.ar    
  17 C17           -8.2261     2.3797    -4.2133 C.2     
  18 C18           -1.6041     1.4158     1.7782 C.3     
  19 C19           -1.2995     1.1909     3.2606 C.3     
  20 C20           -1.1703     2.5907     2.6569 C.3     
  21 O21           -0.4846    -0.6313     0.4840 O.2     
  22 O22            0.8460     1.4407     0.7222 O.2     
  23 C23           -3.7599    -2.3263    -5.9537 C.3     
  24 C24           -2.4305    -2.7625    -6.5750 C.3     
  25 O25           -2.0425    -1.8201    -7.5767 O.3     
  26 C26           -1.8370    -0.4950    -7.0829 C.3     
  27 C27           -3.1426     0.0323    -6.4820 C.3     
  28 F28           -0.0150     3.5868    -3.6523 F       
  29 N29           -9.1920     2.7683    -5.0119 N.2     
  30 N30          -10.2196     3.3048    -4.2257 N.pl3   
  31 C31           -9.8412     3.2263    -2.9325 C.2     
  32 C32           -8.6166     2.6537    -2.8927 C.2     
  33 C33          -11.4837     3.8557    -4.7206 C.3     
  34 H34           -2.8660    -0.9324    -4.5719 H       
  35 H35           -5.6593    -0.3251    -5.6386 H       
  36 H36           -5.3313    -1.1760    -4.1100 H       
  37 H37           -4.2931     1.6100    -4.7939 H       
  38 H38           -3.1905    -0.5884    -0.0353 H       
  39 H39           -6.8387     1.6351    -5.5496 H       
  40 H40           -2.3058     2.6115    -4.4034 H       
  41 H41            0.6619     2.6054    -1.3340 H       
  42 H42           -2.6483     1.3778     1.4676 H       
  43 H43           -2.1432     1.0053     3.9253 H       
  44 H44           -0.3788     0.6637     3.5109 H       
  45 H45           -0.1646     2.9846     2.5099 H       
  46 H46           -1.9290     3.3262     2.9244 H       
  47 H47           -4.0355    -3.0197    -5.1591 H       
  48 H48           -4.5356    -2.3214    -6.7194 H       
  49 H49           -1.6644    -2.8062    -5.8008 H       
  50 H50           -2.5466    -3.7472    -7.0277 H       
  51 H51           -1.0632    -0.5090    -6.3153 H       
  52 H52           -1.5255     0.1538    -7.9015 H       
  53 H53           -3.9058     0.0848    -7.2584 H       
  54 H54           -2.9767     1.0257    -6.0652 H       
  55 H55          -10.4162     3.5576    -2.0805 H       
  56 H56           -8.0386     2.4499    -2.0035 H       
  57 H57          -12.2296     3.0626    -4.7735 H       
  58 H58          -11.8302     4.6358    -4.0427 H       
  59 H59          -11.3318     4.2784    -5.7137 H       
@<TRIPOS>BOND
   1    1   21 2
   2    1   22 2
   3    1   16 1
   4    1   18 1
   5    2    3 1
   6    2   23 1
   7    2   27 1
   8    2   34 1
   9    3    4 1
  10    3   35 1
  11    3   36 1
  12    4    7 1
  13    4    5 1
  14    4   37 1
  15    5    6 2
  16    5   12 am
  17    7    8 1
  18    7   11 1
  19    8    9 ar
  20    8   13 ar
  21    9   10 1
  22    9   16 ar
  23   10   11 2
  24   10   38 1
  25   12   17 1
  26   12   39 1
  27   13   14 ar
  28   13   40 1
  29   14   15 ar
  30   14   28 1
  31   15   16 ar
  32   15   41 1
  33   17   29 2
  34   17   32 1
  35   18   19 1
  36   18   20 1
  37   18   42 1
  38   19   20 1
  39   19   43 1
  40   19   44 1
  41   20   45 1
  42   20   46 1
  43   23   24 1
  44   23   47 1
  45   23   48 1
  46   24   25 1
  47   24   49 1
  48   24   50 1
  49   25   26 1
  50   26   27 1
  51   26   51 1
  52   26   52 1
  53   27   53 1
  54   27   54 1
  55   29   30 1
  56   30   31 1
  57   30   33 1
  58   31   32 2
  59   31   55 1
  60   32   56 1
  61   33   57 1
  62   33   58 1
  63   33   59 1

#	End of record

