#	Name: ASD01913625
#	Creating user name:	WinNT
#	Creation time:	15. 06. 2019 20:01

#	Modifying user name:	WinNT
#	Modification time:	15. 06. 2019 20:01

#	Program:	/corina/corina34_cracker 3.40 0067  02.08.2006

@<TRIPOS>MOLECULE
ASD01913625
  39   41    0    0    0
SMALL
NO_CHARGES


@<TRIPOS>ATOM
   1 C1            -0.0779     1.5133    -0.0057 C.ar    
   2 C2            -0.0767     0.1311     0.0079 C.ar    
   3 C3             1.1211    -0.5591     0.0132 C.ar    
   4 C4             2.3176     0.1331     0.0044 C.ar    
   5 C5             2.3164     1.5154    -0.0101 C.ar    
   6 C6             1.1187     2.2055    -0.0140 C.ar    
   7 C7             3.6209     2.2699    -0.0192 C.3     
   8 O8             4.0320     2.4943    -1.3692 O.3     
   9 C9             5.1946     3.1650    -1.5549 C.ar    
  10 N10            5.8862     3.5756    -0.5030 N.ar    
  11 C11            7.0209     4.2309    -0.6314 C.ar    
  12 C12            7.5374     4.5170    -1.8957 C.ar    
  13 C13            6.8291     4.0958    -3.0311 C.ar    
  14 C14            5.6476     3.4075    -2.8482 C.ar    
  15 C15            8.8095     5.2521    -2.0364 C.2     
  16 N16            9.4815     5.6523    -0.9389 N.am    
  17 O17            9.2512     5.4966    -3.1427 O.2     
  18 C18           10.7297     6.2746    -1.0699 C.ar    
  19 C19           11.6516     6.2118    -0.0309 C.ar    
  20 C20           12.8830     6.8271    -0.1634 C.ar    
  21 C21           13.1968     7.5051    -1.3291 C.ar    
  22 C22           12.2794     7.5682    -2.3645 C.ar    
  23 C23           11.0504     6.9500    -2.2394 C.ar    
  24 F24           11.3446     5.5509     1.1067 F       
  25 F25           14.3999     8.1065    -1.4565 F       
  26 H26           -1.0136     2.0525    -0.0144 H       
  27 H27           -1.0115    -0.4097     0.0148 H       
  28 H28            1.1220    -1.6390     0.0246 H       
  29 H29            3.2534    -0.4061     0.0093 H       
  30 H30            1.1178     3.2854    -0.0257 H       
  31 H31            3.4902     3.2276     0.4847 H       
  32 H32            4.3815     1.6870     0.5002 H       
  33 H33            7.5569     4.5502     0.2501 H       
  34 H34            7.2018     4.3015    -4.0237 H       
  35 H35            5.0762     3.0678    -3.6995 H       
  36 H36            9.1008     5.5096    -0.0582 H       
  37 H37           13.6000     6.7791     0.6429 H       
  38 H38           12.5267     8.0978    -3.2727 H       
  39 H39           10.3359     6.9997    -3.0477 H       
@<TRIPOS>BOND
   1    1    2 ar
   2    1    6 ar
   3    1   26 1
   4    2    3 ar
   5    2   27 1
   6    3    4 ar
   7    3   28 1
   8    4    5 ar
   9    4   29 1
  10    5    6 ar
  11    5    7 1
  12    6   30 1
  13    7    8 1
  14    7   31 1
  15    7   32 1
  16    8    9 1
  17    9   10 ar
  18    9   14 ar
  19   10   11 ar
  20   11   12 ar
  21   11   33 1
  22   12   13 ar
  23   12   15 1
  24   13   14 ar
  25   13   34 1
  26   14   35 1
  27   15   16 am
  28   15   17 2
  29   16   18 1
  30   16   36 1
  31   18   19 ar
  32   18   23 ar
  33   19   20 ar
  34   19   24 1
  35   20   21 ar
  36   20   37 1
  37   21   22 ar
  38   21   25 1
  39   22   23 ar
  40   22   38 1
  41   23   39 1

#	End of record

