#	Name: ASD01914798
#	Creating user name:	WinNT
#	Creation time:	15. 06. 2019 20:04

#	Modifying user name:	WinNT
#	Modification time:	15. 06. 2019 20:04

#	Program:	/corina/corina34_cracker 3.40 0067  02.08.2006

@<TRIPOS>MOLECULE
ASD01914798
  32   32    0    0    0
SMALL
NO_CHARGES


@<TRIPOS>ATOM
   1 C1            -0.0011     1.4641     0.1164 C.2     
   2 C2            -0.0906     0.0135    -0.1019 C.2     
   3 C3            -1.4269    -0.6790    -0.0249 C.3     
   4 C4            -1.7361    -1.0304     1.4317 C.3     
   5 C5            -3.0927    -1.7335     1.5098 C.3     
   6 C6            -3.4019    -2.0848     2.9665 C.3     
   7 C7            -4.7586    -2.7879     3.0446 C.3     
   8 O8             0.5903     1.8977     1.0867 O.2     
   9 C9            -0.6438     3.7697    -0.5948 C.ar    
  10 C10           -0.6245     2.3964    -0.8467 C.ar    
  11 C11           -1.2055     1.9173    -2.0275 C.ar    
  12 C12           -1.7754     2.8317    -2.8957 C.ar    
  13 C13           -1.7534     4.1767    -2.5730 C.ar    
  14 N14           -1.1987     4.5998    -1.4529 N.ar    
  15 C15            1.0093    -0.6892    -0.3677 C.2     
  16 H16           -2.2019    -0.0172    -0.4114 H       
  17 H17           -1.3980    -1.5915    -0.6205 H       
  18 H18           -0.9610    -1.6923     1.8182 H       
  19 H19           -1.7649    -0.1180     2.0273 H       
  20 H20           -3.8677    -1.0716     1.1233 H       
  21 H21           -3.0639    -2.6459     0.9142 H       
  22 H22           -2.6269    -2.7467     3.3530 H       
  23 H23           -3.4307    -1.1724     3.5621 H       
  24 H24           -4.9789    -3.0382     4.0823 H       
  25 H25           -5.5336    -2.1260     2.6581 H       
  26 H26           -4.7298    -3.7003     2.4490 H       
  27 H27           -0.2037     4.1537     0.3136 H       
  28 H28           -1.2083     0.8615    -2.2547 H       
  29 H29           -2.2323     2.4988    -3.8160 H       
  30 H30           -2.1972     4.8924    -3.2492 H       
  31 H31            0.9435    -1.7552    -0.5281 H       
  32 H32            1.9670    -0.1929    -0.4228 H       
@<TRIPOS>BOND
   1    1    2 1
   2    1    8 2
   3    1   10 1
   4    2    3 1
   5    2   15 2
   6    3    4 1
   7    3   16 1
   8    3   17 1
   9    4    5 1
  10    4   18 1
  11    4   19 1
  12    5    6 1
  13    5   20 1
  14    5   21 1
  15    6    7 1
  16    6   22 1
  17    6   23 1
  18    7   24 1
  19    7   25 1
  20    7   26 1
  21    9   10 ar
  22    9   14 ar
  23    9   27 1
  24   10   11 ar
  25   11   12 ar
  26   11   28 1
  27   12   13 ar
  28   12   29 1
  29   13   14 ar
  30   13   30 1
  31   15   31 1
  32   15   32 1

#	End of record

