#	Name: ASD01810624
#	Creating user name:	WinNT
#	Creation time:	15. 06. 2019 19:25

#	Modifying user name:	WinNT
#	Modification time:	15. 06. 2019 19:25

#	Program:	/corina/corina34_cracker 3.40 0067  02.08.2006

@<TRIPOS>MOLECULE
ASD01810624
  60   63    0    0    0
SMALL
NO_CHARGES


@<TRIPOS>ATOM
   1 N1             0.1043     1.3724    -0.4210 N.am    
   2 C2            -0.0518     0.0902    -0.0361 C.2     
   3 O3             0.8894    -0.5242     0.4274 O.2     
   4 N4            -1.2512    -0.5108    -0.1650 N.am    
   5 O5            -2.7621    -3.0018     1.9173 O.3     
   6 C6            -1.7618    -1.9892     1.7567 C.3     
   7 C7            -1.4209    -1.9045     0.2534 C.3     
   8 C8            -2.6802    -2.5301    -0.4059 C.3     
   9 C9            -3.0620    -3.6011     0.6467 C.3     
  10 C10            1.3237     2.0247    -0.2044 C.ar    
  11 C11            1.3566     3.4068    -0.0614 C.ar    
  12 C12            2.5581     4.0556     0.1522 C.ar    
  13 C13            3.7333     3.3355     0.2250 C.ar    
  14 C14            3.7108     1.9471     0.0831 C.ar    
  15 C15            2.4973     1.2918    -0.1269 C.ar    
  16 C16            0.0781     4.2006    -0.1400 C.3     
  17 F17            0.3617     5.5597     0.0318 F       
  18 F18           -0.5175     4.0028    -1.3903 F       
  19 F19           -0.7970     3.7761     0.8657 F       
  20 C20            4.9683     1.1731     0.1601 C.2     
  21 O21            5.0175     0.1586     0.8277 O.2     
  22 N22            6.0599     1.5925    -0.5100 N.am    
  23 C23            7.2881     0.7863    -0.5195 C.3     
  24 C24            7.7111     0.5492    -1.9726 C.3     
  25 C25            7.8375     1.8956    -2.6891 C.3     
  26 C26            6.4810     2.6041    -2.6903 C.3     
  27 C27            6.0422     2.8618    -1.2499 C.3     
  28 F28            8.7778     2.6905    -2.0249 F       
  29 C29            8.2865     1.6682    -4.1096 C.ar    
  30 C30            8.7676     2.7281    -4.8577 C.ar    
  31 C31            9.1803     2.5270    -6.1585 C.ar    
  32 C32            9.1120     1.2503    -6.7198 C.ar    
  33 C33            8.6258     0.1852    -5.9589 C.ar    
  34 C34            8.2210     0.3995    -4.6577 C.ar    
  35 C35            9.5382     1.0344    -8.0697 C.1     
  36 N36            9.8763     0.8630    -9.1407 N.1     
  37 H37           -0.6271     1.8419    -0.8518 H       
  38 H38           -2.0021    -0.0206    -0.5348 H       
  39 H39           -2.1474    -1.0304     2.1030 H       
  40 H40           -0.8702    -2.2571     2.3236 H       
  41 H41           -0.5290    -2.4878     0.0244 H       
  42 H42           -3.4728    -1.7905    -0.5192 H       
  43 H43           -2.4349    -2.9901    -1.3632 H       
  44 H44           -2.4656    -4.5021     0.5032 H       
  45 H45           -4.1245    -3.8352     0.5801 H       
  46 H46            2.5775     5.1299     0.2623 H       
  47 H47            4.6703     3.8462     0.3913 H       
  48 H48            2.4731     0.2173    -0.2330 H       
  49 H49            8.0788     1.3188     0.0090 H       
  50 H50            7.1007    -0.1708    -0.0326 H       
  51 H51            8.6719     0.0348    -1.9925 H       
  52 H52            6.9606    -0.0612    -2.4750 H       
  53 H53            6.5662     3.5523    -3.2211 H       
  54 H54            5.7421     1.9743    -3.1859 H       
  55 H55            5.0331     3.2737    -1.2449 H       
  56 H56            6.7293     3.5670    -0.7822 H       
  57 H57            8.8199     3.7150    -4.4223 H       
  58 H58            9.5550     3.3553    -6.7416 H       
  59 H59            8.5703    -0.8048    -6.3870 H       
  60 H60            7.8486    -0.4242    -4.0668 H       
@<TRIPOS>BOND
   1    1    2 am
   2    1   10 1
   3    1   37 1
   4    2    3 2
   5    2    4 am
   6    4    7 1
   7    4   38 1
   8    5    6 1
   9    5    9 1
  10    6    7 1
  11    6   39 1
  12    6   40 1
  13    7    8 1
  14    7   41 1
  15    8    9 1
  16    8   42 1
  17    8   43 1
  18    9   44 1
  19    9   45 1
  20   10   11 ar
  21   10   15 ar
  22   11   12 ar
  23   11   16 1
  24   12   13 ar
  25   12   46 1
  26   13   14 ar
  27   13   47 1
  28   14   15 ar
  29   14   20 1
  30   15   48 1
  31   16   17 1
  32   16   18 1
  33   16   19 1
  34   20   21 2
  35   20   22 am
  36   22   23 1
  37   22   27 1
  38   23   24 1
  39   23   49 1
  40   23   50 1
  41   24   25 1
  42   24   51 1
  43   24   52 1
  44   25   26 1
  45   25   28 1
  46   25   29 1
  47   26   27 1
  48   26   53 1
  49   26   54 1
  50   27   55 1
  51   27   56 1
  52   29   30 ar
  53   29   34 ar
  54   30   31 ar
  55   30   57 1
  56   31   32 ar
  57   31   58 1
  58   32   33 ar
  59   32   35 1
  60   33   34 ar
  61   33   59 1
  62   34   60 1
  63   35   36 3

#	End of record

