#	Name: ASD03540037
#	Creating user name:	WinNT
#	Creation time:	15. 06. 2019 20:42

#	Modifying user name:	WinNT
#	Modification time:	15. 06. 2019 20:42

#	Program:	/corina/corina34_cracker 3.40 0067  02.08.2006

@<TRIPOS>MOLECULE
ASD03540037
  55   57    0    0    0
SMALL
NO_CHARGES


@<TRIPOS>ATOM
   1 Na1            0.0000     0.0000     0.0000 Du      
   2 C2             9.5082    17.4960     5.5568 C.2     
   3 C3             9.5282    16.0208     5.5487 C.ar    
   4 C4            10.7457    15.3354     5.5334 C.ar    
   5 C5            10.7567    13.9563     5.5258 C.ar    
   6 C6             9.5658    13.2514     5.5334 C.ar    
   7 C7             8.3563    13.9236     5.5485 C.ar    
   8 C8             8.3299    15.3025     5.5620 C.ar    
   9 O9            10.5589    18.1218     5.5501 O.co2   
  10 O10            8.4410    18.0930     5.5651 O.co2   
  11 C11            9.5862    11.7446     5.5245 C.3     
  12 C12            8.4472    11.0109     7.5295 C.2     
  13 N13            8.3985    10.5492     8.8100 N.am    
  14 C14            9.5928    10.3297     9.4532 C.2     
  15 C15           10.7961    10.5663     8.8288 C.2     
  16 C16           10.7906    11.0410     7.5106 C.2     
  17 N17            9.6063    11.2484     6.9028 N.am    
  18 S18            9.1826     9.7434    11.0709 S.3     
  19 C19            7.2839    10.2729     9.5471 C.2     
  20 C20            7.4323     9.8232    10.8009 C.2     
  21 O21           11.8377    11.2627     6.9249 O.2     
  22 O22            7.4054    11.2089     6.9352 O.2     
  23 C23           12.0962    10.3202     9.5501 C.3     
  24 C24            6.3693     9.4708    11.7507 C.2     
  25 N25            6.6866     9.0306    12.9844 N.am    
  26 O26            5.2020     9.5763    11.4240 O.2     
  27 C27            5.6261     8.6790    13.9320 C.3     
  28 C28            6.2425     8.2194    15.2281 C.ar    
  29 C29            6.5133     9.1363    16.2269 C.ar    
  30 C30            7.0783     8.7175    17.4159 C.ar    
  31 C31            7.3742     7.3757    17.6073 C.ar    
  32 C32            7.1015     6.4577    16.6035 C.ar    
  33 C33            6.5312     6.8807    15.4185 C.ar    
  34 O34            7.9305     6.9613    18.7759 O.3     
  35 C35            8.2082     5.5653    18.9031 C.3     
  36 H36           11.6758    15.8842     5.5271 H       
  37 H37           11.6970    13.4251     5.5136 H       
  38 H38            7.4307    13.3670     5.5543 H       
  39 H39            7.3853    15.8257     5.5787 H       
  40 H40            8.6963    11.3721     5.0172 H       
  41 H41           10.4760    11.3964     5.0000 H       
  42 H42            6.2989    10.4142     9.1272 H       
  43 H43           12.4195     9.2939     9.3764 H       
  44 H44           12.8548    11.0082     9.1767 H       
  45 H45           11.9547    10.4807    10.6189 H       
  46 H46            7.6172     8.9465    13.2449 H       
  47 H47            5.0000     9.5519    14.1169 H       
  48 H48            5.0172     7.8770    13.5147 H       
  49 H49            6.2831    10.1809    16.0773 H       
  50 H50            7.2900     9.4342    18.1957 H       
  51 H51            7.3310     5.4126    16.7501 H       
  52 H52            6.3144     6.1658    14.6386 H       
  53 H53            7.2816     5.0000    18.8032 H       
  54 H54            8.9055     5.2610    18.1226 H       
  55 H55            8.6492     5.3702    19.8806 H       
@<TRIPOS>BOND
   1    2    3 1
   2    2    9 ar
   3    2   10 ar
   4    3    4 ar
   5    3    8 ar
   6    4    5 ar
   7    4   36 1
   8    5    6 ar
   9    5   37 1
  10    6    7 ar
  11    6   11 1
  12    7    8 ar
  13    7   38 1
  14    8   39 1
  15   11   17 1
  16   11   40 1
  17   11   41 1
  18   12   13 am
  19   12   17 am
  20   12   22 2
  21   13   14 1
  22   13   19 1
  23   14   15 2
  24   14   18 1
  25   15   16 1
  26   15   23 1
  27   16   17 am
  28   16   21 2
  29   18   20 1
  30   19   20 2
  31   19   42 1
  32   20   24 1
  33   23   43 1
  34   23   44 1
  35   23   45 1
  36   24   25 am
  37   24   26 2
  38   25   27 1
  39   25   46 1
  40   27   28 1
  41   27   47 1
  42   27   48 1
  43   28   29 ar
  44   28   33 ar
  45   29   30 ar
  46   29   49 1
  47   30   31 ar
  48   30   50 1
  49   31   32 ar
  50   31   34 1
  51   32   33 ar
  52   32   51 1
  53   33   52 1
  54   34   35 1
  55   35   53 1
  56   35   54 1
  57   35   55 1

#	End of record

