#	Name: ASD02508322
#	Creating user name:	WinNT
#	Creation time:	15. 06. 2019 20:24

#	Modifying user name:	WinNT
#	Modification time:	15. 06. 2019 20:24

#	Program:	/corina/corina34_cracker 3.40 0067  02.08.2006

@<TRIPOS>MOLECULE
ASD02508322
  42   43    0    0    0
SMALL
NO_CHARGES


@<TRIPOS>ATOM
   1 C1             1.2302     1.5187     0.3368 C.ar    
   2 C2             0.8508     0.3914     1.0547 C.ar    
   3 C3            -0.4967     0.0974     1.2189 C.ar    
   4 C4            -1.4548     0.9262     0.6683 C.ar    
   5 C5            -1.0738     2.0473    -0.0456 C.ar    
   6 C6             0.2671     2.3460    -0.2060 C.ar    
   7 S7            -2.2993     3.1017    -0.7462 S.o2    
   8 O8            -1.6722     3.7862    -1.8221 O.2     
   9 O9            -3.4676     2.3087    -0.9052 O.2     
  10 C10           -2.6882     4.3240     0.4619 C.ar    
  11 C11           -1.9807     5.5111     0.4966 C.ar    
  12 C12           -2.2858     6.4700     1.4444 C.ar    
  13 C13           -3.2986     6.2420     2.3572 C.ar    
  14 C14           -4.0066     5.0553     2.3219 C.ar    
  15 C15           -3.7044     4.0982     1.3713 C.ar    
  16 N16            1.8222    -0.4447     1.6097 N.am    
  17 C17            2.3335    -1.5835     0.8428 C.3     
  18 S18            2.3961    -0.1489     3.1347 S.o2    
  19 C19            1.2909    -1.0878     4.2243 C.3     
  20 O20            3.6984    -0.7175     3.1354 O.2     
  21 O21            2.2065     1.2478     3.3156 O.2     
  22 C22            2.6910     1.8416     0.1561 C.3     
  23 C23            3.0721    -1.0735    -0.3962 C.3     
  24 F24            2.8623     3.2299     0.1329 F       
  25 F25            3.4233     1.2991     1.2175 F       
  26 F26            3.1436     1.2957    -1.0499 F       
  27 H27           -0.7950    -0.7783     1.7761 H       
  28 H28           -2.5028     0.6980     0.7953 H       
  29 H29            0.5614     3.2226    -0.7642 H       
  30 H30           -1.1895     5.6893    -0.2166 H       
  31 H31           -1.7326     7.3972     1.4720 H       
  32 H32           -3.5365     6.9909     3.0981 H       
  33 H33           -4.7976     4.8770     3.0352 H       
  34 H34           -4.2576     3.1710     1.3437 H       
  35 H35            3.0195    -2.1605     1.4629 H       
  36 H36            1.5016    -2.2169     0.5348 H       
  37 H37            1.3416    -2.1462     3.9687 H       
  38 H38            1.5986    -0.9492     5.2608 H       
  39 H39            0.2683    -0.7322     4.0983 H       
  40 H40            3.7933    -0.3113    -0.1012 H       
  41 H41            3.5943    -1.9021    -0.8746 H       
  42 H42            2.3549    -0.6438    -1.0956 H       
@<TRIPOS>BOND
   1    1    2 ar
   2    1   22 1
   3    1    6 ar
   4    2    3 ar
   5    2   16 1
   6    3    4 ar
   7    3   27 1
   8    4    5 ar
   9    4   28 1
  10    5    6 ar
  11    5    7 1
  12    6   29 1
  13    7    8 2
  14    7    9 2
  15    7   10 1
  16   10   11 ar
  17   10   15 ar
  18   11   12 ar
  19   11   30 1
  20   12   13 ar
  21   12   31 1
  22   13   14 ar
  23   13   32 1
  24   14   15 ar
  25   14   33 1
  26   15   34 1
  27   16   17 1
  28   16   18 am
  29   17   23 1
  30   17   35 1
  31   17   36 1
  32   18   19 1
  33   18   20 2
  34   18   21 2
  35   19   37 1
  36   19   38 1
  37   19   39 1
  38   22   24 1
  39   22   25 1
  40   22   26 1
  41   23   40 1
  42   23   41 1
  43   23   42 1

#	End of record

