#	Name: ASD05430174
#	Creating user name:	WinNT
#	Creation time:	15. 06. 2019 20:59

#	Modifying user name:	WinNT
#	Modification time:	15. 06. 2019 20:59

#	Program:	/corina/corina34_cracker 3.40 0067  02.08.2006

@<TRIPOS>MOLECULE
ASD05430174
  63   69    0    0    0
SMALL
NO_CHARGES


@<TRIPOS>ATOM
   1 C1            -0.2832     1.1028     0.0220 C.ar    
   2 C2            -0.3641    -0.2885     0.0677 C.ar    
   3 C3            -1.6153    -0.8884     0.1393 C.ar    
   4 C4            -2.7379    -0.0738     0.1624 C.ar    
   5 C5            -2.5803     1.2973     0.1141 C.ar    
   6 N6            -1.3793     1.8409     0.0514 N.ar    
   7 C7            -3.9046     1.8421    -2.4620 C.3     
   8 C8            -4.4920     2.4650    -1.1893 C.3     
   9 C9            -3.7972     2.1858     0.1385 C.3     
  10 C10           -3.1480     2.9351    -3.2288 C.3     
  11 C11           -3.9909     4.1431    -3.6553 C.3     
  12 N12           -4.7640     4.6105    -2.5067 N.pl3   
  13 C13           -5.0956     3.8338    -1.4067 C.2     
  14 N14           -5.9579     4.4348    -0.6730 N.2     
  15 C15           -5.9711     6.4910    -3.5013 C.ar    
  16 C16           -7.2460     7.0219    -3.4385 C.ar    
  17 C17           -5.2891     6.4681    -4.7036 C.ar    
  18 C18           -5.8812     6.9764    -5.8442 C.ar    
  19 C19           -7.1580     7.5084    -5.7825 C.ar    
  20 C20           -7.8402     7.5304    -4.5778 C.ar    
  21 N21            0.8008    -1.0712     0.0414 N.pl3   
  22 F22           -7.7376     8.0059    -6.8968 F       
  23 C23           -5.1506     1.5405    -0.1717 C.3     
  24 C24            1.8253    -0.9640    -0.8434 C.2     
  25 C25            1.1216    -2.0840     0.9074 C.2     
  26 C26            2.3202    -2.5620     0.5218 C.2     
  27 N27            2.7260    -1.8613    -0.5473 N.2     
  28 C28            3.0768    -3.6865     1.1807 C.3     
  29 O29            0.9314     1.7043    -0.0476 O.3     
  30 C30            0.9465     3.1325    -0.0917 C.3     
  31 C31           -1.6909     3.1887    -2.8441 C.3     
  32 C32           -2.0242     2.4912    -4.1648 C.3     
  33 C33           -5.3217     5.9425    -2.2568 C.3     
  34 O34           -6.3083     5.6914    -1.2341 O.3     
  35 C35           -4.2391     6.8963    -1.7479 C.3     
  36 H36           -1.7116    -1.9635     0.1757 H       
  37 H37           -3.7254    -0.5076     0.2174 H       
  38 H38           -3.2181     1.0386    -2.1947 H       
  39 H39           -4.7089     1.4474    -3.0829 H       
  40 H40           -3.7786     2.9886     0.8756 H       
  41 H41           -3.3351     4.9413    -4.0031 H       
  42 H42           -4.6690     3.8503    -4.4569 H       
  43 H43           -7.7779     7.0389    -2.4987 H       
  44 H44           -4.2932     6.0532    -4.7515 H       
  45 H45           -5.3480     6.9591    -6.7832 H       
  46 H46           -8.8364     7.9447    -4.5286 H       
  47 H47           -6.0227     1.9185     0.3617 H       
  48 H48           -5.1605     0.4733    -0.3933 H       
  49 H49            1.8851    -0.2550    -1.6559 H       
  50 H50            0.5272    -2.4319     1.7393 H       
  51 H51            2.7912    -4.6337     0.7231 H       
  52 H52            4.1475    -3.5288     1.0515 H       
  53 H53            2.8388    -3.7104     2.2442 H       
  54 H54            0.3994     3.4747    -0.9701 H       
  55 H55            0.4746     3.5288     0.8074 H       
  56 H56            1.9770     3.4835    -0.1459 H       
  57 H57           -1.3283     4.2154    -2.8945 H       
  58 H58           -1.2678     2.5791    -2.0457 H       
  59 H59           -1.8203     1.4227    -4.2353 H       
  60 H60           -1.8809     3.0590    -5.0841 H       
  61 H61           -3.4487     6.9800    -2.4938 H       
  62 H62           -4.6754     7.8790    -1.5691 H       
  63 H63           -3.8218     6.5094    -0.8182 H       
@<TRIPOS>BOND
   1    1    2 ar
   2    1   29 1
   3    1    6 ar
   4    2    3 ar
   5    2   21 1
   6    3    4 ar
   7    3   36 1
   8    4    5 ar
   9    4   37 1
  10    5    6 ar
  11    5    9 1
  12    7    8 1
  13    7   10 1
  14    7   38 1
  15    7   39 1
  16    8    9 1
  17    8   23 1
  18    8   13 1
  19    9   23 1
  20    9   40 1
  21   10   11 1
  22   10   31 1
  23   10   32 1
  24   11   12 1
  25   11   41 1
  26   11   42 1
  27   12   13 1
  28   12   33 1
  29   13   14 2
  30   14   34 1
  31   15   16 ar
  32   15   17 ar
  33   15   33 1
  34   16   20 ar
  35   16   43 1
  36   17   18 ar
  37   17   44 1
  38   18   19 ar
  39   18   45 1
  40   19   20 ar
  41   19   22 1
  42   20   46 1
  43   21   24 1
  44   21   25 1
  45   23   47 1
  46   23   48 1
  47   24   27 2
  48   24   49 1
  49   25   26 2
  50   25   50 1
  51   26   27 1
  52   26   28 1
  53   28   51 1
  54   28   52 1
  55   28   53 1
  56   29   30 1
  57   30   54 1
  58   30   55 1
  59   30   56 1
  60   31   32 1
  61   31   57 1
  62   31   58 1
  63   32   59 1
  64   32   60 1
  65   33   34 1
  66   33   35 1
  67   35   61 1
  68   35   62 1
  69   35   63 1

#	End of record

