#	Name: ASD06600016
#	Creating user name:	WinNT
#	Creation time:	15. 06. 2019 21:06

#	Modifying user name:	WinNT
#	Modification time:	15. 06. 2019 21:06

#	Program:	/corina/corina34_cracker 3.40 0067  02.08.2006

@<TRIPOS>MOLECULE
ASD06600016
 265  268    0    0    0
SMALL
NO_CHARGES


@<TRIPOS>ATOM
   1 C1             0.4563     4.5685    -4.0263 C.2     
   2 O2             0.5773     3.3638    -4.0970 O.2     
   3 N3             2.8672     4.6266    -4.2972 N.am    
   4 C4             1.6714     5.4547    -4.1223 C.3     
   5 C5             1.5231     6.3956    -5.3196 C.3     
   6 C6             2.6781     7.3633    -5.3441 C.2     
   7 C7             3.5173     7.5680    -6.3773 C.2     
   8 N8             4.4117     8.5240    -5.9776 N.pl3   
   9 C9             4.0877     8.8705    -4.7133 C.2     
  10 N10            3.0469     8.1759    -4.3427 N.2     
  11 C11           -3.1654     5.0267    -4.2156 C.2     
  12 O12           -3.0570     6.1832    -4.5645 O.2     
  13 N13           -0.7654     5.1149    -3.8675 N.am    
  14 C14           -1.9473     4.2536    -3.7803 C.3     
  15 C15           -2.1307     3.7841    -2.3357 C.3     
  16 C16           -6.7882     4.5848    -4.0067 C.2     
  17 O17           -6.6848     3.6242    -3.2735 O.2     
  18 N18           -4.3754     4.4329    -4.2174 N.am    
  19 C19           -5.5595     5.1845    -4.6407 C.3     
  20 C20           -5.6878     5.1186    -6.1639 C.3     
  21 C21           -4.4404     5.7275    -6.8075 C.3     
  22 C22           -5.8267     3.6591    -6.6014 C.3     
  23 C23          -10.4028     4.8483    -4.4842 C.2     
  24 O24          -10.2774     5.4962    -5.5018 O.2     
  25 N25           -8.0018     5.1159    -4.2545 N.am    
  26 C26           -9.1962     4.5330    -3.6382 C.3     
  27 C27           -9.3868     5.1212    -2.2387 C.3     
  28 C28           -8.2385     4.7024    -1.3572 C.2     
  29 C29           -7.4329     5.5276    -0.6617 C.2     
  30 N30           -6.5319     4.7371    -0.0007 N.pl3   
  31 C31           -6.8185     3.4555    -0.3154 C.2     
  32 N32           -7.8434     3.4422    -1.1231 N.2     
  33 C33          -14.0316     4.6892    -4.0728 C.2     
  34 O34          -13.9425     4.4382    -2.8896 O.2     
  35 N35          -11.6213     4.4103    -4.1101 N.am    
  36 C36          -12.7942     4.7169    -4.9325 C.3     
  37 C37          -12.9231     3.6750    -6.0455 C.3     
  38 C38          -17.6419     4.6171    -4.6418 C.2     
  39 O39          -17.5068     4.4431    -5.8344 O.2     
  40 N40          -15.2373     4.9435    -4.6188 N.am    
  41 C41          -16.4403     4.9166    -3.7831 C.3     
  42 C42          -16.6225     6.2773    -3.1077 C.3     
  43 C43          -15.4807     6.5223    -2.1552 C.ar    
  44 C44          -14.3346     7.1552    -2.5999 C.ar    
  45 C45          -13.2864     7.3805    -1.7288 C.ar    
  46 C46          -13.3845     6.9716    -0.4067 C.ar    
  47 O47          -12.3548     7.1925     0.4522 O.3     
  48 C48          -14.5356     6.3372     0.0371 C.ar    
  49 C49          -15.5832     6.1188    -0.8367 C.ar    
  50 C50          -21.2728     4.8045    -4.2614 C.2     
  51 O51          -21.1876     5.3850    -3.1999 O.2     
  52 N52          -18.8668     4.5425    -4.0844 N.am    
  53 C53          -20.0349     4.2513    -4.9191 C.3     
  54 C54          -20.1788     2.7370    -5.0846 C.3     
  55 C55          -18.9793     2.1928    -5.8630 C.3     
  56 C56          -19.1231     0.6786    -6.0285 C.3     
  57 N57          -17.9746     0.1576    -6.7739 N.pl3   
  58 C58          -17.8844    -1.1870    -7.0461 C.2     
  59 N59          -18.8208    -1.9982    -6.6410 N.2     
  60 N60          -16.8066    -1.6760    -7.7455 N.pl3   
  61 C61          -24.8836     4.4183    -4.6807 C.2     
  62 O62          -24.7508     3.5071    -5.4701 O.2     
  63 N63          -22.4745     4.6544    -4.8528 N.am    
  64 C64          -23.6779     5.1922    -4.2135 C.3     
  65 C65          -23.8404     6.6661    -4.5906 C.3     
  66 C66          -22.6953     7.4605    -4.0172 C.2     
  67 C67          -21.8623     8.2607    -4.7095 C.2     
  68 N68          -20.9760     8.7849    -3.8076 N.pl3   
  69 C69          -21.2985     8.2864    -2.5947 C.2     
  70 N70          -22.3308     7.4990    -2.7270 N.2     
  71 C71          -28.5115     4.8482    -4.5499 C.2     
  72 O72          -28.4181     5.9795    -4.1230 O.2     
  73 N73          -26.1095     4.7387    -4.2214 N.am    
  74 C74          -27.2817     3.9863    -4.6757 C.3     
  75 C75          -27.4476     2.7322    -3.8151 C.3     
  76 C76          -26.2560     1.7989    -4.0386 C.3     
  77 C77          -26.4220     0.5448    -3.1780 C.3     
  78 N78          -25.2810    -0.3488    -3.3920 N.pl3   
  79 C79          -25.2105    -1.5465    -2.7206 C.2     
  80 N80          -24.1953    -2.3415    -2.9111 N.2     
  81 N81          -26.2107    -1.9055    -1.8484 N.pl3   
  82 C82          -32.1275     4.3215    -4.6510 C.2     
  83 O83          -32.0078     3.1146    -4.6539 O.2     
  84 N84          -29.7151     4.3618    -4.9120 N.am    
  85 C85          -30.9107     5.1996    -4.7898 C.3     
  86 C86          -31.0515     6.0726    -6.0384 C.3     
  87 C87          -29.8774     7.0509    -6.1117 C.3     
  88 C88          -30.0182     7.9238    -7.3603 C.3     
  89 N89          -28.8940     8.8606    -7.4306 N.pl3   
  90 C90          -28.8057     9.7515    -8.4740 C.2     
  91 N91          -29.7223     9.7627    -9.4006 N.2     
  92 N92          -27.7507    10.6305    -8.5399 N.pl3   
  93 C93          -35.7486     4.7723    -4.8674 C.2     
  94 O94          -35.6388     5.9073    -5.2806 O.2     
  95 N95          -33.3487     4.8773    -4.5236 N.am    
  96 C96          -34.5315     4.0236    -4.3887 C.3     
  97 C97          -34.7160     3.6361    -2.9201 C.3     
  98 C98          -33.5382     2.7699    -2.4694 C.3     
  99 C99          -33.6579     2.4861    -0.9707 C.3     
 100 C100         -33.5518     1.4490    -3.2413 C.3     
 101 C101         -38.6866     5.7531    -4.1785 C.2     
 102 O102         -38.1420     5.7476    -3.0999 O.2     
 103 N103         -36.9592     4.1807    -4.8363 N.am    
 104 C104         -38.1424     4.9086    -5.3017 C.3     
 105 C105         -39.2105     3.9103    -5.7529 C.3     
 106 C106         -38.6970     3.1255    -6.9616 C.3     
 107 C107         -39.7023     2.0303    -7.3232 C.3     
 108 C108         -38.5262     4.0736    -8.1502 C.3     
 109 O109         -39.7763     6.5115    -4.3762 O.3     
 110 C110           4.0722     5.0937    -3.9148 C.2     
 111 O111           4.1666     6.1996    -3.4260 O.2     
 112 C112          22.6243     3.5068    -1.7957 C.3     
 113 C113          21.3754     4.3716    -1.6130 C.3     
 114 C114          20.1497     3.6118    -2.1241 C.3     
 115 C115          18.9009     4.4766    -1.9415 C.3     
 116 C116          17.6752     3.7168    -2.4525 C.3     
 117 C117          16.4263     4.5817    -2.2699 C.3     
 118 C118          15.2006     3.8218    -2.7810 C.3     
 119 C119          13.9517     4.6867    -2.5983 C.3     
 120 C120          12.7260     3.9269    -3.1094 C.3     
 121 C121          11.4772     4.7917    -2.9268 C.3     
 122 C122          10.2514     4.0319    -3.4378 C.3     
 123 C123           9.0026     4.8967    -3.2552 C.3     
 124 C124           7.7769     4.1369    -3.7663 C.3     
 125 C125           6.5280     5.0017    -3.5836 C.3     
 126 C126           5.3023     4.2419    -4.0947 C.3     
 127 H127           2.7917     3.7421    -4.6881 H       
 128 H128           1.7662     6.0414    -3.2086 H       
 129 H129           1.5175     5.8132    -6.2409 H       
 130 H130           0.5877     6.9485    -5.2336 H       
 131 H131           3.4901     7.0727    -7.3366 H       
 132 H132           5.1419     8.8851    -6.5043 H       
 133 H133           4.6022     9.6040    -4.1101 H       
 134 H134          -0.8622     6.0784    -3.8109 H       
 135 H135          -1.8150     3.3882    -4.4296 H       
 136 H136          -2.2630     4.6495    -1.6864 H       
 137 H137          -3.0101     3.1433    -2.2708 H       
 138 H138          -1.2496     3.2249    -2.0208 H       
 139 H139          -4.4621     3.5080    -3.9384 H       
 140 H140          -5.4605     6.2242    -4.3290 H       
 141 H141          -6.5689     5.6778    -6.4788 H       
 142 H142          -3.5594     5.1683    -6.4926 H       
 143 H143          -4.5318     5.6806    -7.8926 H       
 144 H144          -4.3414     6.7673    -6.4958 H       
 145 H145          -6.7154     3.2254    -6.1428 H       
 146 H146          -5.9181     3.6123    -7.6865 H       
 147 H147          -4.9457     3.1000    -6.2865 H       
 148 H148          -8.0845     5.8842    -4.8409 H       
 149 H149          -9.0764     3.4521    -3.5648 H       
 150 H150          -9.4177     6.2089    -2.3029 H       
 151 H151         -10.3222     4.7555    -1.8152 H       
 152 H152          -7.4870     6.6058    -0.6317 H       
 153 H153          -5.8204     5.0408     0.5845 H       
 154 H154          -6.2896     2.5855     0.0449 H       
 155 H155         -11.7216     3.8921    -3.2963 H       
 156 H156         -12.6801     5.7072    -5.3734 H       
 157 H157         -13.7958     3.9030    -6.6574 H       
 158 H158         -12.0281     3.6949    -6.6673 H       
 159 H159         -13.0372     2.6846    -5.6047 H       
 160 H160         -15.3086     5.1443    -5.5651 H       
 161 H161         -16.3363     4.1439    -3.0214 H       
 162 H162         -16.6375     7.0602    -3.8659 H       
 163 H163         -17.5633     6.2866    -2.5572 H       
 164 H164         -14.2588     7.4734    -3.6291 H       
 165 H165         -12.3911     7.8743    -2.0768 H       
 166 H166         -12.4050     8.0390     0.9170 H       
 167 H167         -14.6142     6.0176     1.0657 H       
 168 H168         -16.4813     5.6289    -0.4906 H       
 169 H169         -18.9748     4.6816    -3.1305 H       
 170 H170         -19.9062     4.7131    -5.8980 H       
 171 H171         -20.2183     2.2663    -4.1023 H       
 172 H172         -21.0963     2.5167    -5.6303 H       
 173 H173         -18.9397     2.6636    -6.8454 H       
 174 H174         -18.0618     2.4132    -5.3174 H       
 175 H175         -19.1627     0.2079    -5.0462 H       
 176 H176         -20.0406     0.4583    -6.5742 H       
 177 H177         -17.2777     0.7612    -7.0754 H       
 178 H178         -18.7572    -2.9469    -6.8330 H       
 179 H179         -16.1097    -1.0724    -8.0470 H       
 180 H180         -16.7429    -2.6247    -7.9375 H       
 181 H181         -22.5426     4.1901    -5.7018 H       
 182 H182         -23.5854     5.1022    -3.1312 H       
 183 H183         -23.8437     6.7652    -5.6761 H       
 184 H184         -24.7810     7.0425    -4.1885 H       
 185 H185         -21.8883     8.4519    -5.7722 H       
 186 H186         -20.2516     9.3996    -4.0032 H       
 187 H187         -20.7891     8.5062    -1.6681 H       
 188 H188         -26.2158     5.4674    -3.5901 H       
 189 H189         -27.1460     3.6966    -5.7177 H       
 190 H190         -27.4943     3.0165    -2.7638 H       
 191 H191         -28.3681     2.2194    -4.0940 H       
 192 H192         -26.2094     1.5146    -5.0898 H       
 193 H193         -25.3355     2.3118    -3.7597 H       
 194 H194         -26.4686     0.8291    -2.1268 H       
 195 H195         -27.3425     0.0320    -3.4569 H       
 196 H196         -24.5753    -0.0955    -4.0075 H       
 197 H197         -24.1455    -3.1865    -2.4374 H       
 198 H198         -26.9661    -1.3138    -1.7067 H       
 199 H199         -26.1609    -2.7505    -1.3747 H       
 200 H200         -29.7898     3.4570    -5.2535 H       
 201 H201         -30.8197     5.8363    -3.9097 H       
 202 H202         -31.0531     5.4398    -6.9258 H       
 203 H203         -31.9866     6.6304    -5.9881 H       
 204 H204         -29.8757     7.6837    -5.2243 H       
 205 H205         -28.9423     6.4931    -6.1620 H       
 206 H206         -30.0198     7.2910    -8.2478 H       
 207 H207         -30.9533     8.4817    -7.3101 H       
 208 H208         -28.2119     8.8522    -6.7410 H       
 209 H209         -29.6600    10.3913   -10.1368 H       
 210 H210         -27.0686    10.6222    -7.8503 H       
 211 H211         -27.6884    11.2591    -9.2760 H       
 212 H212         -33.4444     5.8425    -4.5213 H       
 213 H213         -34.3999     3.1229    -4.9883 H       
 214 H214         -34.7587     4.5377    -2.3091 H       
 215 H215         -35.6439     3.0756    -2.8060 H       
 216 H216         -32.6040     3.2960    -2.6660 H       
 217 H217         -34.5921     1.9599    -0.7741 H       
 218 H218         -32.8188     1.8689    -0.6496 H       
 219 H219         -33.6482     3.4271    -0.4208 H       
 220 H220         -33.4664     1.6512    -4.3090 H       
 221 H221         -32.7126     0.8318    -2.9202 H       
 222 H222         -34.4859     0.9228    -3.0447 H       
 223 H223         -37.0471     3.2730    -4.5059 H       
 224 H224         -37.8681     5.5504    -6.1389 H       
 225 H225         -39.4301     3.2202    -4.9382 H       
 226 H226         -40.1177     4.4484    -6.0278 H       
 227 H227         -37.7365     2.6711    -6.7184 H       
 228 H228         -40.6844     2.4762    -7.4804 H       
 229 H229         -39.3806     1.5287    -8.2359 H       
 230 H230         -39.7581     1.3057    -6.5108 H       
 231 H231         -37.8100     4.8538    -7.8927 H       
 232 H232         -38.1604     3.5145    -9.0114 H       
 233 H233         -39.4867     4.5280    -8.3934 H       
 234 H234         -40.0881     7.0361    -3.6261 H       
 235 H235          22.5103     2.5805    -1.2327 H       
 236 H236          22.7548     3.2757    -2.8529 H       
 237 H237          23.4975     4.0481    -1.4316 H       
 238 H238          21.2449     4.6027    -0.5558 H       
 239 H239          21.4895     5.2980    -2.1760 H       
 240 H240          20.2802     3.3807    -3.1813 H       
 241 H241          20.0357     2.6855    -1.5611 H       
 242 H242          18.7704     4.7077    -0.8843 H       
 243 H243          19.0149     5.4030    -2.5045 H       
 244 H244          17.8057     3.4858    -3.5097 H       
 245 H245          17.5611     2.7905    -1.8895 H       
 246 H246          16.2958     4.8127    -1.2127 H       
 247 H247          16.5403     5.5080    -2.8329 H       
 248 H248          15.3311     3.5908    -3.8382 H       
 249 H249          15.0865     2.8955    -2.2180 H       
 250 H250          13.8212     4.9177    -1.5411 H       
 251 H251          14.0658     5.6130    -3.1613 H       
 252 H252          12.8565     3.6958    -4.1666 H       
 253 H253          12.6120     3.0005    -2.5464 H       
 254 H254          11.3467     5.0228    -1.8696 H       
 255 H255          11.5912     5.7180    -3.4898 H       
 256 H256          10.3819     3.8008    -4.4950 H       
 257 H257          10.1374     3.1055    -2.8748 H       
 258 H258           8.8721     5.1278    -2.1980 H       
 259 H259           9.1166     5.8231    -3.8182 H       
 260 H260           7.9074     3.9058    -4.8235 H       
 261 H261           7.6628     3.2105    -3.2033 H       
 262 H262           6.3975     5.2328    -2.5264 H       
 263 H263           6.6421     5.9281    -4.1466 H       
 264 H264           5.1883     3.3156    -3.5317 H       
 265 H265           5.4328     4.0108    -5.1519 H       
@<TRIPOS>BOND
   1    1    2 2
   2    1    4 1
   3    1   13 am
   4    3  110 am
   5    3    4 1
   6    3  127 1
   7    4    5 1
   8    4  128 1
   9    5    6 1
  10    5  129 1
  11    5  130 1
  12    6    7 2
  13    6   10 1
  14    7    8 1
  15    7  131 1
  16    8    9 1
  17    8  132 1
  18    9   10 2
  19    9  133 1
  20   11   12 2
  21   11   14 1
  22   11   18 am
  23   13   14 1
  24   13  134 1
  25   14   15 1
  26   14  135 1
  27   15  136 1
  28   15  137 1
  29   15  138 1
  30   16   17 2
  31   16   19 1
  32   16   25 am
  33   18   19 1
  34   18  139 1
  35   19   20 1
  36   19  140 1
  37   20   21 1
  38   20   22 1
  39   20  141 1
  40   21  142 1
  41   21  143 1
  42   21  144 1
  43   22  145 1
  44   22  146 1
  45   22  147 1
  46   23   24 2
  47   23   26 1
  48   23   35 am
  49   25   26 1
  50   25  148 1
  51   26   27 1
  52   26  149 1
  53   27   28 1
  54   27  150 1
  55   27  151 1
  56   28   29 2
  57   28   32 1
  58   29   30 1
  59   29  152 1
  60   30   31 1
  61   30  153 1
  62   31   32 2
  63   31  154 1
  64   33   34 2
  65   33   36 1
  66   33   40 am
  67   35   36 1
  68   35  155 1
  69   36   37 1
  70   36  156 1
  71   37  157 1
  72   37  158 1
  73   37  159 1
  74   38   39 2
  75   38   41 1
  76   38   52 am
  77   40   41 1
  78   40  160 1
  79   41   42 1
  80   41  161 1
  81   42   43 1
  82   42  162 1
  83   42  163 1
  84   43   44 ar
  85   43   49 ar
  86   44   45 ar
  87   44  164 1
  88   45   46 ar
  89   45  165 1
  90   46   47 1
  91   46   48 ar
  92   47  166 1
  93   48   49 ar
  94   48  167 1
  95   49  168 1
  96   50   51 2
  97   50   53 1
  98   50   63 am
  99   52   53 1
 100   52  169 1
 101   53   54 1
 102   53  170 1
 103   54   55 1
 104   54  171 1
 105   54  172 1
 106   55   56 1
 107   55  173 1
 108   55  174 1
 109   56   57 1
 110   56  175 1
 111   56  176 1
 112   57   58 1
 113   57  177 1
 114   58   59 2
 115   58   60 1
 116   59  178 1
 117   60  179 1
 118   60  180 1
 119   61   62 2
 120   61   64 1
 121   61   73 am
 122   63   64 1
 123   63  181 1
 124   64   65 1
 125   64  182 1
 126   65   66 1
 127   65  183 1
 128   65  184 1
 129   66   67 2
 130   66   70 1
 131   67   68 1
 132   67  185 1
 133   68   69 1
 134   68  186 1
 135   69   70 2
 136   69  187 1
 137   71   72 2
 138   71   74 1
 139   71   84 am
 140   73   74 1
 141   73  188 1
 142   74   75 1
 143   74  189 1
 144   75   76 1
 145   75  190 1
 146   75  191 1
 147   76   77 1
 148   76  192 1
 149   76  193 1
 150   77   78 1
 151   77  194 1
 152   77  195 1
 153   78   79 1
 154   78  196 1
 155   79   80 2
 156   79   81 1
 157   80  197 1
 158   81  198 1
 159   81  199 1
 160   82   83 2
 161   82   85 1
 162   82   95 am
 163   84   85 1
 164   84  200 1
 165   85   86 1
 166   85  201 1
 167   86   87 1
 168   86  202 1
 169   86  203 1
 170   87   88 1
 171   87  204 1
 172   87  205 1
 173   88   89 1
 174   88  206 1
 175   88  207 1
 176   89   90 1
 177   89  208 1
 178   90   91 2
 179   90   92 1
 180   91  209 1
 181   92  210 1
 182   92  211 1
 183   93   94 2
 184   93   96 1
 185   93  103 am
 186   95   96 1
 187   95  212 1
 188   96   97 1
 189   96  213 1
 190   97   98 1
 191   97  214 1
 192   97  215 1
 193   98   99 1
 194   98  100 1
 195   98  216 1
 196   99  217 1
 197   99  218 1
 198   99  219 1
 199  100  220 1
 200  100  221 1
 201  100  222 1
 202  101  102 2
 203  101  104 1
 204  101  109 1
 205  103  104 1
 206  103  223 1
 207  104  105 1
 208  104  224 1
 209  105  106 1
 210  105  225 1
 211  105  226 1
 212  106  107 1
 213  106  108 1
 214  106  227 1
 215  107  228 1
 216  107  229 1
 217  107  230 1
 218  108  231 1
 219  108  232 1
 220  108  233 1
 221  109  234 1
 222  110  111 2
 223  110  126 1
 224  112  113 1
 225  112  235 1
 226  112  236 1
 227  112  237 1
 228  113  114 1
 229  113  238 1
 230  113  239 1
 231  114  115 1
 232  114  240 1
 233  114  241 1
 234  115  116 1
 235  115  242 1
 236  115  243 1
 237  116  117 1
 238  116  244 1
 239  116  245 1
 240  117  118 1
 241  117  246 1
 242  117  247 1
 243  118  119 1
 244  118  248 1
 245  118  249 1
 246  119  120 1
 247  119  250 1
 248  119  251 1
 249  120  121 1
 250  120  252 1
 251  120  253 1
 252  121  122 1
 253  121  254 1
 254  121  255 1
 255  122  123 1
 256  122  256 1
 257  122  257 1
 258  123  124 1
 259  123  258 1
 260  123  259 1
 261  124  125 1
 262  124  260 1
 263  124  261 1
 264  125  126 1
 265  125  262 1
 266  125  263 1
 267  126  264 1
 268  126  265 1

#	End of record

