#	Name: ASD00990056
#	Creating user name:	WinNT
#	Creation time:	15. 06. 2019 18:54

#	Modifying user name:	WinNT
#	Modification time:	15. 06. 2019 18:54

#	Program:	/corina/corina34_cracker 3.40 0067  02.08.2006

@<TRIPOS>MOLECULE
ASD00990056
  38   39    0    0    0
SMALL
NO_CHARGES


@<TRIPOS>ATOM
   1 C1            -0.0170     1.4001     0.0097 C.ar    
   2 C2             0.0021    -0.0041     0.0020 C.ar    
   3 C3            -1.1909    -0.7143     0.0100 C.ar    
   4 C4            -2.3924    -0.0390     0.0255 C.ar    
   5 C5            -2.4195     1.3501     0.0332 C.ar    
   6 C6            -1.2440     2.0724     0.0301 C.ar    
   7 N7             1.2765     1.8141    -0.0004 N.2     
   8 C8             2.0665     0.7807    -0.0135 C.2     
   9 N9             1.3352    -0.3667    -0.0127 N.pl3   
  10 C10            3.5721     0.8449    -0.0271 C.3     
  11 N11            4.0421     0.9943    -1.4066 N.am    
  12 C12            4.2243     2.3310    -1.9776 C.3     
  13 F13           -1.2775     3.4229     0.0377 F       
  14 F14           -3.6049     1.9980     0.0484 F       
  15 O15            4.7387     0.0392    -3.4181 O.3     
  16 C16            5.0040    -1.1805    -4.1598 C.3     
  17 C17            3.7226    -2.0116    -4.2498 C.3     
  18 C18            5.4823    -0.8265    -5.5694 C.3     
  19 C19            6.0868    -1.9888    -3.4419 C.3     
  20 C20            4.3068    -0.0981    -2.1503 C.2     
  21 O21            4.1557    -1.2068    -1.6766 O.2     
  22 H22           -1.1775    -1.7942     0.0037 H       
  23 H23           -3.3192    -0.5935     0.0313 H       
  24 H24            1.6848    -1.2715    -0.0211 H       
  25 H25            3.9047     1.6979     0.5645 H       
  26 H26            3.9788    -0.0727     0.3980 H       
  27 H27            5.2419     2.6720    -1.7870 H       
  28 H28            4.0491     2.2938    -3.0528 H       
  29 H29            3.5175     3.0219    -1.5180 H       
  30 H30            2.9513    -1.4359    -4.7613 H       
  31 H31            3.9218    -2.9273    -4.8066 H       
  32 H32            3.3819    -2.2639    -3.2456 H       
  33 H33            6.3952    -0.2344    -5.5053 H       
  34 H34            5.6815    -1.7421    -6.1262 H       
  35 H35            4.7110    -0.2507    -6.0808 H       
  36 H36            5.7460    -2.2410    -2.4377 H       
  37 H37            6.2859    -2.9044    -3.9987 H       
  38 H38            6.9997    -1.3967    -3.3778 H       
@<TRIPOS>BOND
   1    1    2 ar
   2    1    7 1
   3    1    6 ar
   4    2    3 ar
   5    2    9 1
   6    3    4 ar
   7    3   22 1
   8    4    5 ar
   9    4   23 1
  10    5    6 ar
  11    5   14 1
  12    6   13 1
  13    7    8 2
  14    8    9 1
  15    8   10 1
  16    9   24 1
  17   10   11 1
  18   10   25 1
  19   10   26 1
  20   11   12 1
  21   11   20 am
  22   12   27 1
  23   12   28 1
  24   12   29 1
  25   15   16 1
  26   15   20 1
  27   16   17 1
  28   16   18 1
  29   16   19 1
  30   17   30 1
  31   17   31 1
  32   17   32 1
  33   18   33 1
  34   18   34 1
  35   18   35 1
  36   19   36 1
  37   19   37 1
  38   19   38 1
  39   20   21 2

#	End of record

