#	Name: ASD01140678
#	Creating user name:	WinNT
#	Creation time:	15. 06. 2019 19:01

#	Modifying user name:	WinNT
#	Modification time:	15. 06. 2019 19:01

#	Program:	/corina/corina34_cracker 3.40 0067  02.08.2006

@<TRIPOS>MOLECULE
ASD01140678
  48   52    0    0    0
SMALL
NO_CHARGES


@<TRIPOS>ATOM
   1 C1             1.8122    -9.0616     3.9375 C.3     
   2 N2             0.6000    -8.4437     4.4806 N.am    
   3 C3            -0.4184    -9.2096     4.9292 C.2     
   4 O4            -0.3233   -10.4188     4.9141 O.2     
   5 C5            -1.6732    -8.5556     5.4491 C.3     
   6 O6            -1.3479    -7.2977     6.0462 O.3     
   7 C7            -0.5157    -6.4838     5.3431 C.ar    
   8 C8            -0.6480    -5.1092     5.4160 C.ar    
   9 C9             0.2113    -4.2929     4.6905 C.ar    
  10 N10            0.0800    -2.9017     4.7624 N.pl3   
  11 C11           -0.3419    -2.3022     5.9470 C.ar    
  12 C12           -0.5846    -0.9372     5.9718 C.ar    
  13 C13           -1.0045    -0.3550     7.1600 C.ar    
  14 N14           -1.3318     0.9195     7.5597 N.pl3   
  15 C15           -1.3159     2.1224     6.7238 C.3     
  16 C16           -2.6414     2.2359     5.9680 C.3     
  17 C17           -3.5303     3.4420     6.2778 C.3     
  18 C18           -2.7781     3.3676     4.9475 C.3     
  19 C19           -1.6746     0.8561     8.8776 C.2     
  20 N20           -1.5784    -0.3681     9.3067 N.2     
  21 C21           -1.1676    -1.1749     8.2951 C.ar    
  22 C22           -0.9015    -2.5384     8.1822 C.ar    
  23 C23           -1.0689    -3.4361     9.3810 C.3     
  24 N24           -0.5103    -3.0478     7.0325 N.ar    
  25 C25            1.2004    -4.8557     3.8946 C.ar    
  26 C26            1.3334    -6.2299     3.8211 C.ar    
  27 C27            0.4809    -7.0460     4.5481 C.ar    
  28 H28            2.5287    -9.2249     4.7426 H       
  29 H29            1.5585   -10.0168     3.4777 H       
  30 H30            2.2514    -8.4030     3.1883 H       
  31 H31           -2.3680    -8.3968     4.6244 H       
  32 H32           -2.1371    -9.2018     6.1943 H       
  33 H33           -1.4172    -4.6714     6.0348 H       
  34 H34            0.2827    -2.3548     3.9873 H       
  35 H35           -0.4492    -0.3382     5.0835 H       
  36 H36           -1.1808     3.0013     7.3542 H       
  37 H37           -0.4949     2.0578     6.0097 H       
  38 H38           -3.1355     1.2912     5.7411 H       
  39 H39           -4.6095     3.2910     6.2549 H       
  40 H40           -3.1708     4.1547     7.0200 H       
  41 H41           -1.9238     4.0314     4.8146 H       
  42 H42           -3.3625     3.1676     4.0494 H       
  43 H43           -1.9811     1.6998     9.4781 H       
  44 H44           -2.0880    -3.8217     9.4067 H       
  45 H45           -0.3674    -4.2676     9.3131 H       
  46 H46           -0.8722    -2.8682    10.2904 H       
  47 H47            1.8667    -4.2189     3.3318 H       
  48 H48            2.1030    -6.6664     3.2017 H       
@<TRIPOS>BOND
   1    1    2 1
   2    1   28 1
   3    1   29 1
   4    1   30 1
   5    2   27 1
   6    2    3 am
   7    3    4 2
   8    3    5 1
   9    5    6 1
  10    5   31 1
  11    5   32 1
  12    6    7 1
  13    7   27 ar
  14    7    8 ar
  15    8    9 ar
  16    8   33 1
  17    9   10 1
  18    9   25 ar
  19   10   11 1
  20   10   34 1
  21   11   24 ar
  22   11   12 ar
  23   12   13 ar
  24   12   35 1
  25   13   21 ar
  26   13   14 1
  27   14   15 1
  28   14   19 1
  29   15   16 1
  30   15   36 1
  31   15   37 1
  32   16   18 1
  33   16   17 1
  34   16   38 1
  35   17   18 1
  36   17   39 1
  37   17   40 1
  38   18   41 1
  39   18   42 1
  40   19   20 2
  41   19   43 1
  42   20   21 1
  43   21   22 ar
  44   22   23 1
  45   22   24 ar
  46   23   44 1
  47   23   45 1
  48   23   46 1
  49   25   26 ar
  50   25   47 1
  51   26   27 ar
  52   26   48 1

#	End of record

