#	Name: ASD00131006
#	Creating user name:	WinNT
#	Creation time:	15. 06. 2019 18:31

#	Modifying user name:	WinNT
#	Modification time:	15. 06. 2019 18:31

#	Program:	/corina/corina34_cracker 3.40 0067  02.08.2006

@<TRIPOS>MOLECULE
ASD00131006
  58   62    0    0    0
SMALL
NO_CHARGES


@<TRIPOS>ATOM
   1 N1             1.5116     1.3120    -1.2967 N.am    
   2 C2             1.5970    -0.0282    -1.2491 C.2     
   3 C3             1.3739    -0.7506     0.0025 C.2     
   4 C4             1.0690    -0.0274     1.1580 C.2     
   5 C5             0.9861     1.4337     1.0615 C.ar    
   6 C6             0.6834     2.2060     2.1889 C.ar    
   7 C7             0.6098     3.5655     2.0811 C.ar    
   8 C8             0.8331     4.1885     0.8610 C.ar    
   9 C9             1.1325     3.4479    -0.2616 C.ar    
  10 C10            1.2126     2.0603    -0.1767 C.ar    
  11 C11            1.4686    -2.2151     0.0440 C.2     
  12 O12            2.5587    -2.7551     0.0222 O.2     
  13 N13            0.3480    -2.9613     0.1063 N.am    
  14 O14            1.8635    -0.6497    -2.2623 O.2     
  15 C15            1.7480     1.9970    -2.5699 C.3     
  16 C16            3.1677     1.6967    -3.0547 C.3     
  17 C17            0.7392     1.5041    -3.6093 C.3     
  18 O18            0.8557    -0.6566     2.3324 O.3     
  19 C19            1.3350    -6.5128    -0.7683 C.3     
  20 N20            2.0187    -6.8187     0.4923 N.3     
  21 C21            1.3025    -6.2842     1.6551 C.3     
  22 C22            1.1881    -4.7621     1.5385 C.3     
  23 C23            0.4438    -4.4166     0.2448 C.3     
  24 C24           -0.9606    -5.0218     0.2895 C.3     
  25 C25           -0.8670    -6.5425     0.4279 C.3     
  26 C26           -0.0690    -7.1230    -0.7581 C.3     
  27 C27            1.2210    -4.9960    -0.9415 C.3     
  28 C28           -0.1020    -6.8894     1.7219 C.3     
  29 C29            2.2444    -8.2636     0.6316 C.3     
  30 H30            0.5081     1.7281     3.1414 H       
  31 H31            0.3757     4.1603     2.9517 H       
  32 H32            0.7712     5.2644     0.7908 H       
  33 H33            1.3041     3.9428    -1.2061 H       
  34 H34           -0.5220    -2.5348     0.0594 H       
  35 H35            1.6311     3.0719    -2.4314 H       
  36 H36            3.2846     0.6219    -3.1932 H       
  37 H37            3.3436     2.2064    -4.0020 H       
  38 H38            3.8864     2.0479    -2.3143 H       
  39 H39            0.8560     0.4293    -3.7478 H       
  40 H40           -0.2723     1.7181    -3.2639 H       
  41 H41            0.9151     2.0138    -4.5566 H       
  42 H42            0.8581    -1.6215     2.2678 H       
  43 H43            1.9047    -6.9280    -1.5996 H       
  44 H44            1.8473    -6.5381     2.5645 H       
  45 H45            0.6355    -4.3712     2.3929 H       
  46 H46            2.1851    -4.3220     1.5145 H       
  47 H47           -1.5041    -4.6133     1.1416 H       
  48 H48           -1.4913    -4.7737    -0.6297 H       
  49 H49           -1.8693    -6.9699     0.4549 H       
  50 H50           -0.5819    -6.8736    -1.6870 H       
  51 H51            0.0047    -8.2060    -0.6596 H       
  52 H52            2.2179    -4.5566    -0.9742 H       
  53 H53            0.6918    -4.7733    -1.8681 H       
  54 H54           -0.0283    -7.9716     1.8292 H       
  55 H55           -0.6388    -6.4725     2.5740 H       
  56 H56            2.8611    -8.6164    -0.1950 H       
  57 H57            2.7528    -8.4626     1.5750 H       
  58 H58            1.2866    -8.7839     0.6182 H       
@<TRIPOS>BOND
   1    1    2 am
   2    1   10 1
   3    1   15 1
   4    2    3 1
   5    2   14 2
   6    3    4 2
   7    3   11 1
   8    4    5 1
   9    4   18 1
  10    5    6 ar
  11    5   10 ar
  12    6    7 ar
  13    6   30 1
  14    7    8 ar
  15    7   31 1
  16    8    9 ar
  17    8   32 1
  18    9   10 ar
  19    9   33 1
  20   11   12 2
  21   11   13 am
  22   13   23 1
  23   13   34 1
  24   15   16 1
  25   15   17 1
  26   15   35 1
  27   16   36 1
  28   16   37 1
  29   16   38 1
  30   17   39 1
  31   17   40 1
  32   17   41 1
  33   18   42 1
  34   19   20 1
  35   19   26 1
  36   19   27 1
  37   19   43 1
  38   20   21 1
  39   20   29 1
  40   21   22 1
  41   21   28 1
  42   21   44 1
  43   22   23 1
  44   22   45 1
  45   22   46 1
  46   23   24 1
  47   23   27 1
  48   24   25 1
  49   24   47 1
  50   24   48 1
  51   25   26 1
  52   25   28 1
  53   25   49 1
  54   26   50 1
  55   26   51 1
  56   27   52 1
  57   27   53 1
  58   28   54 1
  59   28   55 1
  60   29   56 1
  61   29   57 1
  62   29   58 1

#	End of record

