#	Name: ASD09740372
#	Creating user name:	WinNT
#	Creation time:	15. 06. 2019 21:23

#	Modifying user name:	WinNT
#	Modification time:	15. 06. 2019 21:23

#	Program:	/corina/corina34_cracker 3.40 0067  02.08.2006

@<TRIPOS>MOLECULE
ASD09740372
  44   47    0    0    0
SMALL
NO_CHARGES


@<TRIPOS>ATOM
   1 C1            -0.0169     1.3919     0.0097 C.ar    
   2 C2             1.2511     2.1492     0.0017 C.2     
   3 C3             0.0021    -0.0041     0.0020 C.ar    
   4 C4            -1.1826    -0.7098     0.0100 C.ar    
   5 C5            -2.3951    -0.0357     0.0252 C.ar    
   6 C6            -2.4211     1.3579     0.0325 C.ar    
   7 C7            -1.2377     2.0708     0.0308 C.ar    
   8 N8             2.4700     1.6421    -0.0127 N.2     
   9 C9             3.3028     2.7045    -0.0149 C.2     
  10 N10            2.5601     3.7829    -0.0021 N.2     
  11 O11            1.3846     3.4849     0.0017 O.3     
  12 C12            4.7841     2.6588    -0.0293 C.ar    
  13 C13            5.4462     1.4380    -0.0422 C.ar    
  14 C14            6.8297     1.3920    -0.0552 C.ar    
  15 C15            7.5715     2.5558    -0.0555 C.ar    
  16 C16            6.9330     3.7880    -0.0432 C.ar    
  17 C17            5.5301     3.8522    -0.0358 C.ar    
  18 O18           -3.6113     2.0158     0.0465 O.3     
  19 C19           -3.5631     3.4440     0.0533 C.3     
  20 C20           -4.9875     4.0023     0.0689 C.3     
  21 O21           -3.5596    -0.7355     0.0326 O.3     
  22 C22           -3.4600    -2.1610     0.0240 C.3     
  23 C23           -4.8634    -2.7704     0.0342 C.3     
  24 N24            7.3736     5.0971    -0.0396 N.pl3   
  25 C25            6.2718     5.8938    -0.0254 C.2     
  26 N26            5.1932     5.1646    -0.0240 N.2     
  27 H27            0.9446    -0.5312    -0.0105 H       
  28 H28           -1.1665    -1.7897     0.0041 H       
  29 H29           -1.2563     3.1507     0.0365 H       
  30 H30            4.8784     0.5193    -0.0418 H       
  31 H31            7.3331     0.4366    -0.0647 H       
  32 H32            8.6504     2.5076    -0.0649 H       
  33 H33           -3.0294     3.7853     0.9403 H       
  34 H34           -3.0453     3.7943    -0.8396 H       
  35 H35           -5.5213     3.6609    -0.8181 H       
  36 H36           -5.5053     3.6519     0.9618 H       
  37 H37           -4.9508     5.0916     0.0741 H       
  38 H38           -2.9306    -2.4828    -0.8728 H       
  39 H39           -2.9136    -2.4924     0.9070 H       
  40 H40           -5.3927    -2.4486     0.9310 H       
  41 H41           -5.4098    -2.4391    -0.8489 H       
  42 H42           -4.7874    -3.8578     0.0276 H       
  43 H43            8.2973     5.3930    -0.0458 H       
  44 H44            6.2889     6.9737    -0.0194 H       
@<TRIPOS>BOND
   1    1    3 ar
   2    1    2 1
   3    1    7 ar
   4    2    8 2
   5    2   11 1
   6    3    4 ar
   7    3   27 1
   8    4    5 ar
   9    4   28 1
  10    5    6 ar
  11    5   21 1
  12    6    7 ar
  13    6   18 1
  14    7   29 1
  15    8    9 1
  16    9   10 2
  17    9   12 1
  18   10   11 1
  19   12   13 ar
  20   12   17 ar
  21   13   14 ar
  22   13   30 1
  23   14   15 ar
  24   14   31 1
  25   15   16 ar
  26   15   32 1
  27   16   17 ar
  28   16   24 1
  29   17   26 1
  30   18   19 1
  31   19   20 1
  32   19   33 1
  33   19   34 1
  34   20   35 1
  35   20   36 1
  36   20   37 1
  37   21   22 1
  38   22   23 1
  39   22   38 1
  40   22   39 1
  41   23   40 1
  42   23   41 1
  43   23   42 1
  44   24   25 1
  45   24   43 1
  46   25   26 2
  47   25   44 1

#	End of record

