#	Name: ASD01881441
#	Creating user name:	WinNT
#	Creation time:	15. 06. 2019 19:42

#	Modifying user name:	WinNT
#	Modification time:	15. 06. 2019 19:42

#	Program:	/corina/corina34_cracker 3.40 0067  02.08.2006

@<TRIPOS>MOLECULE
ASD01881441
  48   51    0    0    0
SMALL
NO_CHARGES


@<TRIPOS>ATOM
   1 Cl1            0.3519     8.5422     0.4560 Cl      
   2 C2            -0.0187     1.5258     0.0104 C.3     
   3 C3             1.1258    10.0908     4.2866 C.ar    
   4 C4             1.3143     9.0027     3.4606 C.ar    
   5 C5            -0.0097    10.1721     5.0829 C.ar    
   6 C6            -0.9606     9.1553     5.0493 C.ar    
   7 C7            -0.7763     8.0650     4.2245 C.ar    
   8 C8             0.3642     7.9824     3.4242 C.ar    
   9 C9             0.5648     6.8133     2.5372 C.2     
  10 C10            0.5747     6.9724     1.1630 C.2     
  11 C11            0.7548     5.5222     3.0876 C.2     
  12 C12            0.9365     4.4609     2.2798 C.2     
  13 N13            0.9421     4.6073     0.9221 N.pl3   
  14 C14            0.7674     5.8431     0.3476 C.2     
  15 C15            1.0994     3.7357    -0.1122 C.2     
  16 N16            1.0158     4.4224    -1.2224 N.2     
  17 N17            0.8206     5.6676    -0.9639 N.2     
  18 C18            1.3287     2.2506     0.0015 C.3     
  19 F19           -2.0638     9.2365     5.8249 F       
  20 N20           -0.1975    11.2752     5.9189 N.pl3   
  21 C21            0.8024    12.3453     5.9555 C.3     
  22 C22            0.5269    13.3396     4.8258 C.3     
  23 C23            0.7261    13.0688     7.3015 C.3     
  24 C24            0.0021    -0.0041     0.0020 C.3     
  25 C25           -0.3944     0.7486     1.2737 C.3     
  26 C26            1.1232    12.1052     8.4217 C.3     
  27 H27           -0.8227     2.0212    -0.5339 H       
  28 H28            1.8640    10.8785     4.3178 H       
  29 H29            2.1973     8.9409     2.8417 H       
  30 H30           -1.5135     7.2762     4.1982 H       
  31 H31            0.7539     5.3887     4.1593 H       
  32 H32            1.0804     3.4813     2.7110 H       
  33 H33            1.8633     2.0353     0.9266 H       
  34 H34            1.9198     1.9082    -0.8479 H       
  35 H35           -0.9901    11.3328     6.4752 H       
  36 H36            1.7969    11.9177     5.8287 H       
  37 H37           -0.4677    13.7672     4.9526 H       
  38 H38            1.2708    14.1358     4.8530 H       
  39 H39            0.5812    12.8242     3.8668 H       
  40 H40            1.4072    13.9197     7.2957 H       
  41 H41           -0.2924    13.4197     7.4682 H       
  42 H42           -0.7885    -0.5151    -0.5475 H       
  43 H43            0.9756    -0.4941    -0.0099 H       
  44 H44            0.3183     0.7538     2.0984 H       
  45 H45           -1.4458     0.7328     1.5608 H       
  46 H46            2.1416    11.7543     8.2550 H       
  47 H47            1.0689    12.6207     9.3806 H       
  48 H48            0.4421    11.2543     8.4274 H       
@<TRIPOS>BOND
   1    1   10 1
   2    2   24 1
   3    2   18 1
   4    2   25 1
   5    2   27 1
   6    3    4 ar
   7    3    5 ar
   8    3   28 1
   9    4    8 ar
  10    4   29 1
  11    5    6 ar
  12    5   20 1
  13    6    7 ar
  14    6   19 1
  15    7    8 ar
  16    7   30 1
  17    8    9 1
  18    9   10 2
  19    9   11 1
  20   10   14 1
  21   11   12 2
  22   11   31 1
  23   12   13 1
  24   12   32 1
  25   13   14 1
  26   13   15 1
  27   14   17 2
  28   15   16 2
  29   15   18 1
  30   16   17 1
  31   18   33 1
  32   18   34 1
  33   20   21 1
  34   20   35 1
  35   21   22 1
  36   21   23 1
  37   21   36 1
  38   22   37 1
  39   22   38 1
  40   22   39 1
  41   23   26 1
  42   23   40 1
  43   23   41 1
  44   24   25 1
  45   24   42 1
  46   24   43 1
  47   25   44 1
  48   25   45 1
  49   26   46 1
  50   26   47 1
  51   26   48 1

#	End of record

