#	Name: ASD00451002
#	Creating user name:	WinNT
#	Creation time:	15. 06. 2019 18:36

#	Modifying user name:	WinNT
#	Modification time:	15. 06. 2019 18:36

#	Program:	/corina/corina34_cracker 3.40 0067  02.08.2006

@<TRIPOS>MOLECULE
ASD00451002
  49   52    0    0    0
SMALL
NO_CHARGES


@<TRIPOS>ATOM
   1 C1            -0.1169     1.5353     0.0324 C.ar    
   2 C2            -0.1941     0.1518     0.0167 C.ar    
   3 N3             1.1344     2.1698    -0.0112 N.am    
   4 C4            -1.2848     2.2970     0.0859 C.ar    
   5 C5            -1.4265    -0.4737     0.0592 C.ar    
   6 C6             2.1894     1.5416    -0.5668 C.2     
   7 C7            -2.5194     1.6661     0.1231 C.ar    
   8 C8            -2.5892     0.2808     0.1172 C.ar    
   9 O9             2.0759     0.3980    -0.9643 O.2     
  10 N10            3.3703     2.1810    -0.6820 N.am    
  11 O11           -3.7991    -0.3382     0.1532 O.3     
  12 C12            4.4979     1.4909    -1.1424 C.ar    
  13 C13           -4.1900    -0.9062     1.3230 C.ar    
  14 C14            5.5263     2.1801    -1.7709 C.ar    
  15 C15            4.5923     0.1165    -0.9662 C.ar    
  16 C16           -5.4555    -1.4721     1.4564 C.ar    
  17 C17           -3.3344    -0.9444     2.4218 C.ar    
  18 C18            6.6379     1.4968    -2.2243 C.ar    
  19 C19            5.7057    -0.5618    -1.4214 C.ar    
  20 N20           -6.5409    -1.6162     0.5947 N.am    
  21 C21           -5.8221    -2.0472     2.6735 C.ar    
  22 C22           -3.7676    -1.5308     3.5939 C.ar    
  23 C23            6.7269     0.1267    -2.0527 C.ar    
  24 C24           -7.5239    -2.2516     1.2610 C.2     
  25 N25           -7.1190    -2.5198     2.5163 N.am    
  26 N26           -4.9747    -2.0551     3.6915 N.ar    
  27 Cl27           8.1252    -0.7290    -2.6237 Cl      
  28 O28           -8.6140    -2.5348     0.8002 O.2     
  29 H29            1.2398     3.0603     0.3585 H       
  30 H30            3.4389     3.1193    -0.4458 H       
  31 H31           -6.5816    -1.3115    -0.3253 H       
  32 H32           -7.6433    -2.9715     3.1960 H       
  33 S33           -1.1914     4.0564     0.1066 S.3     
  34 C34           -2.9335     4.5568     0.1776 C.3     
  35 C35            7.7543     2.2441    -2.9070 C.3     
  36 F36            7.4381     3.6057    -2.9630 F       
  37 F37            8.9408     2.0702    -2.1865 F       
  38 F38            7.9205     1.7501    -4.2053 F       
  39 H39            0.7092    -0.4384    -0.0292 H       
  40 H40           -1.4841    -1.5521     0.0468 H       
  41 H41           -3.4252     2.2528     0.1648 H       
  42 H42            5.4572     3.2494    -1.9054 H       
  43 H43            3.7958    -0.4212    -0.4734 H       
  44 H44           -2.3433    -0.5203     2.3571 H       
  45 H45            5.7797    -1.6305    -1.2843 H       
  46 H46           -3.1061    -1.5616     4.4470 H       
  47 H47           -3.3917     4.1509     1.0796 H       
  48 H48           -2.9987     5.6447     0.1950 H       
  49 H49           -3.4571     4.1754    -0.6990 H       
@<TRIPOS>BOND
   1    1    2 ar
   2    1    3 1
   3    1    4 ar
   4    2    5 ar
   5    2   39 1
   6    3   29 1
   7    3    6 am
   8    4   33 1
   9    4    7 ar
  10    5    8 ar
  11    5   40 1
  12    6    9 2
  13    6   10 am
  14    7    8 ar
  15    7   41 1
  16    8   11 1
  17   10   12 1
  18   10   30 1
  19   11   13 1
  20   12   14 ar
  21   12   15 ar
  22   13   16 ar
  23   13   17 ar
  24   14   18 ar
  25   14   42 1
  26   15   19 ar
  27   15   43 1
  28   16   20 1
  29   16   21 ar
  30   17   22 ar
  31   17   44 1
  32   18   23 ar
  33   18   35 1
  34   19   23 ar
  35   19   45 1
  36   20   31 1
  37   20   24 am
  38   21   26 ar
  39   21   25 1
  40   22   26 ar
  41   22   46 1
  42   23   27 1
  43   24   25 am
  44   24   28 2
  45   25   32 1
  46   33   34 1
  47   34   47 1
  48   34   48 1
  49   34   49 1
  50   35   36 1
  51   35   37 1
  52   35   38 1

#	End of record

