#	Name: ASD02508212
#	Creating user name:	WinNT
#	Creation time:	15. 06. 2019 20:24

#	Modifying user name:	WinNT
#	Modification time:	15. 06. 2019 20:24

#	Program:	/corina/corina34_cracker 3.40 0067  02.08.2006

@<TRIPOS>MOLECULE
ASD02508212
  39   41    0    0    0
SMALL
NO_CHARGES


@<TRIPOS>ATOM
   1 C1             0.2228     0.7534     0.0002 C.ar    
   2 C2             0.0427    -0.6250    -0.1110 C.ar    
   3 C3            -1.2382    -1.1545    -0.1033 C.ar    
   4 C4            -2.3299    -0.3167     0.0144 C.ar    
   5 C5            -2.1510     1.0534     0.1249 C.ar    
   6 C6            -0.8759     1.5895     0.1230 C.ar    
   7 S7            -3.9572    -0.9924     0.0234 S.o2    
   8 N8            -4.5930    -0.7193     1.5279 N.am    
   9 C9            -4.0136    -1.3163     2.6498 C.ar    
  10 N10            1.5984     0.9800    -0.0376 N.am    
  11 C11            2.2030    -0.2176    -0.1659 C.2     
  12 O12            1.2737    -1.1850    -0.2105 O.3     
  13 O13           -4.7217    -0.2097    -0.8834 O.2     
  14 O14           -3.8078    -2.4001    -0.0997 O.2     
  15 C15            2.2645     2.2821     0.0464 C.3     
  16 O16            3.4043    -0.3944    -0.2312 O.2     
  17 C17           -3.7613    -0.5611     3.7880 C.ar    
  18 C18           -3.6936    -2.6680     2.6319 C.ar    
  19 C19           -3.1208    -3.2551     3.7429 C.ar    
  20 C20           -2.8661    -2.4992     4.8725 C.ar    
  21 C21           -3.1882    -1.1546     4.8956 C.ar    
  22 C22           -2.9088    -0.3348     6.1288 C.3     
  23 C23           -2.7733    -4.7214     3.7244 C.3     
  24 F24           -3.2239     1.8663     0.2396 F       
  25 H25           -1.3825    -2.2213    -0.1895 H       
  26 H26           -0.7371     2.6571     0.2092 H       
  27 H27           -5.3678    -0.1447     1.6300 H       
  28 H28            2.4722     2.5173     1.0902 H       
  29 H29            3.2002     2.2482    -0.5116 H       
  30 H30            1.6166     3.0497    -0.3770 H       
  31 H31           -4.0126     0.4891     3.8067 H       
  32 H32           -3.8929    -3.2591     1.7503 H       
  33 H33           -2.4187    -2.9610     5.7403 H       
  34 H34           -1.9083     0.0927     6.0620 H       
  35 H35           -3.6424     0.4678     6.2055 H       
  36 H36           -2.9736    -0.9718     7.0109 H       
  37 H37           -1.7549    -4.8489     3.3575 H       
  38 H38           -2.8491    -5.1255     4.7339 H       
  39 H39           -3.4647    -5.2504     3.0685 H       
@<TRIPOS>BOND
   1    1    2 ar
   2    1   10 1
   3    1    6 ar
   4    2    3 ar
   5    2   12 1
   6    3    4 ar
   7    3   25 1
   8    4    5 ar
   9    4    7 1
  10    5    6 ar
  11    5   24 1
  12    6   26 1
  13    7    8 am
  14    7   13 2
  15    7   14 2
  16    8    9 1
  17    8   27 1
  18    9   17 ar
  19    9   18 ar
  20   10   11 am
  21   10   15 1
  22   11   12 1
  23   11   16 2
  24   15   28 1
  25   15   29 1
  26   15   30 1
  27   17   21 ar
  28   17   31 1
  29   18   19 ar
  30   18   32 1
  31   19   20 ar
  32   19   23 1
  33   20   21 ar
  34   20   33 1
  35   21   22 1
  36   22   34 1
  37   22   35 1
  38   22   36 1
  39   23   37 1
  40   23   38 1
  41   23   39 1

#	End of record

