#	Name: ASD01911075
#	Creating user name:	WinNT
#	Creation time:	15. 06. 2019 19:57

#	Modifying user name:	WinNT
#	Modification time:	15. 06. 2019 19:57

#	Program:	/corina/corina34_cracker 3.40 0067  02.08.2006

@<TRIPOS>MOLECULE
ASD01911075
  47   50    0    0    0
SMALL
NO_CHARGES


@<TRIPOS>ATOM
   1 C1             0.9930     1.1659     0.8068 C.ar    
   2 C2             0.5597    -0.0945     0.4319 C.ar    
   3 C3            -0.7763    -0.3104     0.1517 C.ar    
   4 C4            -1.6799     0.7316     0.2456 C.ar    
   5 C5            -1.2484     1.9906     0.6198 C.ar    
   6 C6             0.0861     2.2074     0.9061 C.ar    
   7 F7             2.2988     1.3781     1.0810 F       
   8 C8            -3.1364     0.4951    -0.0608 C.3     
   9 C9            -3.8557     0.0907     1.2002 C.2     
  10 N10           -4.4493     0.9185     2.0784 N.2     
  11 C11           -4.9441     0.1444     3.0142 C.2     
  12 O12           -4.6394    -1.1130     2.6795 O.3     
  13 N13           -4.0211    -1.1224     1.6359 N.2     
  14 C14           -5.7095     0.5881     4.2341 C.3     
  15 C15           -7.1060    -0.0377     4.2165 C.3     
  16 C16           -7.8956     0.4383     5.4380 C.3     
  17 C17           -7.1784    -0.0157     6.7133 C.3     
  18 N18           -5.7892     0.4606     6.6696 N.am    
  19 C19           -4.9675     0.1358     5.4957 C.3     
  20 C20           -5.2783     1.1818     7.6871 C.2     
  21 O21           -4.1082     1.5114     7.6712 O.2     
  22 C22           -6.1401     1.5718     8.8218 C.ar    
  23 C23           -6.9170     0.6120     9.4740 C.ar    
  24 C24           -7.7194     0.9813    10.5321 C.ar    
  25 C25           -7.7560     2.3031    10.9493 C.ar    
  26 C26           -6.9870     3.2602    10.3050 C.ar    
  27 C27           -6.1764     2.9006     9.2498 C.ar    
  28 F28           -8.5442     2.6598    11.9869 F       
  29 H29            1.2655    -0.9087     0.3581 H       
  30 H30           -1.1144    -1.2934    -0.1412 H       
  31 H31           -1.9552     2.8040     0.6925 H       
  32 H32            0.4229     3.1909     1.1989 H       
  33 H33           -3.5784     1.4108    -0.4534 H       
  34 H34           -3.2275    -0.2991    -0.8017 H       
  35 H35           -5.7976     1.6745     4.2331 H       
  36 H36           -7.6271     0.2629     3.3075 H       
  37 H37           -7.0176    -1.1238     4.2419 H       
  38 H38           -7.9631     1.5262     5.4263 H       
  39 H39           -8.8979     0.0108     5.4125 H       
  40 H40           -7.6814     0.4039     7.5845 H       
  41 H41           -7.1899    -1.1041     6.7712 H       
  42 H42           -4.7987    -0.9403     5.4543 H       
  43 H43           -4.0117     0.6554     5.5636 H       
  44 H44           -6.8894    -0.4178     9.1496 H       
  45 H45           -8.3209     0.2399    11.0369 H       
  46 H46           -7.0195     4.2885    10.6337 H       
  47 H47           -5.5775     3.6469     8.7489 H       
@<TRIPOS>BOND
   1    1    2 ar
   2    1    7 1
   3    1    6 ar
   4    2    3 ar
   5    2   29 1
   6    3    4 ar
   7    3   30 1
   8    4    5 ar
   9    4    8 1
  10    5    6 ar
  11    5   31 1
  12    6   32 1
  13    8    9 1
  14    8   33 1
  15    8   34 1
  16    9   10 1
  17    9   13 2
  18   10   11 2
  19   11   12 1
  20   11   14 1
  21   12   13 1
  22   14   15 1
  23   14   19 1
  24   14   35 1
  25   15   16 1
  26   15   36 1
  27   15   37 1
  28   16   17 1
  29   16   38 1
  30   16   39 1
  31   17   18 1
  32   17   40 1
  33   17   41 1
  34   18   19 1
  35   18   20 am
  36   19   42 1
  37   19   43 1
  38   20   21 2
  39   20   22 1
  40   22   23 ar
  41   22   27 ar
  42   23   24 ar
  43   23   44 1
  44   24   25 ar
  45   24   45 1
  46   25   26 ar
  47   25   28 1
  48   26   27 ar
  49   26   46 1
  50   27   47 1

#	End of record

