#	Name: ASD03090635
#	Creating user name:	WinNT
#	Creation time:	15. 06. 2019 20:29

#	Modifying user name:	WinNT
#	Modification time:	15. 06. 2019 20:29

#	Program:	/corina/corina34_cracker 3.40 0067  02.08.2006

@<TRIPOS>MOLECULE
ASD03090635
  39   40    0    0    0
SMALL
NO_CHARGES


@<TRIPOS>ATOM
   1 N1            -0.0162     1.3436     0.0094 N.am    
   2 C2             0.0021    -0.0041     0.0020 C.2     
   3 O3            -1.0425    -0.6263     0.0086 O.2     
   4 N4             1.1783    -0.6620    -0.0127 N.am    
   5 C5             1.1903     2.0622     0.0018 C.ar    
   6 C6             1.8010     2.4126     1.2096 C.ar    
   7 C7             2.9919     3.1213     1.2109 C.ar    
   8 C8             3.5844     3.4869     0.0143 C.ar    
   9 C9             2.9752     3.1375    -1.2034 C.ar    
  10 C10            1.7729     2.4157    -1.1973 C.ar    
  11 O11            4.7499     4.1810     0.0169 O.3     
  12 C12            5.3112     4.5017     1.2913 C.3     
  13 O13            1.2249     2.0575     2.3861 O.3     
  14 C14            1.9011     2.4469     3.5832 C.3     
  15 C15            3.5962     3.5214    -2.4733 C.2     
  16 O16            4.6387     4.1423    -2.4756 O.2     
  17 C17            2.9403     3.1452    -3.7769 C.3     
  18 S18           -2.8352     1.2877     0.0225 S.3     
  19 C19           -1.2306     2.0229     0.0189 C.2     
  20 N20           -1.3879     3.3151     0.0274 N.2     
  21 N21           -2.5674     3.7610     0.0360 N.2     
  22 C22           -3.5387     2.9062     0.0357 C.2     
  23 C23           -5.0095     3.2343     0.0446 C.3     
  24 F24           -5.1790     4.6190    -0.0611 F       
  25 F25           -5.6345     2.6041    -1.0368 F       
  26 F26           -5.5805     2.7845     1.2399 F       
  27 H27            2.0116    -0.1656    -0.0180 H       
  28 H28            1.1914    -1.6319    -0.0181 H       
  29 H29            3.4585     3.3893     2.1473 H       
  30 H30            1.3022     2.1405    -2.1295 H       
  31 H31            6.2392     5.0559     1.1505 H       
  32 H32            4.6058     5.1116     1.8558 H       
  33 H33            5.5166     3.5824     1.8396 H       
  34 H34            2.8966     2.0032     3.5990 H       
  35 H35            1.9868     3.5330     3.6152 H       
  36 H36            1.3356     2.1014     4.4487 H       
  37 H37            1.9461     3.5895    -3.8249 H       
  38 H38            3.5435     3.5136    -4.6067 H       
  39 H39            2.8569     2.0603    -3.8419 H       
@<TRIPOS>BOND
   1    1    2 am
   2    1    5 1
   3    1   19 1
   4    2    3 2
   5    2    4 am
   6    4   27 1
   7    4   28 1
   8    5    6 ar
   9    5   10 ar
  10    6    7 ar
  11    6   13 1
  12    7    8 ar
  13    7   29 1
  14    8    9 ar
  15    8   11 1
  16    9   10 ar
  17    9   15 1
  18   10   30 1
  19   11   12 1
  20   12   31 1
  21   12   32 1
  22   12   33 1
  23   13   14 1
  24   14   34 1
  25   14   35 1
  26   14   36 1
  27   15   16 2
  28   15   17 1
  29   17   37 1
  30   17   38 1
  31   17   39 1
  32   18   19 1
  33   18   22 1
  34   19   20 2
  35   20   21 1
  36   21   22 2
  37   22   23 1
  38   23   24 1
  39   23   25 1
  40   23   26 1

#	End of record

