#	Name: ASD01510094
#	Creating user name:	WinNT
#	Creation time:	15. 06. 2019 19:21

#	Modifying user name:	WinNT
#	Modification time:	15. 06. 2019 19:21

#	Program:	/corina/corina34_cracker 3.40 0067  02.08.2006

@<TRIPOS>MOLECULE
ASD01510094
  57   59    0    0    0
SMALL
NO_CHARGES


@<TRIPOS>ATOM
   1 C1            -1.9602     2.0890    -0.5271 C.2     
   2 C2            -1.2884     0.9821    -0.7258 C.2     
   3 C3            -1.8765    -0.3414    -0.3092 C.3     
   4 C4            -1.8993    -1.2754    -1.4917 C.2     
   5 O5            -1.4793    -0.9030    -2.5668 O.2     
   6 N6            -2.3864    -2.5246    -1.3544 N.am    
   7 C7            -2.4981    -3.3587    -2.4723 C.ar    
   8 C8            -1.5426    -3.3034    -3.4793 C.ar    
   9 C9            -1.6517    -4.1267    -4.5841 C.ar    
  10 C10           -2.7100    -5.0074    -4.6911 C.ar    
  11 C11           -3.6701    -5.0680    -3.6868 C.ar    
  12 C12           -3.5600    -4.2457    -2.5733 C.ar    
  13 S13           -5.0208    -6.1910    -3.8241 S.3     
  14 C14           -4.7168    -6.9902    -5.3648 C.ar    
  15 C15           -3.9518    -8.1550    -5.4271 C.ar    
  16 O16           -3.4274    -8.6945    -4.2985 O.3     
  17 C17           -2.6561    -9.8882    -4.4479 C.3     
  18 N18           -3.7444    -8.7288    -6.6075 N.ar    
  19 C19           -4.2531    -8.2088    -7.7140 C.ar    
  20 N20           -4.9840    -7.1047    -7.6946 N.ar    
  21 C21           -5.2399    -6.4770    -6.5517 C.ar    
  22 O22           -5.9898    -5.3469    -6.5407 O.3     
  23 C23           -6.4782    -4.8801    -7.8000 C.3     
  24 N24           -4.0134    -8.8373    -8.9264 N.3     
  25 C25           -4.6574    -8.1134   -10.0313 C.3     
  26 C26           -4.3040    -8.7920   -11.3568 C.3     
  27 N27           -4.7462   -10.1930   -11.3202 N.3     
  28 C28           -4.1022   -10.9168   -10.2153 C.3     
  29 C29           -4.4557   -10.2383    -8.8898 C.3     
  30 C30           -4.4923   -10.8589   -12.6047 C.3     
  31 H31           -1.5387     3.0375    -0.8256 H       
  32 H32           -2.9374     2.0527    -0.0687 H       
  33 H33           -0.3130     1.0180    -1.1882 H       
  34 H34           -1.2688    -0.7752     0.4848 H       
  35 H35           -2.8931    -0.1892     0.0532 H       
  36 H36           -2.6595    -2.8454    -0.4807 H       
  37 H37           -0.7136    -2.6159    -3.3989 H       
  38 H38           -0.9077    -4.0810    -5.3656 H       
  39 H39           -2.7923    -5.6494    -5.5556 H       
  40 H40           -4.3040    -4.2904    -1.7917 H       
  41 H41           -1.8058    -9.6920    -5.1011 H       
  42 H42           -2.2967   -10.2131    -3.4715 H       
  43 H43           -3.2773   -10.6699    -4.8850 H       
  44 H44           -7.0612    -3.9715    -7.6494 H       
  45 H45           -5.6370    -4.6670    -8.4596 H       
  46 H46           -7.1090    -5.6459    -8.2515 H       
  47 H47           -5.7386    -8.1262    -9.8932 H       
  48 H48           -4.3044    -7.0823   -10.0452 H       
  49 H49           -4.8040    -8.2741   -12.1752 H       
  50 H50           -3.2251    -8.7551   -11.5079 H       
  51 H51           -4.4552   -11.9480   -10.2014 H       
  52 H52           -3.0211   -10.9041   -10.3534 H       
  53 H53           -3.9556   -10.7562    -8.0714 H       
  54 H54           -5.5345   -10.2752    -8.7387 H       
  55 H55           -3.4243   -10.8352   -12.8214 H       
  56 H56           -4.8290   -11.8942   -12.5501 H       
  57 H57           -5.0352   -10.3416   -13.3958 H       
@<TRIPOS>BOND
   1    1    2 2
   2    1   31 1
   3    1   32 1
   4    2    3 1
   5    2   33 1
   6    3    4 1
   7    3   34 1
   8    3   35 1
   9    4    5 2
  10    4    6 am
  11    6    7 1
  12    6   36 1
  13    7    8 ar
  14    7   12 ar
  15    8    9 ar
  16    8   37 1
  17    9   10 ar
  18    9   38 1
  19   10   11 ar
  20   10   39 1
  21   11   12 ar
  22   11   13 1
  23   12   40 1
  24   13   14 1
  25   14   15 ar
  26   14   21 ar
  27   15   16 1
  28   15   18 ar
  29   16   17 1
  30   17   41 1
  31   17   42 1
  32   17   43 1
  33   18   19 ar
  34   19   20 ar
  35   19   24 1
  36   20   21 ar
  37   21   22 1
  38   22   23 1
  39   23   44 1
  40   23   45 1
  41   23   46 1
  42   24   25 1
  43   24   29 1
  44   25   26 1
  45   25   47 1
  46   25   48 1
  47   26   27 1
  48   26   49 1
  49   26   50 1
  50   27   28 1
  51   27   30 1
  52   28   29 1
  53   28   51 1
  54   28   52 1
  55   29   53 1
  56   29   54 1
  57   30   55 1
  58   30   56 1
  59   30   57 1

#	End of record

