#	Name: ASD08070008
#	Creating user name:	WinNT
#	Creation time:	15. 06. 2019 21:14

#	Modifying user name:	WinNT
#	Modification time:	15. 06. 2019 21:14

#	Program:	/corina/corina34_cracker 3.40 0067  02.08.2006

@<TRIPOS>MOLECULE
ASD08070008
  40   41    0    0    0
SMALL
NO_CHARGES


@<TRIPOS>ATOM
   1 C1            -0.2857     0.3300     0.6071 C.ar    
   2 C2            -0.1016    -1.0454     0.5788 C.ar    
   3 C3             1.1626    -1.5851     0.4768 C.ar    
   4 C4             2.2687    -0.7470     0.4010 C.ar    
   5 C5             2.0762     0.6471     0.4301 C.ar    
   6 C6             0.7868     1.1738     0.5340 C.ar    
   7 O7             3.5927    -0.9730     0.2976 O.3     
   8 C8             4.2771     0.1894     0.2574 C.2     
   9 C9             3.4124     1.2337     0.3342 C.2     
  10 C10            5.7381     0.3073     0.1479 C.2     
  11 N11            6.5003    -0.8020     0.0784 N.am    
  12 O12            6.2592     1.4062     0.1198 O.2     
  13 C13            7.9565    -0.6845    -0.0307 C.3     
  14 C14            8.5530    -0.5356     1.3451 C.2     
  15 C15            8.5209    -1.9403    -0.6981 C.3     
  16 C16            7.9914    -2.0386    -2.1301 C.3     
  17 C17            8.5391    -0.8741    -2.9576 C.3     
  18 C18            8.4427    -3.3621    -2.7511 C.3     
  19 O19            7.8354    -0.5283     2.3172 O.2     
  20 O20            9.8816    -0.4109     1.4908 O.3     
  21 C21           10.3861    -0.2714     2.8451 C.3     
  22 H22           -1.2835     0.7362     0.6830 H       
  23 H23           -0.9585    -1.7001     0.6378 H       
  24 H24            1.2934    -2.6570     0.4560 H       
  25 H25            0.6380     2.2433     0.5561 H       
  26 H26            3.6612     2.2847     0.3261 H       
  27 H27            6.0848    -1.6782     0.1008 H       
  28 H28            8.2064     0.1898    -0.6317 H       
  29 H29            9.6093    -1.8841    -0.7163 H       
  30 H30            8.2119    -2.8210    -0.1351 H       
  31 H31            6.9023    -1.9955    -2.1186 H       
  32 H32            9.6282    -0.9172    -2.9692 H       
  33 H33            8.1618    -0.9441    -3.9778 H       
  34 H34            8.2175     0.0688    -2.5152 H       
  35 H35            7.9942    -3.4719    -3.7384 H       
  36 H36            9.5289    -3.3688    -2.8426 H       
  37 H37            8.1267    -4.1886    -2.1145 H       
  38 H38            9.9564     0.6196     3.3029 H       
  39 H39           10.1086    -1.1494     3.4285 H       
  40 H40           11.4719    -0.1797     2.8208 H       
@<TRIPOS>BOND
   1    1    2 ar
   2    1    6 ar
   3    1   22 1
   4    2    3 ar
   5    2   23 1
   6    3    4 ar
   7    3   24 1
   8    4    5 ar
   9    4    7 1
  10    5    6 ar
  11    5    9 1
  12    6   25 1
  13    7    8 1
  14    8    9 2
  15    8   10 1
  16    9   26 1
  17   10   11 am
  18   10   12 2
  19   11   13 1
  20   11   27 1
  21   13   14 1
  22   13   15 1
  23   13   28 1
  24   14   19 2
  25   14   20 1
  26   15   16 1
  27   15   29 1
  28   15   30 1
  29   16   17 1
  30   16   18 1
  31   16   31 1
  32   17   32 1
  33   17   33 1
  34   17   34 1
  35   18   35 1
  36   18   36 1
  37   18   37 1
  38   20   21 1
  39   21   38 1
  40   21   39 1
  41   21   40 1

#	End of record

