#	Name: ASD02030656
#	Creating user name:	WinNT
#	Creation time:	15. 06. 2019 20:15

#	Modifying user name:	WinNT
#	Modification time:	15. 06. 2019 20:15

#	Program:	/corina/corina34_cracker 3.40 0067  02.08.2006

@<TRIPOS>MOLECULE
ASD02030656
  37   40    0    0    0
SMALL
NO_CHARGES


@<TRIPOS>ATOM
   1 C1            -0.0191     1.3461     0.2736 C.2     
   2 N2             0.0007    -0.0113     0.1298 N.am    
   3 N3             2.3525     0.0380     0.2081 N.2     
   4 C4             2.3742     1.3579     0.3482 C.2     
   5 C5             1.1817     2.0489     0.3851 C.2     
   6 C6            -1.0826    -0.8455     0.0074 C.2     
   7 C7            -0.8794    -2.1446    -0.1249 C.2     
   8 S8             0.8802    -2.3540    -0.0931 S.3     
   9 C9             1.2161    -0.6248     0.1018 C.2     
  10 O10           -1.0835     1.9438     0.2994 O.2     
  11 C11            3.6852     2.0914     0.4676 C.3     
  12 N12            4.1255     2.0802     1.8648 N.pl3   
  13 C13            4.3831     2.6889     3.9587 C.2     
  14 N14            3.8098     3.0391     2.8360 N.2     
  15 C15            4.9022     1.1412     2.4452 C.2     
  16 C16            5.0788     1.4954     3.7407 C.2     
  17 C17            4.3049     3.4405     5.2626 C.3     
  18 Cl18           5.5568    -0.2678     1.6706 Cl      
  19 F19            3.4266     4.5209     5.1261 F       
  20 F20            3.8392     2.5849     6.2668 F       
  21 F21            5.5762     3.9133     5.6053 F       
  22 C22           -1.9237    -3.2211    -0.2720 C.3     
  23 C23           -2.4827    -0.2883     0.0243 C.3     
  24 C24           -2.8996     0.6101    -1.1419 C.3     
  25 C25           -3.4627    -0.8081    -1.0294 C.3     
  26 H26            1.1767     3.1228     0.4989 H       
  27 H27            4.4343     1.6000    -0.1533 H       
  28 H28            3.5568     3.1215     0.1353 H       
  29 H29            5.6549     0.9523     4.4753 H       
  30 H30           -2.1440    -3.3716    -1.3288 H       
  31 H31           -1.5502    -4.1507     0.1573 H       
  32 H32           -2.8323    -2.9195     0.2492 H       
  33 H33           -2.8824    -0.0510     1.0102 H       
  34 H34           -3.5739     1.4381    -0.9233 H       
  35 H35           -2.1612     0.7980    -1.9214 H       
  36 H36           -3.0947    -1.5531    -1.7348 H       
  37 H37           -4.5074    -0.9130    -0.7368 H       
@<TRIPOS>BOND
   1    1    2 am
   2    1    5 1
   3    1   10 2
   4    2    6 1
   5    2    9 1
   6    3    4 1
   7    3    9 2
   8    4    5 2
   9    4   11 1
  10    5   26 1
  11    6    7 2
  12    6   23 1
  13    7    8 1
  14    7   22 1
  15    8    9 1
  16   11   12 1
  17   11   27 1
  18   11   28 1
  19   12   15 1
  20   12   14 1
  21   13   14 2
  22   13   16 1
  23   13   17 1
  24   15   16 2
  25   15   18 1
  26   16   29 1
  27   17   19 1
  28   17   20 1
  29   17   21 1
  30   22   30 1
  31   22   31 1
  32   22   32 1
  33   23   24 1
  34   23   25 1
  35   23   33 1
  36   24   25 1
  37   24   34 1
  38   24   35 1
  39   25   36 1
  40   25   37 1

#	End of record

