#	Name: ASD03540485
#	Creating user name:	WinNT
#	Creation time:	15. 06. 2019 20:43

#	Modifying user name:	WinNT
#	Modification time:	15. 06. 2019 20:43

#	Program:	/corina/corina34_cracker 3.40 0067  02.08.2006

@<TRIPOS>MOLECULE
ASD03540485
  64   67    0    0    0
SMALL
NO_CHARGES


@<TRIPOS>ATOM
   1 C1             2.6827    -8.6807    -2.6402 C.2     
   2 C2             2.0093    -7.5508    -1.9676 C.ar    
   3 C3             2.7448    -6.4329    -1.5689 C.ar    
   4 C4             2.1096    -5.3812    -0.9418 C.ar    
   5 C5             0.7470    -5.4326    -0.7071 C.ar    
   6 C6             0.0122    -6.5375    -1.0991 C.ar    
   7 C7             0.6336    -7.5935    -1.7328 C.ar    
   8 O8             3.8788    -8.6385    -2.8476 O.2     
   9 O9             1.9711    -9.7601    -3.0186 O.3     
  10 C10            0.0601    -4.2800    -0.0210 C.3     
  11 N11           -3.3738    -4.7488     1.2281 N.am    
  12 C12           -2.2986    -4.3338     0.5372 C.2     
  13 N13           -1.0579    -4.7846     0.7800 N.am    
  14 C14           -0.8212    -5.6954     1.7492 C.2     
  15 C15           -1.9652    -6.1862     2.5395 C.ar    
  16 C16           -1.8037    -7.1227     3.5526 C.ar    
  17 C17           -2.9208    -7.5523     4.2680 C.ar    
  18 C18           -4.1885    -7.0415     3.9632 C.ar    
  19 C19           -4.3470    -6.1204     2.9666 C.ar    
  20 C20           -3.2455    -5.6804     2.2435 C.ar    
  21 C21           -2.7669    -8.5472     5.3480 C.2     
  22 N22           -3.8461    -8.9629     6.0401 N.am    
  23 O23           -1.6666    -8.9914     5.6131 O.2     
  24 C24           -3.6934    -9.9501     7.1117 C.3     
  25 C25           -5.0403   -10.2420     7.7215 C.ar    
  26 C26           -5.8236   -11.2600     7.2098 C.ar    
  27 C27           -7.0586   -11.5295     7.7670 C.ar    
  28 C28           -7.5127   -10.7777     8.8409 C.ar    
  29 C29           -6.7248    -9.7568     9.3525 C.ar    
  30 C30           -5.4881    -9.4949     8.7953 C.ar    
  31 O31           -8.7275   -11.0406     9.3906 O.3     
  32 C32           -9.1303   -10.2264    10.4937 C.3     
  33 F33           -9.1817    -8.8876    10.0909 F       
  34 F34          -10.3955   -10.6299    10.9336 F       
  35 F35           -8.2080   -10.3645    11.5365 F       
  36 O36            0.3051    -6.1000     1.9638 O.2     
  37 O37           -2.4565    -3.5145    -0.3470 O.2     
  38 C38            1.0571    -3.5616     0.8905 C.3     
  39 C39            0.3959    -2.3192     1.4906 C.3     
  40 C40            2.6984   -10.8324    -3.6741 C.3     
  41 H41            3.8086    -6.3919    -1.7509 H       
  42 H42            2.6773    -4.5159    -0.6329 H       
  43 H43           -1.0510    -6.5715    -0.9123 H       
  44 H44            0.0581    -8.4533    -2.0426 H       
  45 H45           -0.3152    -3.5827    -0.7700 H       
  46 H46           -4.2489    -4.3884     1.0155 H       
  47 H47           -0.8239    -7.5141     3.7834 H       
  48 H48           -5.0494    -7.3793     4.5210 H       
  49 H49           -5.3298    -5.7339     2.7407 H       
  50 H50           -4.7239    -8.6085     5.8286 H       
  51 H51           -3.2732   -10.8688     6.7022 H       
  52 H52           -3.0258    -9.5549     7.8773 H       
  53 H53           -5.4698   -11.8447     6.3736 H       
  54 H54           -7.6702   -12.3245     7.3668 H       
  55 H55           -7.0761    -9.1701    10.1884 H       
  56 H56           -4.8724    -8.7034     9.1962 H       
  57 H57            1.3650    -4.2325     1.6924 H       
  58 H58            1.9305    -3.2639     0.3103 H       
  59 H59            1.1062    -1.8073     2.1399 H       
  60 H60            0.0880    -1.6482     0.6886 H       
  61 H61           -0.4776    -2.6168     2.0707 H       
  62 H62            2.0089   -11.6382    -3.9257 H       
  63 H63            3.1619   -10.4532    -4.5849 H       
  64 H64            3.4703   -11.2106    -3.0039 H       
@<TRIPOS>BOND
   1    1    2 1
   2    1    8 2
   3    1    9 1
   4    2    3 ar
   5    2    7 ar
   6    3    4 ar
   7    3   41 1
   8    4    5 ar
   9    4   42 1
  10    5    6 ar
  11    5   10 1
  12    6    7 ar
  13    6   43 1
  14    7   44 1
  15    9   40 1
  16   10   13 1
  17   10   38 1
  18   10   45 1
  19   11   12 am
  20   11   20 1
  21   11   46 1
  22   12   13 am
  23   12   37 2
  24   13   14 am
  25   14   15 1
  26   14   36 2
  27   15   16 ar
  28   15   20 ar
  29   16   17 ar
  30   16   47 1
  31   17   18 ar
  32   17   21 1
  33   18   19 ar
  34   18   48 1
  35   19   20 ar
  36   19   49 1
  37   21   22 am
  38   21   23 2
  39   22   24 1
  40   22   50 1
  41   24   25 1
  42   24   51 1
  43   24   52 1
  44   25   26 ar
  45   25   30 ar
  46   26   27 ar
  47   26   53 1
  48   27   28 ar
  49   27   54 1
  50   28   29 ar
  51   28   31 1
  52   29   30 ar
  53   29   55 1
  54   30   56 1
  55   31   32 1
  56   32   33 1
  57   32   34 1
  58   32   35 1
  59   38   39 1
  60   38   57 1
  61   38   58 1
  62   39   59 1
  63   39   60 1
  64   39   61 1
  65   40   62 1
  66   40   63 1
  67   40   64 1

#	End of record

