#	Name: ASD01410697
#	Creating user name:	WinNT
#	Creation time:	15. 06. 2019 19:18

#	Modifying user name:	WinNT
#	Modification time:	15. 06. 2019 19:18

#	Program:	/corina/corina34_cracker 3.40 0067  02.08.2006

@<TRIPOS>MOLECULE
ASD01410697
  86   93    0    0    0
SMALL
NO_CHARGES


@<TRIPOS>ATOM
   1 C1             0.0825     1.5607     0.1679 C.3     
   2 N2             0.0739     0.0973     0.1004 N.am    
   3 C3             0.0688    -0.6953     1.3323 C.3     
   4 C4             0.6159     0.1367     2.4934 C.3     
   5 N5             0.5028    -0.6431     3.7384 N.3     
   6 N6             3.1121    -1.6595     3.6709 N.am    
   7 S7             0.0629    -0.6689    -1.3730 S.o2    
   8 O8             0.3925     0.3143    -2.3446 O.2     
   9 N9             1.3303    -1.7435    -1.3356 N.am    
  10 O10           -1.1270    -1.4444    -1.4188 O.2     
  11 C11            2.0781    -1.9144    -2.4817 C.2     
  12 O12            1.7212    -1.5621    -3.5895 O.2     
  13 C13            3.3737    -2.5811    -2.1950 C.ar    
  14 C14            4.2985    -2.8991    -3.1796 C.ar    
  15 C15            5.5259    -3.4267    -2.8599 C.ar    
  16 C16            5.8143    -3.6278    -1.5012 C.ar    
  17 C17            4.8351    -3.3982    -0.4964 C.ar    
  18 C18            3.6046    -2.8661    -0.8331 C.ar    
  19 C19            6.9786    -4.0195    -0.8256 C.2     
  20 C20            6.7131    -4.0692     0.5079 C.2     
  21 N21            5.3755    -3.7742     0.7037 N.pl3   
  22 C22            8.3044    -4.3334    -1.4696 C.3     
  23 C23            8.1777    -5.6117    -2.3007 C.3     
  24 C24            8.7175    -3.1735    -2.3778 C.3     
  25 C25           10.0636    -3.4921    -3.0316 C.3     
  26 C26            9.9369    -4.7705    -3.8627 C.3     
  27 C27            9.5238    -5.9304    -2.9545 C.3     
  28 C28            7.6773    -4.4018     1.5751 C.ar    
  29 C29            7.6446    -3.8992     2.8631 C.ar    
  30 C30            6.6549    -2.8914     3.3612 C.3     
  31 C31            5.1948    -2.8839     2.9767 C.3     
  32 C32            4.6660    -3.9178     1.9811 C.3     
  33 C33            4.2044    -2.3636     3.9745 C.2     
  34 O34            4.4117    -2.5999     5.1459 O.2     
  35 C35            8.7007    -5.3014     1.2121 C.ar    
  36 C36            9.6483    -5.7013     2.1233 C.ar    
  37 C37            9.5965    -5.2140     3.4240 C.ar    
  38 C38            8.6001    -4.3241     3.7827 C.ar    
  39 O39           10.5197    -5.6100     4.3386 O.3     
  40 C40           11.5182    -6.5312     3.8955 C.3     
  41 C41            6.1540    -1.8310     2.3833 C.3     
  42 C42            0.6979    -2.0755     3.4626 C.3     
  43 C43            2.0719    -2.2739     2.8178 C.3     
  44 C44            2.8828    -0.3124     4.2049 C.3     
  45 C45            1.4612    -0.1692     4.7452 C.3     
  46 H46            1.1123     1.9175     0.1850 H       
  47 H47           -0.4286     1.9677    -0.7045 H       
  48 H48           -0.4296     1.8857     1.0736 H       
  49 H49           -0.9514    -1.0051     1.5587 H       
  50 H50            0.6916    -1.5794     1.1960 H       
  51 H51            1.6627     0.3776     2.3079 H       
  52 H52            0.0394     1.0571     2.5859 H       
  53 H53            1.5389    -2.2380    -0.5276 H       
  54 H54            4.0484    -2.7290    -4.2164 H       
  55 H55            6.2434    -3.6781    -3.6270 H       
  56 H56            2.8507    -2.6755    -0.0836 H       
  57 H57            9.0592    -4.4760    -0.6963 H       
  58 H58            7.8834    -6.4380    -1.6537 H       
  59 H59            7.4229    -5.4690    -3.0740 H       
  60 H60            7.9627    -3.0308    -3.1511 H       
  61 H61            8.8078    -2.2627    -1.7857 H       
  62 H62           10.3579    -2.6658    -3.6787 H       
  63 H63           10.8184    -3.6348    -2.2584 H       
  64 H64            9.1821    -4.6278    -4.6360 H       
  65 H65           10.8959    -4.9975    -4.3285 H       
  66 H66           10.2786    -6.0730    -2.1812 H       
  67 H67            9.4335    -6.8411    -3.5466 H       
  68 H68            6.8771    -2.5140     4.3629 H       
  69 H69            3.5991    -3.7590     1.8243 H       
  70 H70            4.8291    -4.9203     2.3769 H       
  71 H71            8.7401    -5.6824     0.2023 H       
  72 H72           10.4275    -6.3895     1.8310 H       
  73 H73            8.5625    -3.9515     4.7957 H       
  74 H74           12.1899    -6.7642     4.7217 H       
  75 H75           11.0393    -7.4465     3.5474 H       
  76 H76           12.0870    -6.0857     3.0793 H       
  77 H77            6.0688    -0.8073     2.7478 H       
  78 H78            6.4349    -1.9370     1.3354 H       
  79 H79            0.6480    -2.6369     4.3955 H       
  80 H80           -0.0785    -2.4253     2.7822 H       
  81 H81            2.0889    -1.7952     1.8387 H       
  82 H82            2.2749    -3.3394     2.7101 H       
  83 H83            3.5871    -0.1203     5.0142 H       
  84 H84            3.0377     0.4207     3.4133 H       
  85 H85            1.2644     0.8777     4.9765 H       
  86 H86            1.3549    -0.7670     5.6504 H       
@<TRIPOS>BOND
   1    1    2 1
   2    1   46 1
   3    1   47 1
   4    1   48 1
   5    2    3 1
   6    2    7 am
   7    3    4 1
   8    3   49 1
   9    3   50 1
  10    4    5 1
  11    4   51 1
  12    4   52 1
  13    5   42 1
  14    5   45 1
  15    6   33 am
  16    6   44 1
  17    6   43 1
  18    7    8 2
  19    7    9 am
  20    7   10 2
  21    9   11 am
  22    9   53 1
  23   11   12 2
  24   11   13 1
  25   13   14 ar
  26   13   18 ar
  27   14   15 ar
  28   14   54 1
  29   15   16 ar
  30   15   55 1
  31   16   17 ar
  32   16   19 1
  33   17   18 ar
  34   17   21 1
  35   18   56 1
  36   19   20 2
  37   19   22 1
  38   20   21 1
  39   20   28 1
  40   21   32 1
  41   22   23 1
  42   22   24 1
  43   22   57 1
  44   23   27 1
  45   23   58 1
  46   23   59 1
  47   24   25 1
  48   24   60 1
  49   24   61 1
  50   25   26 1
  51   25   62 1
  52   25   63 1
  53   26   27 1
  54   26   64 1
  55   26   65 1
  56   27   66 1
  57   27   67 1
  58   28   29 ar
  59   28   35 ar
  60   29   30 1
  61   29   38 ar
  62   30   31 1
  63   30   41 1
  64   30   68 1
  65   31   32 1
  66   31   33 1
  67   31   41 1
  68   32   69 1
  69   32   70 1
  70   33   34 2
  71   35   36 ar
  72   35   71 1
  73   36   37 ar
  74   36   72 1
  75   37   38 ar
  76   37   39 1
  77   38   73 1
  78   39   40 1
  79   40   74 1
  80   40   75 1
  81   40   76 1
  82   41   77 1
  83   41   78 1
  84   42   43 1
  85   42   79 1
  86   42   80 1
  87   43   81 1
  88   43   82 1
  89   44   45 1
  90   44   83 1
  91   44   84 1
  92   45   85 1
  93   45   86 1

#	End of record

