#	Name: ASD02560350
#	Creating user name:	WinNT
#	Creation time:	15. 06. 2019 20:25

#	Modifying user name:	WinNT
#	Modification time:	15. 06. 2019 20:25

#	Program:	/corina/corina34_cracker 3.40 0067  02.08.2006

@<TRIPOS>MOLECULE
ASD02560350
  39   41    0    0    0
SMALL
NO_CHARGES


@<TRIPOS>ATOM
   1 C1            -0.0170     1.4022     0.0098 C.2     
   2 C2             0.0021    -0.0041     0.0020 C.2     
   3 C3             1.1743    -0.6696    -0.0123 C.2     
   4 N4             2.3612     0.0114    -0.0195 N.pl3   
   5 C5             2.3736     1.3873    -0.0127 C.2     
   6 C6             1.1535     2.0938     0.0023 C.2     
   7 C7             3.6659    -0.4006    -0.0340 C.2     
   8 C8             4.4368     0.7161    -0.0358 C.2     
   9 N9             3.6353     1.7872    -0.0227 N.2     
  10 C10            5.9435     0.7449    -0.0496 C.3     
  11 N11            4.1201    -1.7252    -0.0446 N.3     
  12 C12            2.9936    -2.6680    -0.0388 C.3     
  13 C13            6.4281     1.4818    -1.2998 C.3     
  14 C14            6.4512     1.4697     1.1986 C.3     
  15 C15            3.5203    -4.0800    -0.0505 C.ar    
  16 C16            3.7729    -4.7333     1.1413 C.ar    
  17 C17            3.7454    -4.7238    -1.2529 C.ar    
  18 C18            4.2284    -6.0189    -1.2636 C.ar    
  19 C19            4.4868    -6.6701    -0.0719 C.ar    
  20 C20            4.2560    -6.0285     1.1305 C.ar    
  21 H21           -0.9586     1.9311     0.0171 H       
  22 H22           -0.9275    -0.5538     0.0079 H       
  23 H23            1.1768    -1.7496    -0.0178 H       
  24 H24            1.1487     3.1738     0.0074 H       
  25 H25            6.3264    -0.2757    -0.0580 H       
  26 H26            4.7278    -1.8928    -0.8325 H       
  27 H27            2.3935    -2.5115     0.8576 H       
  28 H28            2.3770    -2.5029    -0.9223 H       
  29 H29            6.0453     2.5023    -1.2913 H       
  30 H30            7.5179     1.5026    -1.3098 H       
  31 H31            6.0664     0.9654    -2.1890 H       
  32 H32            6.1060     0.9447     2.0892 H       
  33 H33            7.5409     1.4905     1.1886 H       
  34 H34            6.0683     2.4902     1.2070 H       
  35 H35            3.5931    -4.2318     2.0807 H       
  36 H36            3.5435    -4.2150    -2.1839 H       
  37 H37            4.4036    -6.5221    -2.2030 H       
  38 H38            4.8639    -7.6821    -0.0803 H       
  39 H39            4.4578    -6.5373     2.0616 H       
@<TRIPOS>BOND
   1    1    2 1
   2    1    6 2
   3    1   21 1
   4    2    3 2
   5    2   22 1
   6    3    4 1
   7    3   23 1
   8    4    5 1
   9    4    7 1
  10    5    6 1
  11    5    9 2
  12    6   24 1
  13    7    8 2
  14    7   11 1
  15    8    9 1
  16    8   10 1
  17   10   13 1
  18   10   14 1
  19   10   25 1
  20   11   12 1
  21   11   26 1
  22   12   15 1
  23   12   27 1
  24   12   28 1
  25   13   29 1
  26   13   30 1
  27   13   31 1
  28   14   32 1
  29   14   33 1
  30   14   34 1
  31   15   16 ar
  32   15   17 ar
  33   16   20 ar
  34   16   35 1
  35   17   18 ar
  36   17   36 1
  37   18   19 ar
  38   18   37 1
  39   19   20 ar
  40   19   38 1
  41   20   39 1

#	End of record

