#	Name: ASD01912647
#	Creating user name:	WinNT
#	Creation time:	15. 06. 2019 20:00

#	Modifying user name:	WinNT
#	Modification time:	15. 06. 2019 20:00

#	Program:	/corina/corina34_cracker 3.40 0067  02.08.2006

@<TRIPOS>MOLECULE
ASD01912647
  41   44    0    0    0
SMALL
NO_CHARGES


@<TRIPOS>ATOM
   1 C1            -0.0174     1.3662    -0.0381 C.2     
   2 N2             0.0021    -0.0041     0.0055 N.pl3   
   3 C3            -1.2013    -0.6912     0.0618 C.2     
   4 C4            -2.3620    -0.0488     0.0736 C.2     
   5 N5            -2.4358     1.3307     0.0307 N.am    
   6 C6            -1.3027     2.0663    -0.0185 C.2     
   7 C7             1.2999     1.7824    -0.0894 C.2     
   8 C8             2.0539     0.6102    -0.0732 C.2     
   9 N9             1.2242    -0.4047    -0.0166 N.2     
  10 O10           -1.3505     3.2826    -0.0563 O.2     
  11 C11           -3.6828     1.9658     0.0447 C.ar    
  12 C12            3.5578     0.5236    -0.1144 C.3     
  13 O13            4.1093     1.8406    -0.1735 O.3     
  14 C14            5.4639     1.9409    -0.2164 C.ar    
  15 C15            6.0667     3.1891    -0.2747 C.ar    
  16 C16            7.4439     3.2884    -0.3183 C.ar    
  17 C17            8.2214     2.1451    -0.3038 C.ar    
  18 C18            7.6230     0.9000    -0.2461 C.ar    
  19 C19            6.2464     0.7956    -0.1961 C.ar    
  20 C20           -4.5496     1.8404    -1.0330 C.ar    
  21 N21           -5.7250     2.4368    -1.0232 N.ar    
  22 C22           -5.3189     3.3372     1.1097 C.ar    
  23 C23           -4.0754     2.7284     1.1425 C.ar    
  24 C24           -6.1240     3.1694    -0.0020 C.ar    
  25 C25           -7.4783     3.8290    -0.0449 C.3     
  26 H26           -1.1933    -1.7706     0.0964 H       
  27 H27           -3.2769    -0.6210     0.1177 H       
  28 H28            1.6660     2.7975    -0.1327 H       
  29 H29            3.9174     0.0191     0.7824 H       
  30 H30            3.8654    -0.0389    -0.9959 H       
  31 H31            5.4598     4.0824    -0.2864 H       
  32 H32            7.9136     4.2598    -0.3640 H       
  33 H33            9.2979     2.2249    -0.3379 H       
  34 H34            8.2325     0.0085    -0.2356 H       
  35 H35            5.7795    -0.1772    -0.1511 H       
  36 H36           -4.2575     1.2487    -1.8879 H       
  37 H37           -5.6564     3.9354     1.9432 H       
  38 H38           -3.4259     2.8424     1.9978 H       
  39 H39           -8.2239     3.1557     0.3781 H       
  40 H40           -7.4516     4.7517     0.5347 H       
  41 H41           -7.7390     4.0565    -1.0785 H       
@<TRIPOS>BOND
   1    1    2 1
   2    1    7 2
   3    1    6 1
   4    2    3 1
   5    2    9 1
   6    3    4 2
   7    3   26 1
   8    4    5 1
   9    4   27 1
  10    5    6 am
  11    5   11 1
  12    6   10 2
  13    7    8 1
  14    7   28 1
  15    8    9 2
  16    8   12 1
  17   11   20 ar
  18   11   23 ar
  19   12   13 1
  20   12   29 1
  21   12   30 1
  22   13   14 1
  23   14   15 ar
  24   14   19 ar
  25   15   16 ar
  26   15   31 1
  27   16   17 ar
  28   16   32 1
  29   17   18 ar
  30   17   33 1
  31   18   19 ar
  32   18   34 1
  33   19   35 1
  34   20   21 ar
  35   20   36 1
  36   21   24 ar
  37   22   23 ar
  38   22   24 ar
  39   22   37 1
  40   23   38 1
  41   24   25 1
  42   25   39 1
  43   25   40 1
  44   25   41 1

#	End of record

