#	Name: ASD02590063
#	Creating user name:	WinNT
#	Creation time:	15. 06. 2019 20:25

#	Modifying user name:	WinNT
#	Modification time:	15. 06. 2019 20:25

#	Program:	/corina/corina34_cracker 3.40 0067  02.08.2006

@<TRIPOS>MOLECULE
ASD02590063
  61   66    0    0    0
SMALL
NO_CHARGES


@<TRIPOS>ATOM
   1 Cl1            8.2387    -4.7537    -0.1026 Cl      
   2 Cl2           -6.9402     2.7011    15.0131 Cl      
   3 C3            -0.0168     1.3882     0.0097 C.ar    
   4 C4             0.0021    -0.0041     0.0020 C.ar    
   5 C5             1.1863     2.0841     0.0019 C.ar    
   6 N6             2.3353     1.4435    -0.0125 N.ar    
   7 C7             2.3939     0.1169    -0.0202 C.ar    
   8 C8             1.2265    -0.6466    -0.0131 C.ar    
   9 C9             3.7100    -0.5578    -0.0369 C.2     
  10 N10            4.9213     0.0794    -0.0455 N.pl3   
  11 C11            5.8971    -0.8986    -0.0599 C.ar    
  12 C12            5.2182    -2.1297    -0.0594 C.ar    
  13 N13            3.8917    -1.8556    -0.0399 N.2     
  14 C14            7.2859    -0.8728    -0.0733 C.ar    
  15 C15            7.9944    -2.0563    -0.0862 C.ar    
  16 C16            7.3286    -3.2755    -0.0858 C.ar    
  17 C17            5.9529    -3.3208    -0.0726 C.ar    
  18 O18           -4.4120     4.3793     3.7761 O.3     
  19 C19           -4.8152     4.0938     5.0414 C.ar    
  20 C20           -4.1627     4.6610     6.1329 C.ar    
  21 C21           -4.6057     4.3432     7.4038 C.ar    
  22 C22           -5.6845     3.4707     7.5484 C.ar    
  23 N23           -6.2811     2.9493     6.4827 N.ar    
  24 C24           -5.8871     3.2368     5.2608 C.ar    
  25 C25           -6.1683     3.1225     8.9019 C.2     
  26 N26           -5.6608     3.5734    10.0229 N.2     
  27 C27           -6.3420     3.0543    11.0725 C.ar    
  28 C28           -7.3443     2.2207    10.5462 C.ar    
  29 N29           -7.2171     2.2856     9.1720 N.pl3   
  30 C30           -6.2241     3.1975    12.4597 C.ar    
  31 C31           -7.0878     2.5230    13.2926 C.ar    
  32 C32           -8.0765     1.7006    12.7673 C.ar    
  33 C33           -8.2068     1.5481    11.4026 C.ar    
  34 O34           -1.1979     2.0589     0.0189 O.3     
  35 C35           -1.1334     3.4864     0.0264 C.3     
  36 C36           -5.1324     3.7577     2.7099 C.3     
  37 C37           -4.5385     4.1958     1.3697 C.3     
  38 O38           -3.2008     3.7056     1.2584 O.3     
  39 C39           -2.5513     4.0610     0.0362 C.3     
  40 Cl40           8.1279     0.6453    -0.0745 Cl      
  41 Cl41          -9.4461     0.5182    10.7566 Cl      
  42 H42           -0.9183    -0.5691     0.0081 H       
  43 H43            1.1778     3.1640     0.0074 H       
  44 H44            1.2783    -1.7254    -0.0191 H       
  45 H45            5.0673     1.0384    -0.0426 H       
  46 H46            9.0741    -2.0349    -0.0969 H       
  47 H47            5.4422    -4.2724    -0.0720 H       
  48 H48           -3.3296     5.3334     5.9903 H       
  49 H49           -4.1227     4.7647     8.2730 H       
  50 H50           -6.3966     2.7935     4.4180 H       
  51 H51           -7.7648     1.8203     8.5205 H       
  52 H52           -5.4577     3.8349    12.8754 H       
  53 H53           -8.7475     1.1768    13.4320 H       
  54 H54           -0.5994     3.8213     0.9157 H       
  55 H55           -0.6079     3.8310    -0.8642 H       
  56 H56           -5.0573     2.6744     2.8038 H       
  57 H57           -6.1800     4.0548     2.7576 H       
  58 H58           -5.1418     3.7934     0.5560 H       
  59 H59           -4.5324     5.2844     1.3135 H       
  60 H60           -2.5040     5.1468    -0.0477 H       
  61 H61           -3.1134     3.6558    -0.8051 H       
@<TRIPOS>BOND
   1    1   16 1
   2    2   31 1
   3    3    4 ar
   4    3    5 ar
   5    3   34 1
   6    4    8 ar
   7    4   42 1
   8    5    6 ar
   9    5   43 1
  10    6    7 ar
  11    7    8 ar
  12    7    9 1
  13    8   44 1
  14    9   10 1
  15    9   13 2
  16   10   11 1
  17   10   45 1
  18   11   12 ar
  19   11   14 ar
  20   12   13 1
  21   12   17 ar
  22   14   15 ar
  23   14   40 1
  24   15   16 ar
  25   15   46 1
  26   16   17 ar
  27   17   47 1
  28   18   19 1
  29   18   36 1
  30   19   20 ar
  31   19   24 ar
  32   20   21 ar
  33   20   48 1
  34   21   22 ar
  35   21   49 1
  36   22   23 ar
  37   22   25 1
  38   23   24 ar
  39   24   50 1
  40   25   26 2
  41   25   29 1
  42   26   27 1
  43   27   28 ar
  44   27   30 ar
  45   28   29 1
  46   28   33 ar
  47   29   51 1
  48   30   31 ar
  49   30   52 1
  50   31   32 ar
  51   32   33 ar
  52   32   53 1
  53   33   41 1
  54   34   35 1
  55   35   39 1
  56   35   54 1
  57   35   55 1
  58   36   37 1
  59   36   56 1
  60   36   57 1
  61   37   38 1
  62   37   58 1
  63   37   59 1
  64   38   39 1
  65   39   60 1
  66   39   61 1

#	End of record

