#	Name: ASD02030144
#	Creating user name:	WinNT
#	Creation time:	15. 06. 2019 20:14

#	Modifying user name:	WinNT
#	Modification time:	15. 06. 2019 20:14

#	Program:	/corina/corina34_cracker 3.40 0067  02.08.2006

@<TRIPOS>MOLECULE
ASD02030144
  64   68    0    0    0
SMALL
NO_CHARGES


@<TRIPOS>ATOM
   1 N1            -0.2095     1.4189    -0.1487 N.am    
   2 C2            -0.0216    -0.0145     0.1158 C.3     
   3 C3            -0.9173    -0.4170     1.2938 C.3     
   4 N4            -2.2758     0.0850     1.0439 N.am    
   5 C5            -2.4637     1.5184     0.7795 C.3     
   6 C6            -1.5686     1.9219    -0.3931 C.3     
   7 C7             0.8450     2.2581    -0.1612 C.2     
   8 C8             2.1872     1.7643     0.2135 C.2     
   9 N9             3.2675     2.4996     0.3654 N.2     
  10 N10            2.5178     0.4844     0.4650 N.2     
  11 C11            3.7926     0.4627     0.7599 C.2     
  12 N12            4.2480     1.7306     0.6936 N.pl3   
  13 O13            0.6926     3.4210    -0.4807 O.2     
  14 C14           -3.3303    -0.7542     1.0565 C.2     
  15 C15           -4.7001    -0.2210     0.9135 C.ar    
  16 O16           -3.1540    -1.9502     1.1856 O.2     
  17 C17           -1.5392     3.4467    -0.5156 C.3     
  18 C18           -2.1098     1.3096    -1.6866 C.3     
  19 C19            5.5649     2.1420     0.9396 C.ar    
  20 C20            5.9051     3.4843     0.8369 C.ar    
  21 C21            7.2038     3.8866     1.0799 C.ar    
  22 C22            8.1650     2.9542     1.4247 C.ar    
  23 C23            7.8293     1.6167     1.5277 C.ar    
  24 C24            6.5309     1.2090     1.2920 C.ar    
  25 C25           -5.6730    -0.9676     0.2361 C.ar    
  26 C26           -6.9422    -0.4857     0.0973 C.ar    
  27 C27           -7.2806     0.7536     0.6288 C.ar    
  28 C28           -6.3158     1.5168     1.3122 C.ar    
  29 C29           -5.0221     1.0189     1.4569 C.ar    
  30 N30           -8.4410     1.4963     0.6565 N.pl3   
  31 C31           -8.1705     2.6486     1.3283 C.2     
  32 N32           -6.9279     2.6619     1.7123 N.2     
  33 C33           -9.1662     3.7493     1.5893 C.3     
  34 C34           -9.2290     4.0345     3.0912 C.3     
  35 C35          -10.2399     5.1521     3.3561 C.3     
  36 H36           -0.2993    -0.5890    -0.7679 H       
  37 H37            1.0215    -0.2065     0.3670 H       
  38 H38           -0.9392    -1.5032     1.3823 H       
  39 H39           -0.5295     0.0197     2.2142 H       
  40 H40           -3.5068     1.7104     0.5282 H       
  41 H41           -2.1860     2.0929     1.6632 H       
  42 H42            4.3739    -0.4114     1.0137 H       
  43 H43           -1.0410     3.8716     0.3558 H       
  44 H44           -0.9961     3.7282    -1.4178 H       
  45 H45           -2.5593     3.8264    -0.5722 H       
  46 H46           -3.1229     1.6708    -1.8634 H       
  47 H47           -1.4703     1.5986    -2.5207 H       
  48 H48           -2.1217     0.2233    -1.5972 H       
  49 H49            5.1550     4.2129     0.5670 H       
  50 H50            7.4690     4.9305     1.0002 H       
  51 H51            9.1800     3.2711     1.6135 H       
  52 H52            8.5821     0.8908     1.7972 H       
  53 H53            6.2692     0.1643     1.3730 H       
  54 H54           -5.4167    -1.9309    -0.1795 H       
  55 H55           -7.6854    -1.0683    -0.4268 H       
  56 H56           -4.2727     1.5951     1.9793 H       
  57 H57           -9.2934     1.2444     0.2683 H       
  58 H58           -8.8575     4.6512     1.0608 H       
  59 H59          -10.1502     3.4403     1.2367 H       
  60 H60           -9.5377     3.1326     3.6197 H       
  61 H61           -8.2451     4.3436     3.4438 H       
  62 H62           -9.9313     6.0540     2.8276 H       
  63 H63          -11.2239     4.8430     3.0035 H       
  64 H64          -10.2847     5.3553     4.4261 H       
@<TRIPOS>BOND
   1    1    2 1
   2    1    7 am
   3    1    6 1
   4    2    3 1
   5    2   36 1
   6    2   37 1
   7    3    4 1
   8    3   38 1
   9    3   39 1
  10    4    5 1
  11    4   14 am
  12    5    6 1
  13    5   40 1
  14    5   41 1
  15    6   17 1
  16    6   18 1
  17    7    8 1
  18    7   13 2
  19    8    9 2
  20    8   10 1
  21    9   12 1
  22   10   11 2
  23   11   12 1
  24   11   42 1
  25   12   19 1
  26   14   15 1
  27   14   16 2
  28   15   25 ar
  29   15   29 ar
  30   17   43 1
  31   17   44 1
  32   17   45 1
  33   18   46 1
  34   18   47 1
  35   18   48 1
  36   19   20 ar
  37   19   24 ar
  38   20   21 ar
  39   20   49 1
  40   21   22 ar
  41   21   50 1
  42   22   23 ar
  43   22   51 1
  44   23   24 ar
  45   23   52 1
  46   24   53 1
  47   25   26 ar
  48   25   54 1
  49   26   27 ar
  50   26   55 1
  51   27   28 ar
  52   27   30 1
  53   28   29 ar
  54   28   32 1
  55   29   56 1
  56   30   31 1
  57   30   57 1
  58   31   32 2
  59   31   33 1
  60   33   34 1
  61   33   58 1
  62   33   59 1
  63   34   35 1
  64   34   60 1
  65   34   61 1
  66   35   62 1
  67   35   63 1
  68   35   64 1

#	End of record

