#	Name: ASD01916756
#	Creating user name:	WinNT
#	Creation time:	15. 06. 2019 20:07

#	Modifying user name:	WinNT
#	Modification time:	15. 06. 2019 20:07

#	Program:	/corina/corina34_cracker 3.40 0067  02.08.2006

@<TRIPOS>MOLECULE
ASD01916756
  63   67    0    0    0
SMALL
NO_CHARGES


@<TRIPOS>ATOM
   1 C1            -0.0245     1.3184     0.0994 C.2     
   2 N2             0.0080     0.0301    -0.1650 N.2     
   3 N3            -1.3231    -0.4170    -0.1829 N.pl3   
   4 C4            -2.0935     0.6643     0.0798 C.2     
   5 N5            -1.2978     1.6987     0.2524 N.2     
   6 C6             1.1600     2.2050     0.2154 C.ar    
   7 C7             0.9942     3.5588     0.5005 C.ar    
   8 C8             2.4414     1.6847     0.0454 C.ar    
   9 C9             3.5399     2.5124     0.1546 C.ar    
  10 C10            3.3703     3.8590     0.4329 C.ar    
  11 C11           -1.7862    -1.7836    -0.4360 C.3     
  12 C12           -1.8174    -2.5516     0.8602 C.2     
  13 N13           -2.2141    -3.8396     0.8710 N.am    
  14 O14           -1.4853    -2.0107     1.8937 O.2     
  15 C15           -2.2519    -4.6074     2.1249 C.3     
  16 C16           -3.6321    -5.2605     2.2544 C.3     
  17 N17           -3.9181    -6.0379     1.0412 N.3     
  18 C18           -3.9864    -5.1715    -0.1431 C.3     
  19 C19           -2.6266    -4.5129    -0.3699 C.3     
  20 C20           -5.0873    -6.7760     1.1866 C.ar    
  21 C21           -5.5276    -7.5790     0.1428 C.ar    
  22 C22           -6.6975    -8.3115     0.3027 C.ar    
  23 C23           -7.3842    -8.2085     1.5120 C.ar    
  24 C24           -6.8850    -7.3902     2.5026 C.ar    
  25 N25           -5.7675    -6.7106     2.3219 N.ar    
  26 C26           -3.5706     0.6799     0.1642 C.ar    
  27 C27            2.0982     4.3794     0.6079 C.ar    
  28 C28           -4.2716    -0.5063     0.3840 C.ar    
  29 C29           -5.6484    -0.4864     0.4618 C.ar    
  30 C30           -6.3356     0.7089     0.3216 C.ar    
  31 C31           -5.6439     1.8898     0.1031 C.ar    
  32 C32           -4.2667     1.8815     0.0299 C.ar    
  33 F33            4.4486     4.6659     0.5395 F       
  34 F34           -7.6844     0.7229     0.3977 F       
  35 O35           -7.1611    -9.1076    -0.6944 O.3     
  36 C36           -8.3715    -9.8242    -0.4427 C.3     
  37 C37           -8.7337   -10.6608    -1.6714 C.3     
  38 H38            0.0029     3.9653     0.6367 H       
  39 H39            2.5746     0.6351    -0.1712 H       
  40 H40            4.5335     2.1099     0.0233 H       
  41 H41           -2.7878    -1.7542    -0.8651 H       
  42 H42           -1.1067    -2.2743    -1.1329 H       
  43 H43           -1.4821    -5.3788     2.1052 H       
  44 H44           -2.0826    -3.9387     2.9689 H       
  45 H45           -3.6417    -5.9218     3.1208 H       
  46 H46           -4.3903    -4.4872     2.3781 H       
  47 H47           -4.2530    -5.7682    -1.0154 H       
  48 H48           -4.7397    -4.3994     0.0140 H       
  49 H49           -2.7030    -3.7834    -1.1762 H       
  50 H50           -1.8901    -5.2734    -0.6290 H       
  51 H51           -4.9690    -7.6332    -0.7800 H       
  52 H52           -8.2971    -8.7634     1.6705 H       
  53 H53           -7.4133    -7.3067     3.4409 H       
  54 H54            1.9703     5.4297     0.8244 H       
  55 H55           -3.7370    -1.4384     0.4927 H       
  56 H56           -6.1920    -1.4040     0.6319 H       
  57 H57           -6.1840     2.8186    -0.0059 H       
  58 H58           -3.7286     2.8023    -0.1404 H       
  59 H59           -8.2330   -10.4810     0.4161 H       
  60 H60           -9.1752    -9.1180    -0.2342 H       
  61 H61           -8.8722   -10.0040    -2.5302 H       
  62 H62           -7.9300   -11.3670    -1.8799 H       
  63 H63           -9.6570   -11.2074    -1.4795 H       
@<TRIPOS>BOND
   1    1    2 2
   2    1    6 1
   3    1    5 1
   4    2    3 1
   5    3    4 1
   6    3   11 1
   7    4    5 2
   8    4   26 1
   9    6    7 ar
  10    6    8 ar
  11    7   27 ar
  12    7   38 1
  13    8    9 ar
  14    8   39 1
  15    9   10 ar
  16    9   40 1
  17   10   27 ar
  18   10   33 1
  19   11   12 1
  20   11   41 1
  21   11   42 1
  22   12   13 am
  23   12   14 2
  24   13   15 1
  25   13   19 1
  26   15   16 1
  27   15   43 1
  28   15   44 1
  29   16   17 1
  30   16   45 1
  31   16   46 1
  32   17   18 1
  33   17   20 1
  34   18   19 1
  35   18   47 1
  36   18   48 1
  37   19   49 1
  38   19   50 1
  39   20   21 ar
  40   20   25 ar
  41   21   22 ar
  42   21   51 1
  43   22   23 ar
  44   22   35 1
  45   23   24 ar
  46   23   52 1
  47   24   25 ar
  48   24   53 1
  49   26   28 ar
  50   26   32 ar
  51   27   54 1
  52   28   29 ar
  53   28   55 1
  54   29   30 ar
  55   29   56 1
  56   30   31 ar
  57   30   34 1
  58   31   32 ar
  59   31   57 1
  60   32   58 1
  61   35   36 1
  62   36   37 1
  63   36   59 1
  64   36   60 1
  65   37   61 1
  66   37   62 1
  67   37   63 1

#	End of record

