#	Name: ASD06660131
#	Creating user name:	WinNT
#	Creation time:	15. 06. 2019 21:08

#	Modifying user name:	WinNT
#	Modification time:	15. 06. 2019 21:08

#	Program:	/corina/corina34_cracker 3.40 0067  02.08.2006

@<TRIPOS>MOLECULE
ASD06660131
  78   81    0    0    0
SMALL
NO_CHARGES


@<TRIPOS>ATOM
   1 C1             0.3033     1.9444     1.0349 C.2     
   2 C2             0.0502     0.5518     0.5176 C.3     
   3 C3            -1.0902     0.5859    -0.5018 C.3     
   4 O4             1.3865     2.4578     0.8829 O.2     
   5 O5            -0.6762     2.6167     1.6597 O.3     
   6 C6            -1.4313    -0.8208    -0.9212 C.ar    
   7 C7            -2.3593    -1.5497    -0.2002 C.ar    
   8 C8            -2.6743    -2.8391    -0.5817 C.ar    
   9 C9            -2.0577    -3.4037    -1.6911 C.ar    
  10 C10           -1.1260    -2.6687    -2.4131 C.ar    
  11 C11           -0.8199    -1.3778    -2.0294 C.ar    
  12 N12           -2.3736    -4.7076    -2.0795 N.3     
  13 C13           -1.6099    -5.1016    -3.2702 C.3     
  14 C14           -2.0852    -6.4744    -3.7515 C.3     
  15 C15           -1.8856    -7.4996    -2.6319 C.3     
  16 C16           -2.6518    -7.0411    -1.3881 C.3     
  17 C17           -2.1601    -5.6519    -0.9753 C.3     
  18 C18           -2.4150    -8.8616    -3.0854 C.3     
  19 N19           -2.1163    -9.8669    -2.0625 N.pl3   
  20 C20           -2.4955   -11.1620    -2.2490 C.2     
  21 N21           -3.1335   -11.5099    -3.3548 N.2     
  22 C22           -3.5080   -12.7584    -3.5965 C.2     
  23 C23           -3.1985   -13.8711    -2.6282 C.3     
  24 C24           -3.0878   -13.2824    -1.2149 C.3     
  25 N25           -2.2111   -12.0991    -1.2963 N.pl3   
  26 O26           -4.1137   -13.0108    -4.6196 O.2     
  27 C27            2.2855    -0.4116     0.6292 C.2     
  28 C28            3.5450    -0.8419    -0.0145 C.ar    
  29 C29            3.7703    -2.1937    -0.2800 C.ar    
  30 C30            4.9473    -2.5885    -0.8812 C.ar    
  31 C31            5.9039    -1.6478    -1.2205 C.ar    
  32 C32            5.6869    -0.3066    -0.9601 C.ar    
  33 C33            4.5114     0.1022    -0.3645 C.ar    
  34 O34            2.1713    -0.4661     1.8381 O.2     
  35 N35            1.2640     0.0413    -0.1244 N.am    
  36 C36            7.1879    -2.0865    -1.8762 C.3     
  37 F37            7.0269    -2.0826    -3.2659 F       
  38 F38            8.2162    -1.2060    -1.5234 F       
  39 F39            7.5126    -3.3782    -1.4480 F       
  40 C40            4.2742     1.5643    -0.0867 C.3     
  41 C41            2.7301    -3.2195     0.0897 C.3     
  42 C42            1.7108    -3.3440    -1.0444 C.3     
  43 H43           -0.2235    -0.0998     1.3473 H       
  44 H44           -1.9660     1.0534    -0.0518 H       
  45 H45           -0.7801     1.1602    -1.3749 H       
  46 H46           -0.4665     3.5068     1.9740 H       
  47 H47           -2.8380    -1.1103     0.6625 H       
  48 H48           -3.3988    -3.4080    -0.0180 H       
  49 H49           -0.6448    -3.1046    -3.2761 H       
  50 H50           -0.0991    -0.8041    -2.5931 H       
  51 H51           -1.7639    -4.3665    -4.0601 H       
  52 H52           -0.5497    -5.1509    -3.0219 H       
  53 H53           -3.1420    -6.4224    -4.0132 H       
  54 H54           -1.5075    -6.7735    -4.6261 H       
  55 H55           -0.8243    -7.5803    -2.3968 H       
  56 H56           -3.7176    -6.9980    -1.6125 H       
  57 H57           -2.4789    -7.7451    -0.5741 H       
  58 H58           -1.0973    -5.6986    -0.7377 H       
  59 H59           -2.7137    -5.3164    -0.0984 H       
  60 H60           -3.4934    -8.8017    -3.2320 H       
  61 H61           -1.9360    -9.1438    -4.0229 H       
  62 H62           -1.6486    -9.6104    -1.2523 H       
  63 H63           -3.9987   -14.6108    -2.6540 H       
  64 H64           -2.2545   -14.3419    -2.9026 H       
  65 H65           -4.0754   -12.9917    -0.8569 H       
  66 H66           -2.6509   -14.0190    -0.5405 H       
  67 H67           -1.4599   -11.9874    -0.6928 H       
  68 H68            5.1229    -3.6340    -1.0872 H       
  69 H69            6.4375     0.4225    -1.2275 H       
  70 H70            1.3325     0.0291    -1.0919 H       
  71 H71            4.6540     1.8121     0.9045 H       
  72 H72            4.7917     2.1648    -0.8348 H       
  73 H73            3.2052     1.7734    -0.1290 H       
  74 H74            3.2122    -4.1835     0.2524 H       
  75 H75            2.2219    -2.9089     1.0026 H       
  76 H76            1.3006    -2.3605    -1.2738 H       
  77 H77            2.2003    -3.7490    -1.9301 H       
  78 H78            0.9053    -4.0111    -0.7374 H       
@<TRIPOS>BOND
   1    1    2 1
   2    1    4 2
   3    1    5 1
   4    2    3 1
   5    2   35 1
   6    2   43 1
   7    3    6 1
   8    3   44 1
   9    3   45 1
  10    5   46 1
  11    6    7 ar
  12    6   11 ar
  13    7    8 ar
  14    7   47 1
  15    8    9 ar
  16    8   48 1
  17    9   10 ar
  18    9   12 1
  19   10   11 ar
  20   10   49 1
  21   11   50 1
  22   12   13 1
  23   12   17 1
  24   13   14 1
  25   13   51 1
  26   13   52 1
  27   14   15 1
  28   14   53 1
  29   14   54 1
  30   15   16 1
  31   15   18 1
  32   15   55 1
  33   16   17 1
  34   16   56 1
  35   16   57 1
  36   17   58 1
  37   17   59 1
  38   18   19 1
  39   18   60 1
  40   18   61 1
  41   19   20 1
  42   19   62 1
  43   20   21 2
  44   20   25 1
  45   21   22 1
  46   22   23 1
  47   22   26 2
  48   23   24 1
  49   23   63 1
  50   23   64 1
  51   24   25 1
  52   24   65 1
  53   24   66 1
  54   25   67 1
  55   27   28 1
  56   27   34 2
  57   27   35 am
  58   28   29 ar
  59   28   33 ar
  60   29   30 ar
  61   29   41 1
  62   30   31 ar
  63   30   68 1
  64   31   32 ar
  65   31   36 1
  66   32   33 ar
  67   32   69 1
  68   33   40 1
  69   35   70 1
  70   36   37 1
  71   36   38 1
  72   36   39 1
  73   40   71 1
  74   40   72 1
  75   40   73 1
  76   41   42 1
  77   41   74 1
  78   41   75 1
  79   42   76 1
  80   42   77 1
  81   42   78 1

#	End of record

