#	Name: ASD01816418
#	Creating user name:	WinNT
#	Creation time:	15. 06. 2019 19:35

#	Modifying user name:	WinNT
#	Modification time:	15. 06. 2019 19:35

#	Program:	/corina/corina34_cracker 3.40 0067  02.08.2006

@<TRIPOS>MOLECULE
ASD01816418
  48   53    0    0    0
SMALL
NO_CHARGES


@<TRIPOS>ATOM
   1 C1            -0.0167     1.3813     0.0096 C.ar    
   2 C2             0.0021    -0.0041     0.0020 C.ar    
   3 C3             1.1984    -0.6909    -0.0131 C.ar    
   4 C4             2.4015     0.0058    -0.0204 C.ar    
   5 C5             2.3791     1.4106    -0.0127 C.ar    
   6 C6             1.1663     2.0916     0.0022 C.ar    
   7 N7             3.6053    -0.6773    -0.0347 N.pl3   
   8 C8             4.7970    -0.0587    -0.0419 C.2     
   9 C9             4.9000     1.3102    -0.0359 C.2     
  10 C10            3.6670     2.1300    -0.0207 C.2     
  11 C11            5.9971     2.2728    -0.0410 C.2     
  12 N12            5.4247     3.4960    -0.0302 N.am    
  13 N13            4.0324     3.3800    -0.0181 N.2     
  14 O14            7.1917     2.0226    -0.0524 O.2     
  15 C15            3.5779    -2.1420    -0.0418 C.3     
  16 C16            3.5558    -2.6372    -1.4650 C.ar    
  17 C17            4.7437    -2.8862    -2.1275 C.ar    
  18 C18            4.7266    -3.3396    -3.4320 C.ar    
  19 C19            3.5150    -3.5457    -4.0780 C.ar    
  20 C20            2.3240    -3.2952    -3.4100 C.ar    
  21 C21            2.3474    -2.8469    -2.1038 C.ar    
  22 N22            3.4944    -4.0054    -5.4021 N.pl3   
  23 C23            2.3897    -4.2464    -6.1438 C.2     
  24 C24            2.7965    -4.6754    -7.3610 C.2     
  25 C25            4.1956    -4.6977    -7.3645 C.2     
  26 N26            4.6147    -4.2907    -6.1933 N.2     
  27 C27            6.1295     4.7129    -0.0307 C.2     
  28 C28            5.4931     5.9468    -0.0192 C.2     
  29 C29            6.3106     7.0001    -0.0210 C.2     
  30 S30            7.9821     6.4542    -0.0378 S.3     
  31 C31            7.4670     4.7726    -0.0364 C.2     
  32 H32           -0.9602     1.9068     0.0170 H       
  33 H33           -0.9289    -0.5515     0.0083 H       
  34 H34            1.2004    -1.7709    -0.0189 H       
  35 H35            1.1506     3.1715     0.0084 H       
  36 H36            5.6983    -0.6537    -0.0522 H       
  37 H37            4.4656    -2.5245     0.4622 H       
  38 H38            2.6860    -2.4913     0.4783 H       
  39 H39            5.6858    -2.7257    -1.6244 H       
  40 H40            5.6547    -3.5333    -3.9492 H       
  41 H41            1.3800    -3.4543    -3.9100 H       
  42 H42            1.4213    -2.6518    -1.5837 H       
  43 H43            1.3665    -4.1198    -5.8223 H       
  44 H44            2.1547    -4.9518    -8.1844 H       
  45 H45            4.8218    -4.9952    -8.1926 H       
  46 H46            4.4177     6.0459    -0.0100 H       
  47 H47            5.9940     8.0326    -0.0132 H       
  48 H48            8.1283     3.9188    -0.0444 H       
@<TRIPOS>BOND
   1    1    2 ar
   2    1    6 ar
   3    1   32 1
   4    2    3 ar
   5    2   33 1
   6    3    4 ar
   7    3   34 1
   8    4    5 ar
   9    4    7 1
  10    5    6 ar
  11    5   10 1
  12    6   35 1
  13    7    8 1
  14    7   15 1
  15    8    9 2
  16    8   36 1
  17    9   10 1
  18    9   11 1
  19   10   13 2
  20   11   12 am
  21   11   14 2
  22   12   13 1
  23   12   27 1
  24   15   16 1
  25   15   37 1
  26   15   38 1
  27   16   17 ar
  28   16   21 ar
  29   17   18 ar
  30   17   39 1
  31   18   19 ar
  32   18   40 1
  33   19   20 ar
  34   19   22 1
  35   20   21 ar
  36   20   41 1
  37   21   42 1
  38   22   23 1
  39   22   26 1
  40   23   24 2
  41   23   43 1
  42   24   25 1
  43   24   44 1
  44   25   26 2
  45   25   45 1
  46   27   28 1
  47   27   31 2
  48   28   29 2
  49   28   46 1
  50   29   30 1
  51   29   47 1
  52   30   31 1
  53   31   48 1

#	End of record

