#	Name: ASD03092375
#	Creating user name:	WinNT
#	Creation time:	15. 06. 2019 20:32

#	Modifying user name:	WinNT
#	Modification time:	15. 06. 2019 20:32

#	Program:	/corina/corina34_cracker 3.40 0067  02.08.2006

@<TRIPOS>MOLECULE
ASD03092375
  59   62    0    0    0
SMALL
NO_CHARGES


@<TRIPOS>ATOM
   1 O1             0.4852     0.3842     0.3505 O.3     
   2 N2             0.6575    -0.8098     0.3288 N.2     
   3 C3             1.9155    -1.1252     0.2382 C.2     
   4 C4             2.6360     0.1567     0.1982 C.2     
   5 C5             1.6220     1.0801     0.2767 C.2     
   6 C6             4.0876     0.3923     0.0990 C.2     
   7 O7             4.8538    -0.5502     0.0382 O.2     
   8 N8             4.5659     1.6521     0.0757 N.am    
   9 C9             2.5093    -2.5093     0.1858 C.3     
  10 C10            6.0087     1.8862    -0.0229 C.3     
  11 S11            6.7289     5.7580    -0.7214 S.3     
  12 C12            6.6119     5.3515     0.9349 C.2     
  13 N13            6.3780     4.0810     1.0717 N.2     
  14 C14            6.2777     3.3690    -0.0298 C.2     
  15 C15            6.4361     4.0787    -1.1664 C.2     
  16 C16            5.3094     2.2268    -4.2388 C.ar    
  17 C17            5.3265     2.7068    -2.9394 C.ar    
  18 C18            6.3748     3.5426    -2.5404 C.ar    
  19 C19            7.3660     3.8579    -3.4816 C.ar    
  20 C20            7.2721     3.3380    -4.7528 C.ar    
  21 N21            6.2671     2.5512    -5.0933 N.ar    
  22 C22            8.3320     3.6709    -5.7710 C.3     
  23 O23            4.3021     1.4104    -4.6388 O.3     
  24 C24            4.3396     0.9481    -5.9904 C.3     
  25 N25            6.7477     6.2472     1.9800 N.3     
  26 C26            7.0071     7.6051     1.4798 C.3     
  27 C27            7.2096     8.5504     2.6670 C.3     
  28 O28            6.0590     8.4963     3.5147 O.3     
  29 C29            5.7774     7.1884     4.0202 C.3     
  30 C30            5.5604     6.2293     2.8468 C.3     
  31 C31            4.5143     7.2350     4.8823 C.3     
  32 C32            7.4004     9.9796     2.1552 C.3     
  33 H33            1.7242     2.1552     0.2783 H       
  34 H34            3.9548     2.4038     0.1243 H       
  35 H35            2.5810    -2.8348    -0.8519 H       
  36 H36            3.5038    -2.4951     0.6318 H       
  37 H37            1.8725    -3.1990     0.7398 H       
  38 H38            6.5100     1.4300     0.8308 H       
  39 H39            6.3863     1.4441    -0.9448 H       
  40 H40            4.5430     2.4400    -2.2455 H       
  41 H41            8.1915     4.5002    -3.2127 H       
  42 H42            9.1298     2.9299    -5.7206 H       
  43 H43            7.8925     3.6643    -6.7684 H       
  44 H44            8.7404     4.6593    -5.5604 H       
  45 H45            5.2573     0.3836    -6.1560 H       
  46 H46            3.4792     0.3061    -6.1789 H       
  47 H47            4.3111     1.8019    -6.6674 H       
  48 H48            7.9047     7.5999     0.8615 H       
  49 H49            6.1575     7.9428     0.8864 H       
  50 H50            8.0912     8.2440     3.2300 H       
  51 H51            6.6174     6.8424     4.6226 H       
  52 H52            4.6877     6.5451     2.2752 H       
  53 H53            5.4020     5.2199     3.2263 H       
  54 H54            3.6747     7.5793     4.2784 H       
  55 H55            4.3002     6.2380     5.2673 H       
  56 H56            4.6680     7.9209     5.7154 H       
  57 H57            6.5174    10.2855     1.5941 H       
  58 H58            7.5445    10.6521     3.0008 H       
  59 H59            8.2752    10.0193     1.5062 H       
@<TRIPOS>BOND
   1    1    2 1
   2    1    5 1
   3    2    3 2
   4    3    4 1
   5    3    9 1
   6    4    5 2
   7    4    6 1
   8    5   33 1
   9    6    7 2
  10    6    8 am
  11    8   10 1
  12    8   34 1
  13    9   35 1
  14    9   36 1
  15    9   37 1
  16   10   14 1
  17   10   38 1
  18   10   39 1
  19   11   12 1
  20   11   15 1
  21   12   13 2
  22   12   25 1
  23   13   14 1
  24   14   15 2
  25   15   18 1
  26   16   17 ar
  27   16   21 ar
  28   16   23 1
  29   17   18 ar
  30   17   40 1
  31   18   19 ar
  32   19   20 ar
  33   19   41 1
  34   20   21 ar
  35   20   22 1
  36   22   42 1
  37   22   43 1
  38   22   44 1
  39   23   24 1
  40   24   45 1
  41   24   46 1
  42   24   47 1
  43   25   26 1
  44   25   30 1
  45   26   27 1
  46   26   48 1
  47   26   49 1
  48   27   28 1
  49   27   32 1
  50   27   50 1
  51   28   29 1
  52   29   30 1
  53   29   31 1
  54   29   51 1
  55   30   52 1
  56   30   53 1
  57   31   54 1
  58   31   55 1
  59   31   56 1
  60   32   57 1
  61   32   58 1
  62   32   59 1

#	End of record

