#	Name: ASD01885449
#	Creating user name:	WinNT
#	Creation time:	15. 06. 2019 19:49

#	Modifying user name:	WinNT
#	Modification time:	15. 06. 2019 19:49

#	Program:	/corina/corina34_cracker 3.40 0067  02.08.2006

@<TRIPOS>MOLECULE
ASD01885449
  35   37    0    0    0
SMALL
NO_CHARGES


@<TRIPOS>ATOM
   1 C1            -0.0388     1.4169     0.0072 C.ar    
   2 C2            -0.0161     0.0212     0.0397 C.ar    
   3 N3            -1.1302    -0.7508     0.0521 N.2     
   4 C4            -2.1915    -0.5676    -0.6474 C.2     
   5 C5            -2.3333     0.6065    -1.5801 C.3     
   6 C6            -2.2855     1.8690    -0.7572 C.2     
   7 N7            -1.2067     2.1682    -0.0337 N.am    
   8 C8             1.1634     2.1192     0.0092 C.ar    
   9 C9             2.3779     1.4409     0.0379 C.ar    
  10 C10            2.3928     0.0446     0.0648 C.ar    
  11 C11            1.2217    -0.6493     0.0657 C.ar    
  12 C12           -3.2989    -1.5311    -0.5349 C.ar    
  13 O13           -3.2379     2.6201    -0.7546 O.2     
  14 C14           -3.1340    -2.7060     0.2067 C.ar    
  15 C15           -4.1719    -3.6099     0.3125 C.ar    
  16 C16           -5.3787    -3.3624    -0.3113 C.ar    
  17 C17           -5.5584    -2.1929    -1.0556 C.ar    
  18 C18           -4.5185    -1.2724    -1.1631 C.ar    
  19 C19           -6.8111    -1.9389    -1.7014 C.1     
  20 N20           -7.8048    -1.7375    -2.2137 N.1     
  21 B21            3.7276     2.2428     0.0395 Du      
  22 O22            3.7101     3.6624     0.0117 O.3     
  23 O23            4.9660     1.5485     0.0688 O.3     
  24 H24           -1.5148     0.6053    -2.3000 H       
  25 H25           -3.2863     0.5458    -2.1057 H       
  26 H26           -1.2399     2.9719     0.5084 H       
  27 H27            1.1531     3.1990    -0.0119 H       
  28 H28            3.3339    -0.4849     0.0844 H       
  29 H29            1.2423    -1.7289     0.0864 H       
  30 H30           -2.1928    -2.9063     0.6969 H       
  31 H31           -4.0392    -4.5155     0.8859 H       
  32 H32           -6.1859    -4.0746    -0.2241 H       
  33 H33           -4.6521    -0.3673    -1.7370 H       
  34 H34            4.5885     4.0668     0.0150 H       
  35 H35            5.7412     2.1266     0.0674 H       
@<TRIPOS>BOND
   1    1    2 ar
   2    1    8 ar
   3    1    7 1
   4    2    3 1
   5    2   11 ar
   6    3    4 2
   7    4    5 1
   8    4   12 1
   9    5    6 1
  10    5   24 1
  11    5   25 1
  12    6    7 am
  13    6   13 2
  14    7   26 1
  15    8    9 ar
  16    8   27 1
  17    9   10 ar
  18    9   21 1
  19   10   11 ar
  20   10   28 1
  21   11   29 1
  22   12   14 ar
  23   12   18 ar
  24   14   15 ar
  25   14   30 1
  26   15   16 ar
  27   15   31 1
  28   16   17 ar
  29   16   32 1
  30   17   18 ar
  31   17   19 1
  32   18   33 1
  33   19   20 3
  34   21   22 1
  35   21   23 1
  36   22   34 1
  37   23   35 1

#	End of record

