#	Name: ASD01180186
#	Creating user name:	WinNT
#	Creation time:	15. 06. 2019 19:06

#	Modifying user name:	WinNT
#	Modification time:	15. 06. 2019 19:06

#	Program:	/corina/corina34_cracker 3.40 0067  02.08.2006

@<TRIPOS>MOLECULE
ASD01180186
  61   63    0    0    0
SMALL
NO_CHARGES


@<TRIPOS>ATOM
   1 C1            -0.6581     1.2434     0.5908 C.ar    
   2 C2            -0.5559    -0.1301     0.4883 C.ar    
   3 C3            -1.7071    -0.9150     0.5087 C.ar    
   4 C4            -2.9554    -0.3090     0.6324 C.ar    
   5 C5            -3.0466     1.0647     0.7342 C.ar    
   6 C6            -1.9013     1.8394     0.7193 C.ar    
   7 C7            -1.6037    -2.3912     0.3985 C.ar    
   8 C8            -2.7547    -3.1762     0.4188 C.ar    
   9 C9            -2.6528    -4.5487     0.3160 C.ar    
  10 C10           -1.4109    -5.1453     0.1934 C.ar    
  11 C11           -0.2649    -4.3709     0.1732 C.ar    
  12 C12           -0.3557    -2.9970     0.2686 C.ar    
  13 C13           -1.3059    -6.6445     0.0821 C.3     
  14 C14           -1.1132    -7.0347    -1.3847 C.3     
  15 N15           -0.1609    -7.1135     0.8666 N.pl3   
  16 C16           -0.1642    -8.3910     1.4005 C.ar    
  17 N17            0.8177    -8.7638     2.2099 N.ar    
  18 C18            0.8557    -9.9683     2.7406 C.ar    
  19 C19           -0.1479   -10.8972     2.4625 C.ar    
  20 C20           -1.1995   -10.5294     1.6089 C.ar    
  21 C21           -1.2027    -9.2654     1.0841 C.ar    
  22 C22           -0.1039   -12.2469     3.0569 C.2     
  23 N23            0.9107   -12.5902     3.8750 N.am    
  24 O24           -0.9829   -13.0495     2.8087 O.2     
  25 C25            0.9544   -13.9303     4.4652 C.3     
  26 C26            2.1986   -14.0592     5.3462 C.3     
  27 C27            2.2436   -15.4378     5.9534 C.2     
  28 O28            3.2541   -15.7796     6.7682 O.3     
  29 O29            1.3701   -16.2353     5.7067 O.2     
  30 C30           -2.3724    -6.6776    -2.1771 C.3     
  31 C31           -2.1316    -6.9436    -3.6644 C.3     
  32 C32           -3.5423    -7.5342    -1.6887 C.3     
  33 Cl33           0.7745     2.2235     0.5657 Cl      
  34 H34            0.4142    -0.5949     0.3923 H       
  35 H35           -3.8506    -0.9130     0.6483 H       
  36 H36           -4.0141     1.5350     0.8301 H       
  37 H37           -1.9772     2.9138     0.7995 H       
  38 H38           -3.7249    -2.7114     0.5152 H       
  39 H39           -3.5443    -5.1581     0.3317 H       
  40 H40            0.7023    -4.8419     0.0776 H       
  41 H41            0.5397    -2.3932     0.2523 H       
  42 H42           -2.2190    -7.1020     0.4628 H       
  43 H43           -0.2602    -6.4945    -1.7954 H       
  44 H44           -0.9319    -8.1072    -1.4546 H       
  45 H45            0.5994    -6.5290     1.0119 H       
  46 H46            1.6702   -10.2395     3.3960 H       
  47 H47           -1.9905   -11.2265     1.3749 H       
  48 H48           -1.9977    -8.9513     0.4240 H       
  49 H49            1.6119   -11.9499     4.0730 H       
  50 H50            0.0623   -14.0899     5.0708 H       
  51 H51            0.9927   -14.6760     3.6711 H       
  52 H52            3.0908   -13.8996     4.7406 H       
  53 H53            2.1604   -13.3135     6.1403 H       
  54 H54            3.2398   -16.6748     7.1335 H       
  55 H55           -2.6076    -5.6235    -2.0299 H       
  56 H56           -1.8965    -7.9977    -3.8116 H       
  57 H57           -3.0287    -6.6892    -4.2289 H       
  58 H58           -1.2982    -6.3334    -4.0124 H       
  59 H59           -3.2700    -8.5880    -1.7465 H       
  60 H60           -3.7759    -7.2754    -0.6559 H       
  61 H61           -4.4146    -7.3494    -2.3157 H       
@<TRIPOS>BOND
   1    1    2 ar
   2    1   33 1
   3    1    6 ar
   4    2    3 ar
   5    2   34 1
   6    3    4 ar
   7    3    7 1
   8    4    5 ar
   9    4   35 1
  10    5    6 ar
  11    5   36 1
  12    6   37 1
  13    7    8 ar
  14    7   12 ar
  15    8    9 ar
  16    8   38 1
  17    9   10 ar
  18    9   39 1
  19   10   11 ar
  20   10   13 1
  21   11   12 ar
  22   11   40 1
  23   12   41 1
  24   13   14 1
  25   13   15 1
  26   13   42 1
  27   14   30 1
  28   14   43 1
  29   14   44 1
  30   15   16 1
  31   15   45 1
  32   16   17 ar
  33   16   21 ar
  34   17   18 ar
  35   18   19 ar
  36   18   46 1
  37   19   20 ar
  38   19   22 1
  39   20   21 ar
  40   20   47 1
  41   21   48 1
  42   22   23 am
  43   22   24 2
  44   23   25 1
  45   23   49 1
  46   25   26 1
  47   25   50 1
  48   25   51 1
  49   26   27 1
  50   26   52 1
  51   26   53 1
  52   27   28 1
  53   27   29 2
  54   28   54 1
  55   30   31 1
  56   30   32 1
  57   30   55 1
  58   31   56 1
  59   31   57 1
  60   31   58 1
  61   32   59 1
  62   32   60 1
  63   32   61 1

#	End of record

