#	Name: ASD01028747
#	Creating user name:	WinNT
#	Creation time:	15. 06. 2019 18:58

#	Modifying user name:	WinNT
#	Modification time:	15. 06. 2019 18:58

#	Program:	/corina/corina34_cracker 3.40 0067  02.08.2006

@<TRIPOS>MOLECULE
ASD01028747
  30   31    0    0    0
SMALL
NO_CHARGES


@<TRIPOS>ATOM
   1 O1            -0.0177     1.4517     0.0100 O.3     
   2 C2             0.0021    -0.0041     0.0020 C.3     
   3 O3             0.8077    -0.4775    -1.1144 O.3     
   4 C4             2.0709     0.0280    -1.1780 C.2     
   5 C5             2.1762     1.4951    -0.9740 C.2     
   6 C6             1.2051     2.0518     0.0016 C.2     
   7 O7             3.0430    -0.6720    -1.3873 O.2     
   8 O8             1.4815     2.9776     0.7400 O.2     
   9 C9             0.6022    -0.5123     1.3145 C.3     
  10 C10           -1.4268    -0.5318    -0.1414 C.3     
  11 C11            3.1015     2.2779    -1.6378 C.2     
  12 N12            3.1482     3.6072    -1.4098 N.pl3   
  13 C13            4.9712     3.8280    -2.9856 C.ar    
  14 C14            4.0843     4.3991    -2.0813 C.ar    
  15 C15            4.1410     5.7717    -1.8539 C.ar    
  16 C16            5.0870     6.5151    -2.5447 C.ar    
  17 C17            5.9361     5.8725    -3.4300 C.ar    
  18 N18            5.8551     4.5702    -3.6215 N.ar    
  19 F19            5.1783     7.8498    -2.3564 F       
  20 H20           -0.0028    -0.1614     2.1505 H       
  21 H21            0.6172    -1.6022     1.3091 H       
  22 H22            1.6196    -0.1354     1.4188 H       
  23 H23           -1.8562    -0.1688    -1.0752 H       
  24 H24           -1.4127    -1.6217    -0.1475 H       
  25 H25           -2.0296    -0.1809     0.6962 H       
  26 H26            3.7872     1.8259    -2.3392 H       
  27 H27            2.5323     4.0132    -0.7799 H       
  28 H28            4.9387     2.7637    -3.1660 H       
  29 H29            3.4652     6.2457    -1.1575 H       
  30 H30            6.6747     6.4455    -3.9708 H       
@<TRIPOS>BOND
   1    1    2 1
   2    1    6 1
   3    2    3 1
   4    2    9 1
   5    2   10 1
   6    3    4 1
   7    4    5 1
   8    4    7 2
   9    5    6 1
  10    5   11 2
  11    6    8 2
  12    9   20 1
  13    9   21 1
  14    9   22 1
  15   10   23 1
  16   10   24 1
  17   10   25 1
  18   11   12 1
  19   11   26 1
  20   12   14 1
  21   12   27 1
  22   13   14 ar
  23   13   18 ar
  24   13   28 1
  25   14   15 ar
  26   15   16 ar
  27   15   29 1
  28   16   17 ar
  29   16   19 1
  30   17   18 ar
  31   17   30 1

#	End of record

