#	Name: ASD08170707
#	Creating user name:	WinNT
#	Creation time:	15. 06. 2019 21:17

#	Modifying user name:	WinNT
#	Modification time:	15. 06. 2019 21:17

#	Program:	/corina/corina34_cracker 3.40 0067  02.08.2006

@<TRIPOS>MOLECULE
ASD08170707
  64   69    0    0    0
SMALL
NO_CHARGES


@<TRIPOS>ATOM
   1 N1            -0.0155     1.2910     0.0091 N.2     
   2 C2             0.0021    -0.0041     0.0020 C.2     
   3 C3            -1.2027    -0.9094     0.0082 C.3     
   4 C4            -1.6240    -1.2075    -1.4321 C.3     
   5 C5            -2.8471    -2.1267    -1.4258 C.3     
   6 C6            -3.2684    -2.4248    -2.8661 C.3     
   7 C7            -4.4732    -3.3301    -2.8599 C.2     
   8 N8            -5.7122    -2.9529    -2.8465 N.2     
   9 N9            -6.5814    -3.8685    -2.8439 N.2     
  10 C10           -6.1623    -5.0979    -2.8548 C.2     
  11 S11           -4.4493    -5.0938    -2.8774 S.3     
  12 N12           -6.9703    -6.2299    -2.8539 N.am    
  13 S13            1.6895    -0.5178    -0.0169 S.3     
  14 C14            2.1699     1.1266    -0.0126 C.2     
  15 N15            1.1058     1.8712     0.0015 N.2     
  16 N16            3.4819     1.5878    -0.0231 N.am    
  17 C17            3.7307     2.9124    -0.0183 C.2     
  18 O18            2.8104     3.7021    -0.0049 O.2     
  19 C19            5.1524     3.4121    -0.0296 C.3     
  20 C20            5.1552     4.9191    -0.0214 C.ar    
  21 C21            5.2477     5.6115    -1.1939 C.ar    
  22 C22            5.2511     7.0009    -1.1972 C.ar    
  23 C23            5.1627     7.7036    -0.0291 C.ar    
  24 C24            5.0672     7.0244     1.1829 C.ar    
  25 C25            5.0572     5.6161     1.1879 C.ar    
  26 C26           -8.3117    -6.1002    -2.8415 C.2     
  27 O27           -8.8143    -4.9965    -2.8311 O.2     
  28 C28           -9.1873    -7.3268    -2.8406 C.3     
  29 C29          -10.6355    -6.9102    -2.8257 C.ar    
  30 C30          -11.2929    -6.6078    -4.0233 C.ar    
  31 C31          -12.6465    -6.2202    -3.9964 C.ar    
  32 C32          -13.3120    -6.1435    -2.7754 C.ar    
  33 C33          -12.6487    -6.4436    -1.6195 C.ar    
  34 C34          -11.3146    -6.8313    -1.6444 C.ar    
  35 N35            4.9677     7.4243     2.4900 N.pl3   
  36 N36            4.9016     6.2933     3.3103 N.2     
  37 C37            4.9502     5.2118     2.5860 C.2     
  38 C38          -10.8896    -6.5919    -5.4257 C.2     
  39 N39          -11.9213    -6.2279    -6.1322 N.2     
  40 N40          -13.0171    -5.9909    -5.2957 N.pl3   
  41 H41           -0.9537    -1.8421     0.5144 H       
  42 H42           -2.0229    -0.4191     0.5326 H       
  43 H43           -1.8730    -0.2749    -1.9383 H       
  44 H44           -0.8038    -1.6978    -1.9565 H       
  45 H45           -2.5981    -3.0593    -0.9196 H       
  46 H46           -3.6673    -1.6364    -0.9014 H       
  47 H47           -3.5174    -1.4921    -3.3723 H       
  48 H48           -2.4482    -2.9151    -3.3905 H       
  49 H49           -6.5684    -7.1126    -2.8623 H       
  50 H50            4.2180     0.9561    -0.0338 H       
  51 H51            5.6743     3.0430     0.8532 H       
  52 H52            5.6567     3.0527    -0.9266 H       
  53 H53            5.3192     5.0742    -2.1281 H       
  54 H54            5.3250     7.5319    -2.1348 H       
  55 H55            5.1672     8.7835    -0.0454 H       
  56 H56           -8.9880    -7.9162    -3.7356 H       
  57 H57           -8.9724    -7.9259    -1.9557 H       
  58 H58          -14.3499    -5.8470    -2.7425 H       
  59 H59          -13.1688    -6.3827    -0.6750 H       
  60 H60          -10.8081    -7.0647    -0.7196 H       
  61 H61            4.9468     8.3442     2.7970 H       
  62 H62            4.9182     4.1971     2.9544 H       
  63 H63           -9.9104    -6.8380    -5.8091 H       
  64 H64          -13.8980    -5.7094    -5.5884 H       
@<TRIPOS>BOND
   1    1    2 2
   2    1   15 1
   3    2    3 1
   4    2   13 1
   5    3    4 1
   6    3   41 1
   7    3   42 1
   8    4    5 1
   9    4   43 1
  10    4   44 1
  11    5    6 1
  12    5   45 1
  13    5   46 1
  14    6    7 1
  15    6   47 1
  16    6   48 1
  17    7    8 2
  18    7   11 1
  19    8    9 1
  20    9   10 2
  21   10   11 1
  22   10   12 1
  23   12   26 am
  24   12   49 1
  25   13   14 1
  26   14   15 2
  27   14   16 1
  28   16   17 am
  29   16   50 1
  30   17   18 2
  31   17   19 1
  32   19   20 1
  33   19   51 1
  34   19   52 1
  35   20   21 ar
  36   20   25 ar
  37   21   22 ar
  38   21   53 1
  39   22   23 ar
  40   22   54 1
  41   23   24 ar
  42   23   55 1
  43   24   25 ar
  44   24   35 1
  45   25   37 1
  46   26   27 2
  47   26   28 1
  48   28   29 1
  49   28   56 1
  50   28   57 1
  51   29   30 ar
  52   29   34 ar
  53   30   31 ar
  54   30   38 1
  55   31   32 ar
  56   31   40 1
  57   32   33 ar
  58   32   58 1
  59   33   34 ar
  60   33   59 1
  61   34   60 1
  62   35   36 1
  63   35   61 1
  64   36   37 2
  65   37   62 1
  66   38   39 2
  67   38   63 1
  68   39   40 1
  69   40   64 1

#	End of record

