#	Name: ASD02198200
#	Creating user name:	WinNT
#	Creation time:	15. 06. 2019 20:19

#	Modifying user name:	WinNT
#	Modification time:	15. 06. 2019 20:19

#	Program:	/corina/corina34_cracker 3.40 0067  02.08.2006

@<TRIPOS>MOLECULE
ASD02198200
  31   32    0    0    0
SMALL
NO_CHARGES


@<TRIPOS>ATOM
   1 C1            -0.0166     1.3735     0.0096 C.2     
   2 C2             0.0021    -0.0041     0.0020 C.2     
   3 C3            -1.1875    -0.8013     0.0086 C.1     
   4 S4             1.5683     2.0020    -0.0022 S.3     
   5 C5             2.2758     0.3946    -0.0176 C.2     
   6 C6             1.2848    -0.5518    -0.0132 C.2     
   7 C7             3.6591     0.1186    -0.0327 C.2     
   8 N8             4.5483     1.1315    -0.0357 N.am    
   9 O9             4.0502    -1.0355    -0.0430 O.2     
  10 N10            1.5324    -1.9174    -0.0229 N.pl3   
  11 N11           -1.1605     2.1392     0.0193 N.pl3   
  12 N12           -2.1312    -1.4337     0.0139 N.1     
  13 C13           -1.0635     3.6010     0.0268 C.3     
  14 C14           -2.3389     4.2170    -0.5746 C.3     
  15 C15           -2.9726     5.0856     0.5316 C.3     
  16 C16           -1.7889     5.4294     1.4695 C.3     
  17 C17           -0.9667     4.1168     1.4775 C.3     
  18 H18            4.2371     2.0501    -0.0274 H       
  19 H19            5.4995     0.9417    -0.0461 H       
  20 H20            2.4454    -2.2447    -0.0337 H       
  21 H21            0.7924    -2.5445    -0.0188 H       
  22 H22           -2.0308     1.7109     0.0213 H       
  23 H23           -0.1905     3.9199    -0.5426 H       
  24 H24           -2.0847     4.8355    -1.4354 H       
  25 H25           -3.0300     3.4284    -0.8720 H       
  26 H26           -3.3985     5.9943     0.1061 H       
  27 H27           -3.7345     4.5218     1.0698 H       
  28 H28           -1.2001     6.2516     1.0629 H       
  29 H29           -2.1464     5.6674     2.4714 H       
  30 H30           -1.4047     3.3965     2.1684 H       
  31 H31            0.0712     4.3184     1.7422 H       
@<TRIPOS>BOND
   1    1    2 2
   2    1    4 1
   3    1   11 1
   4    2    3 1
   5    2    6 1
   6    3   12 3
   7    4    5 1
   8    5    6 2
   9    5    7 1
  10    6   10 1
  11    7    8 am
  12    7    9 2
  13    8   18 1
  14    8   19 1
  15   10   20 1
  16   10   21 1
  17   11   13 1
  18   11   22 1
  19   13   14 1
  20   13   17 1
  21   13   23 1
  22   14   15 1
  23   14   24 1
  24   14   25 1
  25   15   16 1
  26   15   26 1
  27   15   27 1
  28   16   17 1
  29   16   28 1
  30   16   29 1
  31   17   30 1
  32   17   31 1

#	End of record

