#	Name: ASD01840236
#	Creating user name:	WinNT
#	Creation time:	15. 06. 2019 19:37

#	Modifying user name:	WinNT
#	Modification time:	15. 06. 2019 19:37

#	Program:	/corina/corina34_cracker 3.40 0067  02.08.2006

@<TRIPOS>MOLECULE
ASD01840236
  42   45    0    0    0
SMALL
NO_CHARGES


@<TRIPOS>ATOM
   1 C1             0.7173     1.3919    -0.3254 C.3     
   2 N2             0.5521    -0.0621    -0.2573 N.am    
   3 C3             0.2965    -0.7440    -1.3883 C.2     
   4 O4             0.2066    -0.1470    -2.4457 O.2     
   5 C5             0.1258    -2.1979    -1.3589 C.2     
   6 C6            -0.1416    -3.1669    -2.3438 C.2     
   7 C7            -0.1920    -4.3796    -1.7209 C.2     
   8 C8            -0.4469    -5.6677    -2.3765 C.2     
   9 O9            -0.3695    -6.7010    -1.7385 O.2     
  10 N10           -0.7666    -5.7062    -3.6853 N.am    
  11 C11           -0.9129    -6.9951    -4.3660 C.3     
  12 C12           -2.3712    -7.3564    -4.6942 C.3     
  13 C13           -2.1724    -6.6149    -6.0267 C.3     
  14 C14           -0.6723    -6.9214    -5.8831 C.3     
  15 N15            0.0370    -4.1949    -0.3715 N.pl3   
  16 C16            0.0652    -5.2540     0.6403 C.3     
  17 C17            0.2321    -2.8732    -0.1356 C.2     
  18 C18            0.5127    -2.0871     1.0724 C.ar    
  19 C19            0.6292    -2.7097     2.3176 C.ar    
  20 C20            0.8931    -1.9538     3.4381 C.ar    
  21 C21            1.0428    -0.5790     3.3349 C.ar    
  22 C22            0.9303     0.0497     2.1133 C.ar    
  23 C23            0.6692    -0.6944     0.9670 C.ar    
  24 H24            1.7662     1.6306    -0.5017 H       
  25 H25            0.1125     1.7885    -1.1409 H       
  26 H26            0.3963     1.8386     0.6156 H       
  27 H27           -0.2814    -2.9841    -3.3990 H       
  28 H28           -0.8999    -4.8804    -4.1764 H       
  29 H29           -0.3627    -7.7979    -3.8752 H       
  30 H30           -2.5402    -8.4269    -4.8112 H       
  31 H31           -3.0977    -6.8818    -4.0346 H       
  32 H32           -2.6401    -7.1116    -6.8768 H       
  33 H33           -2.4079    -5.5519    -5.9743 H       
  34 H34           -0.0273    -6.0956    -6.1832 H       
  35 H35           -0.3768    -7.8729    -6.3251 H       
  36 H36            1.0961    -5.5610     0.8162 H       
  37 H37           -0.3662    -4.8807     1.5691 H       
  38 H38           -0.5133    -6.1081     0.2885 H       
  39 H39            0.5123    -3.7801     2.4012 H       
  40 H40            0.9834    -2.4337     4.4014 H       
  41 H41            1.2493     0.0045     4.2199 H       
  42 H42            1.0482     1.1211     2.0454 H       
@<TRIPOS>BOND
   1    1    2 1
   2    1   24 1
   3    1   25 1
   4    1   26 1
   5    2   23 1
   6    2    3 am
   7    3    4 2
   8    3    5 1
   9    5   17 2
  10    5    6 1
  11    6    7 2
  12    6   27 1
  13    7    8 1
  14    7   15 1
  15    8    9 2
  16    8   10 am
  17   10   11 1
  18   10   28 1
  19   11   14 1
  20   11   12 1
  21   11   29 1
  22   12   13 1
  23   12   30 1
  24   12   31 1
  25   13   14 1
  26   13   32 1
  27   13   33 1
  28   14   34 1
  29   14   35 1
  30   15   16 1
  31   15   17 1
  32   16   36 1
  33   16   37 1
  34   16   38 1
  35   17   18 1
  36   18   23 ar
  37   18   19 ar
  38   19   20 ar
  39   19   39 1
  40   20   21 ar
  41   20   40 1
  42   21   22 ar
  43   21   41 1
  44   22   23 ar
  45   22   42 1

#	End of record

