#	Name: ASD03740173
#	Creating user name:	WinNT
#	Creation time:	15. 06. 2019 20:46

#	Modifying user name:	WinNT
#	Modification time:	15. 06. 2019 20:46

#	Program:	/corina/corina34_cracker 3.40 0067  02.08.2006

@<TRIPOS>MOLECULE
ASD03740173
  62   66    0    0    0
SMALL
NO_CHARGES


@<TRIPOS>ATOM
   1 C1            -0.0703     1.3750     0.9140 C.ar    
   2 C2            -0.0501    -0.0241     0.8710 C.ar    
   3 C3            -1.2042    -0.7322     0.7093 C.ar    
   4 C4            -2.4223    -0.0666     0.5844 C.ar    
   5 C5            -2.4559     1.3412     0.6261 C.ar    
   6 C6            -1.2706     2.0592     0.7977 C.ar    
   7 N7            -3.7157    -0.4877     0.4157 N.pl3   
   8 N8            -4.5577     0.6269     0.3509 N.2     
   9 C9            -3.8599     1.7232     0.4702 C.2     
  10 O10           -4.3491     2.9913     0.4531 O.3     
  11 C11           -4.1475    -1.8842     0.3179 C.3     
  12 C12           -4.4643    -2.4097     1.6943 C.ar    
  13 C13           -5.7449    -2.2909     2.2014 C.ar    
  14 C14           -6.0360    -2.7726     3.4637 C.ar    
  15 C15           -5.0456    -3.3738     4.2198 C.ar    
  16 C16           -3.7642    -3.4924     3.7118 C.ar    
  17 C17           -3.4756    -3.0154     2.4471 C.ar    
  18 C18           -5.7608     3.1399     0.2886 C.3     
  19 C19           -6.1211     4.6269     0.2942 C.3     
  20 C20           -7.6326     4.7860     0.1181 C.3     
  21 Cl21          -5.4104    -3.9786     5.8057 Cl      
  22 N22           -7.9786     6.2137     0.1234 N.3     
  23 C23           -9.3967     6.4150    -0.2266 C.3     
  24 C24            1.1961     2.1279     1.0907 C.ar    
  25 C25           -7.7319     6.8136     1.4519 C.3     
  26 C26           -8.8350     7.8894     1.6112 C.3     
  27 C27          -10.0471     7.1980     0.9332 C.3     
  28 C28          -10.0890     5.0608    -0.3932 C.3     
  29 C29            1.1914     3.5202     1.1353 C.ar    
  30 N30            2.3151     4.1899     1.2922 N.ar    
  31 C31            3.4780     3.5796     1.4126 C.ar    
  32 C32            3.5659     2.1997     1.3789 C.ar    
  33 C33            2.4122     1.4515     1.2209 C.ar    
  34 H34            0.8894    -0.5481     0.9666 H       
  35 H35           -1.1742    -1.8113     0.6775 H       
  36 H36           -1.2876     3.1385     0.8311 H       
  37 H37           -5.0374    -1.9463    -0.3085 H       
  38 H38           -3.3497    -2.4811    -0.1242 H       
  39 H39           -6.5179    -1.8212     1.6112 H       
  40 H40           -7.0364    -2.6794     3.8599 H       
  41 H41           -2.9907    -3.9616     4.3016 H       
  42 H42           -2.4754    -3.1079     2.0504 H       
  43 H43           -6.0648     2.6959    -0.6593 H       
  44 H44           -6.2768     2.6380     1.1071 H       
  45 H45           -5.8171     5.0709     1.2421 H       
  46 H46           -5.6051     5.1288    -0.5243 H       
  47 H47           -7.9367     4.3420    -0.8298 H       
  48 H48           -8.1486     4.2840     0.9365 H       
  49 H49           -9.4727     6.9864    -1.1517 H       
  50 H50           -7.8230     6.0582     2.2323 H       
  51 H51           -6.7448     7.2749     1.4825 H       
  52 H52           -9.0374     8.0883     2.6636 H       
  53 H53           -8.5650     8.8062     1.0871 H       
  54 H54          -10.7496     7.9390     0.5517 H       
  55 H55          -10.5413     6.5186     1.6276 H       
  56 H56           -9.9428     4.4648     0.5077 H       
  57 H57          -11.1554     5.2157    -0.5573 H       
  58 H58           -9.6620     4.5372    -1.2485 H       
  59 H59            0.2583     4.0556     1.0402 H       
  60 H60            4.3758     4.1665     1.5393 H       
  61 H61            4.5240     1.7111     1.4782 H       
  62 H62            2.4516     0.3726     1.1914 H       
@<TRIPOS>BOND
   1    1    2 ar
   2    1   24 1
   3    1    6 ar
   4    2    3 ar
   5    2   34 1
   6    3    4 ar
   7    3   35 1
   8    4    5 ar
   9    4    7 1
  10    5    6 ar
  11    5    9 1
  12    6   36 1
  13    7    8 1
  14    7   11 1
  15    8    9 2
  16    9   10 1
  17   10   18 1
  18   11   12 1
  19   11   37 1
  20   11   38 1
  21   12   13 ar
  22   12   17 ar
  23   13   14 ar
  24   13   39 1
  25   14   15 ar
  26   14   40 1
  27   15   16 ar
  28   15   21 1
  29   16   17 ar
  30   16   41 1
  31   17   42 1
  32   18   19 1
  33   18   43 1
  34   18   44 1
  35   19   20 1
  36   19   45 1
  37   19   46 1
  38   20   22 1
  39   20   47 1
  40   20   48 1
  41   22   23 1
  42   22   25 1
  43   23   28 1
  44   23   27 1
  45   23   49 1
  46   24   29 ar
  47   24   33 ar
  48   25   26 1
  49   25   50 1
  50   25   51 1
  51   26   27 1
  52   26   52 1
  53   26   53 1
  54   27   54 1
  55   27   55 1
  56   28   56 1
  57   28   57 1
  58   28   58 1
  59   29   30 ar
  60   29   59 1
  61   30   31 ar
  62   31   32 ar
  63   31   60 1
  64   32   33 ar
  65   32   61 1
  66   33   62 1

#	End of record

