#	Name: ASD03240386
#	Creating user name:	WinNT
#	Creation time:	15. 06. 2019 20:34

#	Modifying user name:	WinNT
#	Modification time:	15. 06. 2019 20:34

#	Program:	/corina/corina34_cracker 3.40 0067  02.08.2006

@<TRIPOS>MOLECULE
ASD03240386
  78   83    0    0    0
SMALL
NO_CHARGES


@<TRIPOS>ATOM
   1 C1            -0.7324     1.2671    -0.1068 C.3     
   2 C2            -0.7561    -0.2587    -0.2173 C.3     
   3 C3             0.1459    -0.7005    -1.3715 C.3     
   4 C4            -0.4306    -0.1899    -2.6936 C.3     
   5 C5             0.4578    -0.6250    -3.8304 C.ar    
   6 N6             0.2370    -1.7774    -4.4324 N.ar    
   7 C7             1.0182    -2.1651    -5.4356 C.ar    
   8 C8             0.7705    -3.4595    -6.1130 C.ar    
   9 C9             0.5123    -4.6049    -5.3609 C.ar    
  10 C10            0.2819    -5.8074    -5.9974 C.ar    
  11 C11            0.3072    -5.8780    -7.3787 C.ar    
  12 C12            0.5629    -4.7450    -8.1302 C.ar    
  13 C13            0.7891    -3.5357    -7.5052 C.ar    
  14 C14            2.0784    -1.3443    -5.8517 C.ar    
  15 N15            2.2937    -0.1843    -5.2391 N.ar    
  16 C16            1.5054     0.1941    -4.2447 C.ar    
  17 O17            1.7255     1.3782    -3.6203 O.3     
  18 C18            2.9541    -1.7693    -6.9688 C.ar    
  19 C19            3.2999    -0.8634    -7.9708 C.ar    
  20 C20            4.1162    -1.2650    -9.0084 C.ar    
  21 C21            4.5909    -2.5635    -9.0560 C.ar    
  22 C22            4.2509    -3.4669    -8.0650 C.ar    
  23 C23            3.4404    -3.0752    -7.0191 C.ar    
  24 C24            5.4816    -2.9958   -10.1921 C.3     
  25 N25            6.8855    -2.7556    -9.8325 N.3     
  26 C26            7.7920    -3.3768   -10.8065 C.3     
  27 C27            9.2373    -3.2322   -10.3246 C.3     
  28 C28            9.5706    -1.7463   -10.1647 C.3     
  29 C29            8.5819    -1.1124    -9.1822 C.3     
  30 C30            7.1555    -1.3185    -9.6972 C.3     
  31 N31           10.9339    -1.6032    -9.6480 N.am    
  32 C32           11.3883    -2.0902    -8.4779 C.2     
  33 O33           10.7254    -2.7237    -7.6778 O.2     
  34 N34           12.6875    -1.7705    -8.3277 N.am    
  35 C35           13.0933    -1.0461    -9.4461 C.ar    
  36 C36           11.9826    -0.9452   -10.2862 C.ar    
  37 C37           12.0880    -0.2683   -11.4918 C.ar    
  38 C38           13.2913     0.3032   -11.8564 C.ar    
  39 C39           14.3925     0.2031   -11.0234 C.ar    
  40 C40           14.2984    -0.4730    -9.8228 C.ar    
  41 C41           -0.2497    -0.8726     1.0894 C.3     
  42 H42            0.2878     1.6021     0.0806 H       
  43 H43           -1.0931     1.7045    -1.0378 H       
  44 H44           -1.3750     1.5819     0.7155 H       
  45 H45           -1.7763    -0.5936    -0.4048 H       
  46 H46            1.1457    -0.2905    -1.2287 H       
  47 H47            0.1994    -1.7889    -1.3947 H       
  48 H48           -1.4304    -0.5999    -2.8364 H       
  49 H49           -0.4841     0.8985    -2.6704 H       
  50 H50            0.4929    -4.5511    -4.2824 H       
  51 H51            0.0817    -6.6952    -5.4160 H       
  52 H52            0.1270    -6.8215    -7.8724 H       
  53 H53            0.5818    -4.8063    -9.2083 H       
  54 H54            0.9883    -2.6518    -8.0929 H       
  55 H55            1.2554     2.1249    -4.0160 H       
  56 H56            2.9293     0.1504    -7.9351 H       
  57 H57            4.3847    -0.5642    -9.7851 H       
  58 H58            4.6242    -4.4794    -8.1076 H       
  59 H59            3.1759    -3.7812    -6.2458 H       
  60 H60            5.3330    -4.0580   -10.3864 H       
  61 H61            5.2328    -2.4246   -11.0865 H       
  62 H62            7.5470    -4.4341   -10.9076 H       
  63 H63            7.6801    -2.8842   -11.7723 H       
  64 H64            9.3533    -3.7365    -9.3653 H       
  65 H65            9.9110    -3.6796   -11.0554 H       
  66 H66            9.4925    -1.2493   -11.1317 H       
  67 H67            8.6875    -1.5833    -8.2049 H       
  68 H68            8.7873    -0.0453    -9.0968 H       
  69 H69            7.0467    -0.8355   -10.6683 H       
  70 H70            6.4483    -0.8808    -8.9927 H       
  71 H71           13.2457    -2.0044    -7.5697 H       
  72 H72           11.2312    -0.1885   -12.1444 H       
  73 H73           13.3736     0.8301   -12.7955 H       
  74 H74           15.3302     0.6522   -11.3155 H       
  75 H75           15.1595    -0.5487    -9.1754 H       
  76 H76           -0.8923    -0.5579     1.9117 H       
  77 H77           -0.2666    -1.9596     1.0107 H       
  78 H78            0.7705    -0.5377     1.2769 H       
@<TRIPOS>BOND
   1    1    2 1
   2    1   42 1
   3    1   43 1
   4    1   44 1
   5    2    3 1
   6    2   41 1
   7    2   45 1
   8    3    4 1
   9    3   46 1
  10    3   47 1
  11    4    5 1
  12    4   48 1
  13    4   49 1
  14    5    6 ar
  15    5   16 ar
  16    6    7 ar
  17    7    8 1
  18    7   14 ar
  19    8    9 ar
  20    8   13 ar
  21    9   10 ar
  22    9   50 1
  23   10   11 ar
  24   10   51 1
  25   11   12 ar
  26   11   52 1
  27   12   13 ar
  28   12   53 1
  29   13   54 1
  30   14   15 ar
  31   14   18 1
  32   15   16 ar
  33   16   17 1
  34   17   55 1
  35   18   19 ar
  36   18   23 ar
  37   19   20 ar
  38   19   56 1
  39   20   21 ar
  40   20   57 1
  41   21   22 ar
  42   21   24 1
  43   22   23 ar
  44   22   58 1
  45   23   59 1
  46   24   25 1
  47   24   60 1
  48   24   61 1
  49   25   26 1
  50   25   30 1
  51   26   27 1
  52   26   62 1
  53   26   63 1
  54   27   28 1
  55   27   64 1
  56   27   65 1
  57   28   29 1
  58   28   31 1
  59   28   66 1
  60   29   30 1
  61   29   67 1
  62   29   68 1
  63   30   69 1
  64   30   70 1
  65   31   32 am
  66   31   36 1
  67   32   33 2
  68   32   34 am
  69   34   35 1
  70   34   71 1
  71   35   36 ar
  72   35   40 ar
  73   36   37 ar
  74   37   38 ar
  75   37   72 1
  76   38   39 ar
  77   38   73 1
  78   39   40 ar
  79   39   74 1
  80   40   75 1
  81   41   76 1
  82   41   77 1
  83   41   78 1

#	End of record

