#	Name: ASD02500445
#	Creating user name:	WinNT
#	Creation time:	15. 06. 2019 20:22

#	Modifying user name:	WinNT
#	Modification time:	15. 06. 2019 20:22

#	Program:	/corina/corina34_cracker 3.40 0067  02.08.2006

@<TRIPOS>MOLECULE
ASD02500445
  73   77    0    0    0
SMALL
NO_CHARGES


@<TRIPOS>ATOM
   1 N1             2.0084     3.8662    -0.6080 N.ar    
   2 C2             2.9911     3.5034     0.1800 C.ar    
   3 C3             4.0934     2.7988    -0.2994 C.ar    
   4 C4             4.1686     2.4686    -1.6225 C.ar    
   5 C5             3.1112     2.8595    -2.4657 C.ar    
   6 C6             3.1188     2.5563    -3.8364 C.ar    
   7 C7             2.0771     2.9524    -4.6190 C.ar    
   8 C8             1.0032     3.6555    -4.0775 C.ar    
   9 C9             0.9634     3.9662    -2.7529 C.ar    
  10 C10            2.0199     3.5747    -1.9127 C.ar    
  11 S11           -0.4068     4.8569    -2.0943 S.o2    
  12 O12            0.1381     5.9193    -1.3239 O.2     
  13 O13           -1.3081     5.0624    -3.1736 O.2     
  14 N14           -1.1771     3.8523    -1.0267 N.am    
  15 C15           -1.7340     2.6590    -1.4730 C.ar    
  16 C16           -1.5069     1.4801    -0.7682 C.ar    
  17 C17           -2.0567     0.2975    -1.2073 C.ar    
  18 C18           -2.8438     0.2807    -2.3624 C.ar    
  19 C19           -3.0700     1.4662    -3.0679 C.ar    
  20 C20           -2.5221     2.6466    -2.6205 C.ar    
  21 C21           -3.4343    -0.9855    -2.8362 C.2     
  22 O22           -4.5660    -0.9998    -3.2807 O.2     
  23 N23           -2.7194    -2.1264    -2.7763 N.am    
  24 C24           -3.2580    -3.3840    -3.3162 C.3     
  25 C25           -2.2137    -3.9975    -4.2550 C.3     
  26 N26           -0.9347    -4.1243    -3.5437 N.3     
  27 C27           -0.4095    -2.8091    -3.1532 C.3     
  28 C28           -1.3774    -2.1457    -2.1747 C.3     
  29 C29            0.0451    -4.8641    -4.3501 C.3     
  30 C30            1.4038    -4.7643    -3.7059 C.ar    
  31 C31            1.7225    -5.5812    -2.6314 C.ar    
  32 C32            2.9756    -5.4883    -2.0381 C.ar    
  33 C33            3.9049    -4.5763    -2.5246 C.ar    
  34 C34            3.5785    -3.7633    -3.5992 C.ar    
  35 C35            2.3326    -3.8627    -4.1903 C.ar    
  36 O36            5.1325    -4.4813    -1.9471 O.3     
  37 C37            6.0367    -3.5223    -2.4992 C.3     
  38 O38            3.2920    -6.2879    -0.9832 O.3     
  39 C39            2.9047    -5.8328     0.3148 C.3     
  40 O40            0.8096    -6.4716    -2.1588 O.3     
  41 C41            0.7818    -7.7608    -2.7746 C.3     
  42 H42            2.9452     3.7576     1.2286 H       
  43 H43            4.8879     2.5144     0.3746 H       
  44 H44            5.0159     1.9231    -2.0112 H       
  45 H45            3.9461     2.0124    -4.2679 H       
  46 H46            2.0837     2.7187    -5.6734 H       
  47 H47            0.1893     3.9592    -4.7191 H       
  48 H48           -1.2397     4.0964    -0.0900 H       
  49 H49           -0.8984     1.4936     0.1240 H       
  50 H50           -1.8799    -0.6168    -0.6603 H       
  51 H51           -3.6774     1.4564    -3.9609 H       
  52 H52           -2.7003     3.5636    -3.1624 H       
  53 H53           -3.4658    -4.0743    -2.4986 H       
  54 H54           -4.1746    -3.1818    -3.8703 H       
  55 H55           -2.5494    -4.9829    -4.5782 H       
  56 H56           -2.0838    -3.3537    -5.1249 H       
  57 H57            0.5632    -2.9326    -2.6772 H       
  58 H58           -0.3048    -2.1818    -4.0384 H       
  59 H59           -1.0512    -1.1251    -1.9744 H       
  60 H60           -1.4009    -2.7146    -1.2452 H       
  61 H61           -0.2516    -5.9112    -4.4119 H       
  62 H62            0.0862    -4.4384    -5.3527 H       
  63 H63            4.3000    -3.0544    -3.9778 H       
  64 H64            2.0830    -3.2311    -5.0300 H       
  65 H65            6.9764    -3.5493    -1.9475 H       
  66 H66            6.2233    -3.7598    -3.5465 H       
  67 H67            5.6001    -2.5264    -2.4247 H       
  68 H68            1.8171    -5.8002     0.3789 H       
  69 H69            3.2929    -6.5160     1.0702 H       
  70 H70            3.3088    -4.8349     0.4855 H       
  71 H71            0.0716    -8.3992    -2.2490 H       
  72 H72            0.4774    -7.6594    -3.8163 H       
  73 H73            1.7751    -8.2072    -2.7281 H       
@<TRIPOS>BOND
   1    1    2 ar
   2    1   10 ar
   3    2    3 ar
   4    2   42 1
   5    3    4 ar
   6    3   43 1
   7    4    5 ar
   8    4   44 1
   9    5    6 ar
  10    5   10 ar
  11    6    7 ar
  12    6   45 1
  13    7    8 ar
  14    7   46 1
  15    8    9 ar
  16    8   47 1
  17    9   10 ar
  18    9   11 1
  19   11   12 2
  20   11   13 2
  21   11   14 am
  22   14   15 1
  23   14   48 1
  24   15   16 ar
  25   15   20 ar
  26   16   17 ar
  27   16   49 1
  28   17   18 ar
  29   17   50 1
  30   18   19 ar
  31   18   21 1
  32   19   20 ar
  33   19   51 1
  34   20   52 1
  35   21   22 2
  36   21   23 am
  37   23   24 1
  38   23   28 1
  39   24   25 1
  40   24   53 1
  41   24   54 1
  42   25   26 1
  43   25   55 1
  44   25   56 1
  45   26   27 1
  46   26   29 1
  47   27   28 1
  48   27   57 1
  49   27   58 1
  50   28   59 1
  51   28   60 1
  52   29   30 1
  53   29   61 1
  54   29   62 1
  55   30   31 ar
  56   30   35 ar
  57   31   32 ar
  58   31   40 1
  59   32   33 ar
  60   32   38 1
  61   33   34 ar
  62   33   36 1
  63   34   35 ar
  64   34   63 1
  65   35   64 1
  66   36   37 1
  67   37   65 1
  68   37   66 1
  69   37   67 1
  70   38   39 1
  71   39   68 1
  72   39   69 1
  73   39   70 1
  74   40   41 1
  75   41   71 1
  76   41   72 1
  77   41   73 1

#	End of record

