#	Name: ASD01914937
#	Creating user name:	WinNT
#	Creation time:	15. 06. 2019 20:04

#	Modifying user name:	WinNT
#	Modification time:	15. 06. 2019 20:04

#	Program:	/corina/corina34_cracker 3.40 0067  02.08.2006

@<TRIPOS>MOLECULE
ASD01914937
  55   59    0    0    0
SMALL
NO_CHARGES


@<TRIPOS>ATOM
   1 C1             0.0007     1.3367    -0.0248 C.2     
   2 N2             0.0091     0.0645     0.3142 N.2     
   3 C3             1.3157     1.7180    -0.3405 C.2     
   4 C4             2.1164     0.6256    -0.1783 C.2     
   5 N5             1.3247    -0.4081     0.2269 N.pl3   
   6 C6            -1.1943     2.2160    -0.0717 C.ar    
   7 C7            -2.4484     1.7087     0.2622 C.ar    
   8 C8            -3.5565     2.5295     0.2177 C.ar    
   9 C9            -3.4236     3.8563    -0.1587 C.ar    
  10 C10           -2.1788     4.3645    -0.4919 C.ar    
  11 C11           -1.0643     3.5520    -0.4441 C.ar    
  12 C12            3.5784     0.5719    -0.4020 C.ar    
  13 C13            1.7714    -1.7722     0.5198 C.3     
  14 C14            2.0455    -1.9051     1.9957 C.2     
  15 N15            2.4705    -3.0809     2.4990 N.am    
  16 O16            1.8836    -0.9539     2.7305 O.2     
  17 C17            2.7435    -3.2310     3.9362 C.3     
  18 C18            1.7603    -4.2478     4.5301 C.3     
  19 C19            1.6785    -5.4390     3.6110 C.2     
  20 C20            2.0780    -5.4452     2.3248 C.2     
  21 C21            2.6677    -4.2504     1.6236 C.3     
  22 F22           -4.5113     4.6566    -0.2014 F       
  23 C23            4.3476    -0.4073     0.2268 C.ar    
  24 C24           -4.9134     1.9820     0.5786 C.3     
  25 C25            5.7102    -0.4521     0.0143 C.ar    
  26 C26            6.3137     0.4715    -0.8203 C.ar    
  27 C27            5.5564     1.4454    -1.4464 C.ar    
  28 C28            4.1921     1.4968    -1.2469 C.ar    
  29 O29            1.2119    -6.6661     3.8864 O.3     
  30 C30            1.3269    -7.4044     2.7715 C.2     
  31 N31            1.8492    -6.6667     1.8298 N.2     
  32 C32            0.9201    -8.8486     2.6302 C.3     
  33 H33            1.6353     2.7004    -0.6553 H       
  34 H34           -2.5530     0.6744     0.5550 H       
  35 H35           -2.0796     5.3992    -0.7851 H       
  36 H36           -0.0940     3.9491    -0.7036 H       
  37 H37            0.9943    -2.4792     0.2295 H       
  38 H38            2.6827    -1.9840    -0.0395 H       
  39 H39            3.7645    -3.5855     4.0782 H       
  40 H40            2.6180    -2.2692     4.4335 H       
  41 H41            2.1128    -4.5668     5.5110 H       
  42 H42            0.7752    -3.7910     4.6246 H       
  43 H43            2.1631    -4.0936     0.6702 H       
  44 H44            3.7339    -4.4059     1.4588 H       
  45 H45            3.8776    -1.1287     0.8788 H       
  46 H46           -5.0854     2.1125     1.6470 H       
  47 H47           -5.6812     2.5161     0.0190 H       
  48 H48           -4.9548     0.9213     0.3308 H       
  49 H49            6.3068    -1.2096     0.5007 H       
  50 H50            7.3806     0.4324    -0.9835 H       
  51 H51            6.0334     2.1641    -2.0962 H       
  52 H52            3.6018     2.2573    -1.7365 H       
  53 H53           -0.1187    -8.9032     2.3047 H       
  54 H54            1.5581    -9.3352     1.8924 H       
  55 H55            1.0268    -9.3518     3.5911 H       
@<TRIPOS>BOND
   1    1    2 2
   2    1    3 1
   3    1    6 1
   4    2    5 1
   5    3    4 2
   6    3   33 1
   7    4    5 1
   8    4   12 1
   9    5   13 1
  10    6    7 ar
  11    6   11 ar
  12    7    8 ar
  13    7   34 1
  14    8    9 ar
  15    8   24 1
  16    9   10 ar
  17    9   22 1
  18   10   11 ar
  19   10   35 1
  20   11   36 1
  21   12   23 ar
  22   12   28 ar
  23   13   14 1
  24   13   37 1
  25   13   38 1
  26   14   15 am
  27   14   16 2
  28   15   17 1
  29   15   21 1
  30   17   18 1
  31   17   39 1
  32   17   40 1
  33   18   19 1
  34   18   41 1
  35   18   42 1
  36   19   20 2
  37   19   29 1
  38   20   21 1
  39   20   31 1
  40   21   43 1
  41   21   44 1
  42   23   25 ar
  43   23   45 1
  44   24   46 1
  45   24   47 1
  46   24   48 1
  47   25   26 ar
  48   25   49 1
  49   26   27 ar
  50   26   50 1
  51   27   28 ar
  52   27   51 1
  53   28   52 1
  54   29   30 1
  55   30   31 2
  56   30   32 1
  57   32   53 1
  58   32   54 1
  59   32   55 1

#	End of record

