#	Name: ASD09380007
#	Creating user name:	WinNT
#	Creation time:	15. 06. 2019 21:21

#	Modifying user name:	WinNT
#	Modification time:	15. 06. 2019 21:21

#	Program:	/corina/corina34_cracker 3.40 0067  02.08.2006

@<TRIPOS>MOLECULE
ASD09380007
  69   72    0    0    0
SMALL
NO_CHARGES


@<TRIPOS>ATOM
   1 O1            -0.0161     1.3381     0.0094 O.3     
   2 C2             0.0021    -0.0041     0.0020 C.2     
   3 O3             1.0565    -0.5939    -0.0112 O.2     
   4 C4            -1.2926    -0.7753     0.0102 C.3     
   5 C5            -0.9927    -2.2755    -0.0007 C.3     
   6 C6            -0.3310    -2.6974    -1.3339 C.3     
   7 O7            -0.8947    -3.9983    -1.5716 O.3     
   8 C8            -2.1205    -4.0714    -0.9838 C.ar    
   9 C9            -2.2754    -3.0847    -0.0181 C.ar    
  10 C10           -3.4416    -2.9832     0.7087 C.ar    
  11 C11           -4.4799    -3.8664     0.4782 C.ar    
  12 C12           -4.3418    -4.8534    -0.4877 C.ar    
  13 C13           -3.1695    -4.9564    -1.2163 C.ar    
  14 O14           -5.3614    -5.7216    -0.7193 O.3     
  15 C15           -6.5431    -5.5592     0.0675 C.3     
  16 C16           -7.5562    -6.6031    -0.3262 C.ar    
  17 C17           -7.5731    -7.8263     0.3189 C.ar    
  18 C18           -8.5004    -8.7893    -0.0374 C.ar    
  19 C19           -9.4141    -8.5337    -1.0394 C.ar    
  20 C20           -9.4019    -7.3025    -1.6925 C.ar    
  21 C21           -8.4692    -6.3344    -1.3260 C.ar    
  22 C22          -10.3815    -7.0220    -2.7709 C.ar    
  23 C23          -11.7425    -6.9557    -2.4779 C.ar    
  24 C24          -12.2212    -7.1682    -1.0649 C.3     
  25 C25          -12.6507    -6.6948    -3.4824 C.ar    
  26 C26          -12.2106    -6.4989    -4.7844 C.ar    
  27 C27          -10.8555    -6.5648    -5.0793 C.ar    
  28 C28           -9.9421    -6.8187    -4.0779 C.ar    
  29 C29           -8.4713    -6.8897    -4.3987 C.3     
  30 O30          -13.1077    -6.2425    -5.7721 O.3     
  31 C31          -12.5861    -6.0511    -7.0887 C.3     
  32 C32          -13.7372    -5.7757    -8.0582 C.3     
  33 C33          -13.1788    -5.5708    -9.4678 C.3     
  34 S34          -14.5436    -5.2443   -10.6174 S.o2    
  35 O35          -15.3540    -6.4086   -10.7002 O.2     
  36 O36          -15.1436    -4.0047   -10.2673 O.2     
  37 C37          -13.6662    -5.0376   -12.1916 C.3     
  38 H38            0.8394     1.7888     0.0037 H       
  39 H39           -1.8592    -0.5245     0.9070 H       
  40 H40           -1.8762    -0.5150    -0.8728 H       
  41 H41           -0.3683    -2.5522     0.8489 H       
  42 H42           -0.6003    -2.0078    -2.1339 H       
  43 H43            0.7518    -2.7599    -1.2248 H       
  44 H44           -3.5445    -2.2135     1.4592 H       
  45 H45           -5.3944    -3.7889     1.0475 H       
  46 H46           -3.0680    -5.7261    -1.9671 H       
  47 H47           -6.2955    -5.6730     1.1229 H       
  48 H48           -6.9595    -4.5663    -0.1029 H       
  49 H49           -6.8596    -8.0308     1.1034 H       
  50 H50           -8.5089    -9.7430     0.4693 H       
  51 H51          -10.1370    -9.2864    -1.3172 H       
  52 H52           -8.4554    -5.3787    -1.8288 H       
  53 H53          -12.2484    -6.2118    -0.5427 H       
  54 H54          -13.2211    -7.6018    -1.0813 H       
  55 H55          -11.5402    -7.8449    -0.5485 H       
  56 H56          -13.7055    -6.6433    -3.2560 H       
  57 H57          -10.5161    -6.4127    -6.0933 H       
  58 H58           -8.0296    -5.8981    -4.2998 H       
  59 H59           -7.9815    -7.5762    -3.7081 H       
  60 H60           -8.3391    -7.2461    -5.4203 H       
  61 H61          -11.9008    -5.2035    -7.0883 H       
  62 H62          -12.0535    -6.9488    -7.4026 H       
  63 H63          -14.4226    -6.6233    -8.0586 H       
  64 H64          -14.2698    -4.8780    -7.7443 H       
  65 H65          -12.4935    -4.7232    -9.4674 H       
  66 H66          -12.6462    -6.4685    -9.7817 H       
  67 H67          -13.1193    -5.9510   -12.4254 H       
  68 H68          -14.3857    -4.8319   -12.9842 H       
  69 H69          -12.9666    -4.2057   -12.1111 H       
@<TRIPOS>BOND
   1    1    2 1
   2    1   38 1
   3    2    3 2
   4    2    4 1
   5    4    5 1
   6    4   39 1
   7    4   40 1
   8    5    6 1
   9    5    9 1
  10    5   41 1
  11    6    7 1
  12    6   42 1
  13    6   43 1
  14    7    8 1
  15    8    9 ar
  16    8   13 ar
  17    9   10 ar
  18   10   11 ar
  19   10   44 1
  20   11   12 ar
  21   11   45 1
  22   12   13 ar
  23   12   14 1
  24   13   46 1
  25   14   15 1
  26   15   16 1
  27   15   47 1
  28   15   48 1
  29   16   17 ar
  30   16   21 ar
  31   17   18 ar
  32   17   49 1
  33   18   19 ar
  34   18   50 1
  35   19   20 ar
  36   19   51 1
  37   20   21 ar
  38   20   22 1
  39   21   52 1
  40   22   23 ar
  41   22   28 ar
  42   23   24 1
  43   23   25 ar
  44   24   53 1
  45   24   54 1
  46   24   55 1
  47   25   26 ar
  48   25   56 1
  49   26   27 ar
  50   26   30 1
  51   27   28 ar
  52   27   57 1
  53   28   29 1
  54   29   58 1
  55   29   59 1
  56   29   60 1
  57   30   31 1
  58   31   32 1
  59   31   61 1
  60   31   62 1
  61   32   33 1
  62   32   63 1
  63   32   64 1
  64   33   34 1
  65   33   65 1
  66   33   66 1
  67   34   35 2
  68   34   36 2
  69   34   37 1
  70   37   67 1
  71   37   68 1
  72   37   69 1

#	End of record

