#	Name: ASD01150403
#	Creating user name:	WinNT
#	Creation time:	15. 06. 2019 19:04

#	Modifying user name:	WinNT
#	Modification time:	15. 06. 2019 19:04

#	Program:	/corina/corina34_cracker 3.40 0067  02.08.2006

@<TRIPOS>MOLECULE
ASD01150403
  52   54    0    0    0
SMALL
NO_CHARGES


@<TRIPOS>ATOM
   1 C1             0.3804     1.5257     0.7458 C.ar    
   2 C2             0.4560     0.1761     1.0298 C.ar    
   3 C3             1.2861    -0.6435     0.2891 C.ar    
   4 C4             2.0476    -0.1122    -0.7441 C.ar    
   5 C5             1.9737     1.2431    -1.0324 C.ar    
   6 C6             1.1392     2.0635    -0.2868 C.ar    
   7 N7             1.0618     3.4311    -0.5743 N.am    
   8 C8            -0.1429     4.0149    -0.7032 C.2     
   9 N9            -0.2509     5.3282    -0.9790 N.am    
  10 C10            0.8590     6.0799    -1.1311 C.2     
  11 C11            2.1740     5.4484    -0.9916 C.2     
  12 N12            2.2393     4.1744    -0.7183 N.2     
  13 O13            0.7693     7.2677    -1.3813 O.2     
  14 C14           -1.5745     5.9413    -1.1147 C.3     
  15 O15           -1.1496     3.3465    -0.5689 O.2     
  16 C16           -2.0359     6.4429     0.2294 C.ar    
  17 C17           -1.7394     7.7301     0.6352 C.ar    
  18 N18           -2.1397     8.1762     1.8099 N.ar    
  19 C19           -2.8332     7.4209     2.6388 C.ar    
  20 C20           -3.1675     6.1229     2.3010 C.ar    
  21 C21           -2.7683     5.6205     1.0722 C.ar    
  22 N22            2.8886    -0.9427    -1.4930 N.am    
  23 C23            2.5154    -2.2084    -1.7675 C.2     
  24 O24            1.4908    -2.6543    -1.2960 O.2     
  25 C25            3.3714    -3.0695    -2.6601 C.3     
  26 C26            3.4330     6.2603    -1.1560 C.3     
  27 C27           -3.2661     7.9791     3.9701 C.3     
  28 C28           -4.6894     8.5283     3.8543 C.3     
  29 C29           -3.2314     6.8702     5.0236 C.3     
  30 H30           -0.2724     2.1629     1.3239 H       
  31 H31           -0.1348    -0.2394     1.8328 H       
  32 H32            1.3432    -1.6983     0.5139 H       
  33 H33            2.5650     1.6587    -1.8349 H       
  34 H34           -1.5187     6.7753    -1.8142 H       
  35 H35           -2.2815     5.2005    -1.4882 H       
  36 H36           -1.1729     8.3782    -0.0171 H       
  37 H37           -3.7355     5.5090     2.9844 H       
  38 H38           -3.0151     4.6101     0.7814 H       
  39 H39            3.7401    -0.6076    -1.8146 H       
  40 H40            4.0998    -3.6090    -2.0547 H       
  41 H41            2.7404    -3.7827    -3.1906 H       
  42 H42            3.8931    -2.4398    -3.3808 H       
  43 H43            3.7314     6.6675    -0.1900 H       
  44 H44            4.2282     5.6232    -1.5431 H       
  45 H45            3.2498     7.0773    -1.8538 H       
  46 H46           -2.5898     8.7816     4.2648 H       
  47 H47           -5.3656     7.7258     3.5596 H       
  48 H48           -5.0025     8.9320     4.8172 H       
  49 H49           -4.7141     9.3183     3.1038 H       
  50 H50           -2.2174     6.4789     5.1061 H       
  51 H51           -3.5444     7.2739     5.9865 H       
  52 H52           -3.9076     6.0677     4.7289 H       
@<TRIPOS>BOND
   1    1    2 ar
   2    1    6 ar
   3    1   30 1
   4    2    3 ar
   5    2   31 1
   6    3    4 ar
   7    3   32 1
   8    4    5 ar
   9    4   22 1
  10    5    6 ar
  11    5   33 1
  12    6    7 1
  13    7    8 am
  14    7   12 1
  15    8    9 am
  16    8   15 2
  17    9   10 am
  18    9   14 1
  19   10   11 1
  20   10   13 2
  21   11   12 2
  22   11   26 1
  23   14   16 1
  24   14   34 1
  25   14   35 1
  26   16   17 ar
  27   16   21 ar
  28   17   18 ar
  29   17   36 1
  30   18   19 ar
  31   19   20 ar
  32   19   27 1
  33   20   21 ar
  34   20   37 1
  35   21   38 1
  36   22   23 am
  37   22   39 1
  38   23   24 2
  39   23   25 1
  40   25   40 1
  41   25   41 1
  42   25   42 1
  43   26   43 1
  44   26   44 1
  45   26   45 1
  46   27   28 1
  47   27   29 1
  48   27   46 1
  49   28   47 1
  50   28   48 1
  51   28   49 1
  52   29   50 1
  53   29   51 1
  54   29   52 1

#	End of record

