#	Name: ASD08150575
#	Creating user name:	WinNT
#	Creation time:	15. 06. 2019 21:16

#	Modifying user name:	WinNT
#	Modification time:	15. 06. 2019 21:16

#	Program:	/corina/corina34_cracker 3.40 0067  02.08.2006

@<TRIPOS>MOLECULE
ASD08150575
  46   50    0    0    0
SMALL
NO_CHARGES


@<TRIPOS>ATOM
   1 N1             0.0551     1.4660     0.1685 N.am    
   2 C2             0.0709     0.1210     0.0937 C.2     
   3 C3             1.2889    -0.5883     0.0729 C.2     
   4 C4             2.4693     0.0794     0.1288 C.2     
   5 C5             2.4565     1.4945     0.2076 C.ar    
   6 C6             3.6525     2.2353     0.2674 C.ar    
   7 N7             3.6378     3.5406     0.3396 N.ar    
   8 C8             2.4961     4.2453     0.3608 C.ar    
   9 C9             1.2454     3.5825     0.3045 C.ar    
  10 C10            1.2267     2.1703     0.2258 C.ar    
  11 C11            0.1253     5.7076     0.4070 C.ar    
  12 C12            1.3662     6.3565     0.4613 C.ar    
  13 C13            2.5266     5.6471     0.4396 C.ar    
  14 O14           -0.9824    -0.4909     0.0436 O.2     
  15 C15           -1.1681     2.1479     0.1818 C.ar    
  16 C16           -1.7711     2.5173    -1.0132 C.ar    
  17 C17           -2.9777     3.1894    -0.9979 C.ar    
  18 C18           -3.5859     3.4947     0.2080 C.ar    
  19 C19           -2.9860     3.1271     1.4012 C.ar    
  20 C20           -1.7824     2.4506     1.3901 C.ar    
  21 C21            0.0614     4.3264     0.3283 C.ar    
  22 C22           -1.1268     6.5047     0.4321 C.2     
  23 C23           -1.2247     7.8452     0.6673 C.2     
  24 N24           -2.5302     8.1765     0.6018 N.pl3   
  25 N25           -3.2623     7.0168     0.3197 N.2     
  26 C26           -2.4293     6.0158     0.2116 C.2     
  27 C27           -3.0865     9.5181     0.7937 C.3     
  28 F28           -4.7659     4.1525     0.2209 F       
  29 C29           -1.1094     2.1857    -2.3258 C.3     
  30 F30           -1.9009     2.6561    -3.3791 F       
  31 F31            0.1492     2.7942    -2.3805 F       
  32 F32           -0.9620     0.7989    -2.4365 F       
  33 H33            1.2828    -1.6666     0.0126 H       
  34 H34            3.4049    -0.4599     0.1139 H       
  35 H35            4.5992     1.7158     0.2537 H       
  36 H36            1.4016     7.4342     0.5208 H       
  37 H37            3.4741     6.1635     0.4834 H       
  38 H38           -3.4469     3.4772    -1.9270 H       
  39 H39           -3.4619     3.3666     2.3406 H       
  40 H40           -1.3150     2.1641     2.3206 H       
  41 H41           -0.8955     3.8276     0.2853 H       
  42 H42           -0.4051     8.5188     0.8695 H       
  43 H43           -2.6941     4.9909    -0.0024 H       
  44 H44           -3.1273    10.0350    -0.1650 H       
  45 H45           -4.0921     9.4387     1.2068 H       
  46 H46           -2.4541    10.0786     1.4821 H       
@<TRIPOS>BOND
   1    1    2 am
   2    1   10 1
   3    1   15 1
   4    2    3 1
   5    2   14 2
   6    3    4 2
   7    3   33 1
   8    4    5 1
   9    4   34 1
  10    5    6 ar
  11    5   10 ar
  12    6    7 ar
  13    6   35 1
  14    7    8 ar
  15    8    9 ar
  16    8   13 ar
  17    9   10 ar
  18    9   21 ar
  19   11   12 ar
  20   11   22 1
  21   11   21 ar
  22   12   13 ar
  23   12   36 1
  24   13   37 1
  25   15   16 ar
  26   15   20 ar
  27   16   17 ar
  28   16   29 1
  29   17   18 ar
  30   17   38 1
  31   18   19 ar
  32   18   28 1
  33   19   20 ar
  34   19   39 1
  35   20   40 1
  36   21   41 1
  37   22   23 2
  38   22   26 1
  39   23   24 1
  40   23   42 1
  41   24   25 1
  42   24   27 1
  43   25   26 2
  44   26   43 1
  45   27   44 1
  46   27   45 1
  47   27   46 1
  48   29   30 1
  49   29   31 1
  50   29   32 1

#	End of record

