#	Name: ASD04590725
#	Creating user name:	WinNT
#	Creation time:	15. 06. 2019 20:51

#	Modifying user name:	WinNT
#	Modification time:	15. 06. 2019 20:51

#	Program:	/corina/corina34_cracker 3.40 0067  02.08.2006

@<TRIPOS>MOLECULE
ASD04590725
  70   75    0    0    0
SMALL
NO_CHARGES


@<TRIPOS>ATOM
   1 N1            -0.0171     1.3233    -0.0119 N.ar    
   2 C2             0.0017    -0.0035    -0.0051 C.ar    
   3 N3             1.1297    -0.6949    -0.0122 N.ar    
   4 C4             2.3049    -0.0726    -0.0266 C.ar    
   5 C5             2.3189     1.3369    -0.0341 C.ar    
   6 C6             1.1070     2.0204    -0.0261 C.ar    
   7 N7             3.6028    -0.5182    -0.0366 N.pl3   
   8 C8             4.4811     0.5530    -0.0505 C.ar    
   9 C9             3.7311     1.7391    -0.0496 C.ar    
  10 C10            5.8732     0.6490    -0.0642 C.ar    
  11 N11            6.4600     1.8327    -0.0760 N.ar    
  12 C12            5.7733     2.9631    -0.0753 C.ar    
  13 C13            4.4064     2.9618    -0.0630 C.ar    
  14 C14            4.0029    -1.9275    -0.0326 C.3     
  15 N15           -1.2020    -0.6888     0.0103 N.pl3   
  16 C16           -2.4019     0.0119     0.1313 C.ar    
  17 N17           -2.3783     1.3196     0.3318 N.ar    
  18 C18           -3.4884     2.0230     0.4517 C.ar    
  19 C19           -4.7291     1.4088     0.3708 C.ar    
  20 C20           -4.7935     0.0322     0.1601 C.ar    
  21 C21           -3.6094    -0.6709     0.0340 C.ar    
  22 N22           -5.9022     2.1618     0.4995 N.3     
  23 C23           -5.5951     3.5827     0.7148 C.3     
  24 C24           -6.8997     4.3811     0.7706 C.3     
  25 N25           -7.7451     3.8581     1.8530 N.3     
  26 C26           -8.0522     2.4372     1.6377 C.3     
  27 C27           -6.7476     1.6388     1.5818 C.3     
  28 C28            3.4599    -2.6083     1.2254 C.3     
  29 C29            3.8778    -4.0801     1.2295 C.3     
  30 C30            3.3118    -4.7744    -0.0108 C.3     
  31 C31            3.8548    -4.0937    -1.2688 C.3     
  32 C32            3.4369    -2.6218    -1.2730 C.3     
  33 C33            3.7297    -6.2463    -0.0066 C.3     
  34 C34            1.7849    -4.6778     0.0027 C.3     
  35 O35            6.6281    -0.4790    -0.0651 O.3     
  36 C36            8.0470    -0.3101    -0.0795 C.3     
  37 H37            1.0846     3.1002    -0.0312 H       
  38 H38            6.3023     3.9046    -0.0853 H       
  39 H39            3.8572     3.8916    -0.0622 H       
  40 H40            5.0907    -1.9963    -0.0423 H       
  41 H41           -1.2104    -1.6560    -0.0630 H       
  42 H42           -3.4300     3.0889     0.6151 H       
  43 H43           -5.7459    -0.4726     0.0932 H       
  44 H44           -3.6222    -1.7383    -0.1302 H       
  45 H45           -5.0565     3.6999     1.6551 H       
  46 H46           -4.9789     3.9499    -0.1059 H       
  47 H47           -6.6757     5.4310     0.9592 H       
  48 H48           -7.4252     4.2859    -0.1796 H       
  49 H49           -7.3111     4.0019     2.7524 H       
  50 H50           -8.6684     2.0699     2.4583 H       
  51 H51           -8.5908     2.3199     0.6973 H       
  52 H52           -6.9716     0.5888     1.3933 H       
  53 H53           -6.2221     1.7339     2.5320 H       
  54 H54            3.8631    -2.1136     2.1090 H       
  55 H55            2.3721    -2.5394     1.2350 H       
  56 H56            4.9656    -4.1489     1.2199 H       
  57 H57            3.4910    -4.5651     2.1258 H       
  58 H58            4.9426    -4.1625    -1.2784 H       
  59 H59            3.4516    -4.5883    -2.1524 H       
  60 H60            2.3492    -2.5530    -1.2633 H       
  61 H61            3.8238    -2.1368    -2.1692 H       
  62 H62            3.3429    -6.7313     0.8896 H       
  63 H63            3.3265    -6.7409    -0.8903 H       
  64 H64            4.8175    -6.3151    -0.0163 H       
  65 H65            1.4872    -3.6292    -0.0003 H       
  66 H66            1.3817    -5.1725    -0.8809 H       
  67 H67            1.3981    -5.1628     0.8989 H       
  68 H68            8.3386     0.2381    -0.9753 H       
  69 H69            8.3554     0.2480     0.8045 H       
  70 H70            8.5293    -1.2876    -0.0786 H       
@<TRIPOS>BOND
   1    1    2 ar
   2    1    6 ar
   3    2    3 ar
   4    2   15 1
   5    3    4 ar
   6    4    5 ar
   7    4    7 1
   8    5    6 ar
   9    5    9 1
  10    6   37 1
  11    7    8 1
  12    7   14 1
  13    8    9 ar
  14    8   10 ar
  15    9   13 ar
  16   10   11 ar
  17   10   35 1
  18   11   12 ar
  19   12   13 ar
  20   12   38 1
  21   13   39 1
  22   14   28 1
  23   14   32 1
  24   14   40 1
  25   15   16 1
  26   15   41 1
  27   16   17 ar
  28   16   21 ar
  29   17   18 ar
  30   18   19 ar
  31   18   42 1
  32   19   20 ar
  33   19   22 1
  34   20   21 ar
  35   20   43 1
  36   21   44 1
  37   22   23 1
  38   22   27 1
  39   23   24 1
  40   23   45 1
  41   23   46 1
  42   24   25 1
  43   24   47 1
  44   24   48 1
  45   25   26 1
  46   25   49 1
  47   26   27 1
  48   26   50 1
  49   26   51 1
  50   27   52 1
  51   27   53 1
  52   28   29 1
  53   28   54 1
  54   28   55 1
  55   29   30 1
  56   29   56 1
  57   29   57 1
  58   30   31 1
  59   30   33 1
  60   30   34 1
  61   31   32 1
  62   31   58 1
  63   31   59 1
  64   32   60 1
  65   32   61 1
  66   33   62 1
  67   33   63 1
  68   33   64 1
  69   34   65 1
  70   34   66 1
  71   34   67 1
  72   35   36 1
  73   36   68 1
  74   36   69 1
  75   36   70 1

#	End of record

