#	Name: ASD01148726
#	Creating user name:	WinNT
#	Creation time:	15. 06. 2019 19:03

#	Modifying user name:	WinNT
#	Modification time:	15. 06. 2019 19:03

#	Program:	/corina/corina34_cracker 3.40 0067  02.08.2006

@<TRIPOS>MOLECULE
ASD01148726
  59   62    0    0    0
SMALL
NO_CHARGES


@<TRIPOS>ATOM
   1 N1            -0.0159     1.3405     0.0805 N.pl3   
   2 C2             0.0026     0.0049    -0.1115 C.2     
   3 C3             1.3186    -0.4072    -0.1549 C.2     
   4 C4             2.1215     0.7497     0.0213 C.2     
   5 C5             1.2768     1.8041     0.1629 C.2     
   6 C6             1.7987    -1.7850    -0.3466 C.2     
   7 O7             1.0019    -2.6922    -0.4861 O.2     
   8 O8             3.1218    -2.0408    -0.3675 O.3     
   9 C9            -1.2062    -0.8838    -0.2535 C.3     
  10 C10           -1.1690     2.1307     0.1750 C.ar    
  11 C11           -2.0124     2.0027     1.2708 C.ar    
  12 C12           -3.1479     2.7833     1.3613 C.ar    
  13 C13           -3.4458     3.6917     0.3619 C.ar    
  14 C14           -2.6080     3.8215    -0.7303 C.ar    
  15 C15           -1.4677     3.0475    -0.8238 C.ar    
  16 S16           -4.2187     2.6216     2.7513 S.o2    
  17 O17           -5.4881     3.0367     2.2659 O.2     
  18 O18           -4.0067     1.2914     3.2040 O.2     
  19 C19           -3.5773     3.8145     3.9580 C.3     
  20 C20            2.4322     5.8505     0.7600 C.ar    
  21 C21            1.1525     5.4294     1.1248 C.ar    
  22 C22            0.7776     4.1192     0.9315 C.ar    
  23 C23            1.6783     3.2108     0.3702 C.ar    
  24 C24            2.9591     3.6329     0.0053 C.ar    
  25 C25            3.3326     4.9434     0.1991 C.ar    
  26 C26            2.8331     7.2621     0.9631 C.ar    
  27 C27            4.1129     7.6830     0.5983 C.ar    
  28 C28            4.4862     8.9942     0.7861 C.ar    
  29 C29            3.5831     9.9047     1.3425 C.ar    
  30 C30            2.3016     9.4820     1.7074 C.ar    
  31 C31            1.9287     8.1715     1.5138 C.ar    
  32 C32            3.9706    11.2692     1.5388 C.1     
  33 N33            4.2780    12.3517     1.6945 N.1     
  34 C34            3.5230    -3.4229    -0.5608 C.3     
  35 C35            5.0502    -3.5160    -0.5560 C.3     
  36 H36            3.2007     0.7851     0.0398 H       
  37 H37           -1.4857    -0.9517    -1.3049 H       
  38 H38           -0.9722    -1.8787     0.1252 H       
  39 H39           -2.0350    -0.4637     0.3164 H       
  40 H40           -1.7807     1.2930     2.0512 H       
  41 H41           -4.3348     4.3006     0.4345 H       
  42 H42           -2.8435     4.5315    -1.5094 H       
  43 H43           -0.8113     3.1526    -1.6750 H       
  44 H44           -3.6125     4.8171     3.5317 H       
  45 H45           -4.1874     3.7818     4.8607 H       
  46 H46           -2.5467     3.5613     4.2066 H       
  47 H47            0.4562     6.1318     1.5587 H       
  48 H48           -0.2124     3.7933     1.2144 H       
  49 H49            3.6558     2.9313    -0.4290 H       
  50 H50            4.3226     5.2700    -0.0832 H       
  51 H51            4.8106     6.9793     0.1688 H       
  52 H52            5.4767     9.3196     0.5041 H       
  53 H53            1.6031    10.1846     2.1374 H       
  54 H54            0.9372     7.8458     1.7916 H       
  55 H55            3.1191    -4.0346     0.2458 H       
  56 H56            3.1401    -3.7821    -1.5160 H       
  57 H57            5.4540    -2.9042    -1.3627 H       
  58 H58            5.4331    -3.1567     0.3992 H       
  59 H59            5.3513    -4.5535    -0.7011 H       
@<TRIPOS>BOND
   1    1    2 1
   2    1    5 1
   3    1   10 1
   4    2    3 2
   5    2    9 1
   6    3    4 1
   7    3    6 1
   8    4    5 2
   9    4   36 1
  10    5   23 1
  11    6    7 2
  12    6    8 1
  13    8   34 1
  14    9   37 1
  15    9   38 1
  16    9   39 1
  17   10   11 ar
  18   10   15 ar
  19   11   12 ar
  20   11   40 1
  21   12   13 ar
  22   12   16 1
  23   13   14 ar
  24   13   41 1
  25   14   15 ar
  26   14   42 1
  27   15   43 1
  28   16   17 2
  29   16   18 2
  30   16   19 1
  31   19   44 1
  32   19   45 1
  33   19   46 1
  34   20   21 ar
  35   20   25 ar
  36   20   26 1
  37   21   22 ar
  38   21   47 1
  39   22   23 ar
  40   22   48 1
  41   23   24 ar
  42   24   25 ar
  43   24   49 1
  44   25   50 1
  45   26   27 ar
  46   26   31 ar
  47   27   28 ar
  48   27   51 1
  49   28   29 ar
  50   28   52 1
  51   29   30 ar
  52   29   32 1
  53   30   31 ar
  54   30   53 1
  55   31   54 1
  56   32   33 3
  57   34   35 1
  58   34   55 1
  59   34   56 1
  60   35   57 1
  61   35   58 1
  62   35   59 1

#	End of record

