#	Name: ASD00461007
#	Creating user name:	WinNT
#	Creation time:	15. 06. 2019 18:36

#	Modifying user name:	WinNT
#	Modification time:	15. 06. 2019 18:36

#	Program:	/corina/corina34_cracker 3.40 0067  02.08.2006

@<TRIPOS>MOLECULE
ASD00461007
  34   36    0    0    0
SMALL
NO_CHARGES


@<TRIPOS>ATOM
   1 C1            -0.0169     1.3957     0.0097 C.ar    
   2 C2             0.0021    -0.0041     0.0020 C.ar    
   3 C3             1.2177     2.0825     0.0016 C.ar    
   4 N4            -1.2615     1.9016     0.0298 N.2     
   5 C5             1.2149    -0.6909    -0.0137 C.ar    
   6 S6            -1.6617    -0.5832     0.0154 S.3     
   7 C7             2.3917     1.3943    -0.0133 C.ar    
   8 C8            -2.2513     1.0731     0.0392 C.2     
   9 C9             2.4017     0.0063    -0.0217 C.ar    
  10 C10           -3.6768     1.4613     0.0597 C.2     
  11 C11           -4.6289     0.5170     0.0611 C.2     
  12 C12           -4.0547     2.8958     0.0788 C.ar    
  13 C13           -4.5536     3.5031    -1.0724 C.ar    
  14 C14           -3.9177     3.6396     1.2491 C.ar    
  15 C15           -4.7105     2.7036    -2.3402 C.3     
  16 C16           -4.9040     4.8375    -1.0488 C.ar    
  17 C17           -4.2714     4.9738     1.2612 C.ar    
  18 C18           -4.7605     5.5726     0.1144 C.ar    
  19 C19           -5.1440     7.0299     0.1336 C.3     
  20 H20            1.2300     3.1624     0.0069 H       
  21 H21            1.2234    -1.7708    -0.0192 H       
  22 H22            3.3268     1.9346    -0.0193 H       
  23 H23            3.3410    -0.5267    -0.0339 H       
  24 H24           -5.6709     0.8008     0.0762 H       
  25 H25           -4.3538    -0.5273     0.0473 H       
  26 H26           -3.5359     3.1730     2.1451 H       
  27 H27           -3.7931     2.7667    -2.9254 H       
  28 H28           -4.9112     1.6618    -2.0903 H       
  29 H29           -5.5407     3.1042    -2.9219 H       
  30 H30           -5.2907     5.3091    -1.9402 H       
  31 H31           -4.1659     5.5511     2.1678 H       
  32 H32           -6.1920     7.1261     0.4173 H       
  33 H33           -4.5221     7.5598     0.8551 H       
  34 H34           -4.9952     7.4578    -0.8578 H       
@<TRIPOS>BOND
   1    1    2 ar
   2    1    3 ar
   3    1    4 1
   4    2    5 ar
   5    2    6 1
   6    3    7 ar
   7    3   20 1
   8    4    8 2
   9    5    9 ar
  10    5   21 1
  11    6    8 1
  12    7    9 ar
  13    7   22 1
  14    8   10 1
  15    9   23 1
  16   10   12 1
  17   10   11 2
  18   11   24 1
  19   11   25 1
  20   12   14 ar
  21   12   13 ar
  22   13   16 ar
  23   13   15 1
  24   14   17 ar
  25   14   26 1
  26   15   27 1
  27   15   28 1
  28   15   29 1
  29   16   18 ar
  30   16   30 1
  31   17   18 ar
  32   17   31 1
  33   18   19 1
  34   19   32 1
  35   19   33 1
  36   19   34 1

#	End of record

