#	Name: ASD01000018
#	Creating user name:	WinNT
#	Creation time:	15. 06. 2019 18:54

#	Modifying user name:	WinNT
#	Modification time:	15. 06. 2019 18:54

#	Program:	/corina/corina34_cracker 3.40 0067  02.08.2006

@<TRIPOS>MOLECULE
ASD01000018
  42   43    0    0    0
SMALL
NO_CHARGES


@<TRIPOS>ATOM
   1 C1             0.3090     1.2481    -0.0848 C.ar    
   2 C2             0.2194    -0.1331     0.0056 C.ar    
   3 C3            -1.0107    -0.7531    -0.1011 C.ar    
   4 C4            -2.1523     0.0026    -0.2984 C.ar    
   5 C5            -2.0651     1.3805    -0.3893 C.ar    
   6 C6            -0.8381     2.0047    -0.2770 C.ar    
   7 C7            -1.1086    -2.2537    -0.0030 C.3     
   8 N8             0.1057    -2.8283    -0.6063 N.am    
   9 C9            -1.3913    -2.6099     1.4424 C.2     
  10 C10           -0.5160    -3.4238     2.0720 C.2     
  11 N11            0.5849    -3.9080     1.4271 N.am    
  12 C12            0.8830    -3.6260     0.1526 C.2     
  13 C13           -2.5323    -2.1071     2.1097 C.2     
  14 O14           -3.6393    -2.8706     2.2221 O.3     
  15 S15            2.2974    -4.3015    -0.5358 S.2     
  16 O16           -2.5158    -0.9860     2.5825 O.2     
  17 O17            1.5180     1.8600     0.0203 O.3     
  18 Br18          -3.8345    -0.8487    -0.4447 Br      
  19 C19           -4.7794    -2.2729     2.8426 C.3     
  20 C20           -5.8899    -3.3161     2.9815 C.3     
  21 C21           -1.7241    -5.5374     5.0276 C.3     
  22 C22           -1.4775    -5.1525     3.5675 C.3     
  23 C23           -0.7589    -3.8029     3.5102 C.3     
  24 H24            1.1107    -0.7235     0.1588 H       
  25 H25           -2.9576     1.9687    -0.5440 H       
  26 H26           -0.7705     3.0803    -0.3476 H       
  27 H27           -1.9632    -2.5715    -0.6003 H       
  28 H28            0.3404    -2.6375    -1.5279 H       
  29 H29            1.1853    -4.4891     1.9198 H       
  30 H30            1.9765     1.9728    -0.8236 H       
  31 H31           -4.5033    -1.9025     3.8298 H       
  32 H32           -5.1339    -1.4442     2.2296 H       
  33 H33           -6.7261    -2.8855     3.5324 H       
  34 H34           -6.2267    -3.6224     1.9911 H       
  35 H35           -5.5083    -4.1836     3.5199 H       
  36 H36           -0.7703    -5.6111     5.5500 H       
  37 H37           -2.3418    -4.7764     5.5046 H       
  38 H38           -2.2360    -6.4988     5.0684 H       
  39 H39           -0.8598    -5.9135     3.0905 H       
  40 H40           -2.4313    -5.0788     3.0451 H       
  41 H41            0.1949    -3.8767     4.0326 H       
  42 H42           -1.3766    -3.0419     3.9872 H       
@<TRIPOS>BOND
   1    1    2 ar
   2    1   17 1
   3    1    6 ar
   4    2    3 ar
   5    2   24 1
   6    3    4 ar
   7    3    7 1
   8    4    5 ar
   9    4   18 1
  10    5    6 ar
  11    5   25 1
  12    6   26 1
  13    7    8 1
  14    7    9 1
  15    7   27 1
  16    8   12 am
  17    8   28 1
  18    9   10 2
  19    9   13 1
  20   10   23 1
  21   10   11 1
  22   11   12 am
  23   11   29 1
  24   12   15 2
  25   13   14 1
  26   13   16 2
  27   14   19 1
  28   17   30 1
  29   19   20 1
  30   19   31 1
  31   19   32 1
  32   20   33 1
  33   20   34 1
  34   20   35 1
  35   21   22 1
  36   21   36 1
  37   21   37 1
  38   21   38 1
  39   22   23 1
  40   22   39 1
  41   22   40 1
  42   23   41 1
  43   23   42 1

#	End of record

