#	Name: ASD04590182
#	Creating user name:	WinNT
#	Creation time:	15. 06. 2019 20:50

#	Modifying user name:	WinNT
#	Modification time:	15. 06. 2019 20:50

#	Program:	/corina/corina34_cracker 3.40 0067  02.08.2006

@<TRIPOS>MOLECULE
ASD04590182
  46   48    0    0    0
SMALL
NO_CHARGES


@<TRIPOS>ATOM
   1 N1            -0.0169     1.3950     0.0097 N.pl3   
   2 N2             0.0021    -0.0041     0.0020 N.2     
   3 C3             1.2467    -0.4104    -0.0120 C.2     
   4 C4             2.0789     0.7381    -0.0138 C.2     
   5 C5             1.2484     1.8413     0.0000 C.2     
   6 N6             1.6782    -1.7391    -0.0226 N.am    
   7 C7             0.7763    -2.7406    -0.0191 C.2     
   8 C8             3.5511     0.7515    -0.0274 C.2     
   9 N9             4.2143     1.9248    -0.0275 N.am    
  10 C10            5.6792     1.9382    -0.0410 C.3     
  11 C11            6.1737     3.2539    -0.6487 C.3     
  12 C12            7.7021     3.2953    -0.5870 C.3     
  13 N13            8.1416     3.2045     0.8105 N.4     
  14 C14            7.7328     1.9141     1.3783 C.3     
  15 C15            6.2056     1.8196     1.3922 C.3     
  16 O16            4.1688    -0.2962    -0.0385 O.2     
  17 C17            1.2320    -4.1435    -0.0303 C.ar    
  18 C18            1.4380    -4.8067    -1.2449 C.ar    
  19 C19            1.8655    -6.1211    -1.2461 C.ar    
  20 C20            2.0891    -6.7809    -0.0512 C.ar    
  21 C21            1.8879    -6.1329     1.1540 C.ar    
  22 C22            1.4662    -4.8168     1.1737 C.ar    
  23 O23           -0.4130    -2.4877    -0.0068 O.2     
  24 C24            9.6046     3.3228     0.8708 C.3     
  25 O25            7.5353     4.2893     1.5824 O.3     
  26 F26            1.2194    -4.1644    -2.4131 F       
  27 F27            1.2703    -4.1857     2.3521 F       
  28 H28           -0.8125     1.9499     0.0167 H       
  29 H29            1.5606     2.8752     0.0023 H       
  30 H30            2.6270    -1.9408    -0.0324 H       
  31 H31            3.7217     2.7604    -0.0186 H       
  32 H32            6.0459     1.1015    -0.6356 H       
  33 H33            5.8495     3.3197    -1.6873 H       
  34 H34            5.7639     4.0920    -0.0850 H       
  35 H35            8.1109     2.4571    -1.1512 H       
  36 H36            8.0576     4.2308    -1.0191 H       
  37 H37            8.1410     1.1053     0.7722 H       
  38 H38            8.1109     1.8299     2.3971 H       
  39 H39            5.7964     2.6279     1.9983 H       
  40 H40            5.9042     0.8601     1.8125 H       
  41 H41            2.0251    -6.6346    -2.1827 H       
  42 H42            2.4224    -7.8081    -0.0594 H       
  43 H43            2.0649    -6.6556     2.0824 H       
  44 H44            9.9088     4.2836     0.4554 H       
  45 H45            9.9321     3.2555     1.9083 H       
  46 H46           10.0584     2.5173     0.2935 H       
@<TRIPOS>BOND
   1    1    2 1
   2    1    5 1
   3    1   28 1
   4    2    3 2
   5    3    4 1
   6    3    6 1
   7    4    5 2
   8    4    8 1
   9    5   29 1
  10    6    7 am
  11    6   30 1
  12    7   17 1
  13    7   23 2
  14    8    9 am
  15    8   16 2
  16    9   10 1
  17    9   31 1
  18   10   11 1
  19   10   15 1
  20   10   32 1
  21   11   12 1
  22   11   33 1
  23   11   34 1
  24   12   13 1
  25   12   35 1
  26   12   36 1
  27   13   14 1
  28   13   24 1
  29   13   25 1
  30   14   15 1
  31   14   37 1
  32   14   38 1
  33   15   39 1
  34   15   40 1
  35   17   18 ar
  36   17   22 ar
  37   18   19 ar
  38   18   26 1
  39   19   20 ar
  40   19   41 1
  41   20   21 ar
  42   20   42 1
  43   21   22 ar
  44   21   43 1
  45   22   27 1
  46   24   44 1
  47   24   45 1
  48   24   46 1

#	End of record

