#	Name: ASD03730207
#	Creating user name:	WinNT
#	Creation time:	15. 06. 2019 20:44

#	Modifying user name:	WinNT
#	Modification time:	15. 06. 2019 20:44

#	Program:	/corina/corina34_cracker 3.40 0067  02.08.2006

@<TRIPOS>MOLECULE
ASD03730207
  57   62    0    0    0
SMALL
NO_CHARGES


@<TRIPOS>ATOM
   1 C1            -0.0187     1.5021     0.0185 C.2     
   2 C2             0.0011    -0.0045    -0.0114 C.3     
   3 O3             1.0236     2.1220     0.0366 O.2     
   4 N4            -1.1946     2.1607     0.0195 N.am    
   5 C5            -1.2153     3.5564     0.1329 C.ar    
   6 C6            -2.3326     4.1965     0.6587 C.ar    
   7 C7            -2.3489     5.5747     0.7689 C.ar    
   8 C8            -1.2559     6.3153     0.3567 C.ar    
   9 C9            -0.1445     5.6810    -0.1662 C.ar    
  10 C10           -0.1190     4.3036    -0.2739 C.ar    
  11 F11           -3.4003     3.4729     1.0609 F       
  12 O12            5.2115    -2.5083     1.4045 O.3     
  13 C13            5.5519    -1.2121     1.6549 C.ar    
  14 C14            4.5565    -0.3381     1.2238 C.ar    
  15 C15            3.4546    -1.1894     0.6539 C.3     
  16 C16            3.7923    -2.5938     1.1737 C.3     
  17 O17            7.8809     1.3785     2.9638 O.3     
  18 C18            6.8531     0.6779     2.4091 C.ar    
  19 C19            5.8529     1.5292     1.9560 C.ar    
  20 C20            6.3091     2.9460     2.2443 C.3     
  21 C21            7.8177     2.7450     2.5221 C.3     
  22 C22            4.7122     1.0235     1.3714 C.ar    
  23 C23            6.6958    -0.6942     2.2493 C.ar    
  24 N24            1.3886    -0.4747    -0.0131 N.am    
  25 C25            2.0949    -0.7389     1.1043 C.2     
  26 C26            3.4126    -1.1434    -0.8447 C.ar    
  27 C27            4.3289    -1.4337    -1.8320 C.ar    
  28 C28            3.9818    -1.2877    -3.1642 C.ar    
  29 C29            2.7140    -0.8500    -3.5008 C.ar    
  30 C30            1.7934    -0.5583    -2.5158 C.ar    
  31 C31            2.1333    -0.7024    -1.1727 C.ar    
  32 O32            1.7077    -0.6341     2.2489 O.2     
  33 C33            8.2972     3.6932     3.6229 C.3     
  34 C34            8.6349     2.9395     1.2433 C.3     
  35 Br35           6.0616    -2.0314    -1.3670 Br      
  36 H36           -0.5129    -0.3921     0.8682 H       
  37 H37           -0.5030    -0.3567    -0.9114 H       
  38 H38           -2.0265     1.6680    -0.0584 H       
  39 H39           -3.2158     6.0733     1.1767 H       
  40 H40           -1.2709     7.3917     0.4433 H       
  41 H41            0.7070     6.2627    -0.4870 H       
  42 H42            0.7519     3.8092    -0.6783 H       
  43 H43            3.5674    -3.3495     0.4210 H       
  44 H44            3.2609    -2.8009     2.1025 H       
  45 H45            6.1548     3.5889     1.3777 H       
  46 H46            5.8016     3.3479     3.1212 H       
  47 H47            3.9391     1.6950     1.0281 H       
  48 H48            7.4707    -1.3643     2.5912 H       
  49 H49            4.6995    -1.5148    -3.9387 H       
  50 H50            2.4432    -0.7359    -4.5400 H       
  51 H51            0.8055    -0.2163    -2.7870 H       
  52 H52            9.3365     3.4720     3.8658 H       
  53 H53            8.2164     4.7233     3.2758 H       
  54 H54            7.6801     3.5598     4.5115 H       
  55 H55            8.2545     2.2781     0.4649 H       
  56 H56            8.5518     3.9749     0.9129 H       
  57 H57            9.6807     2.7040     1.4410 H       
@<TRIPOS>BOND
   1    1    2 1
   2    1    3 2
   3    1    4 am
   4    2   24 1
   5    2   36 1
   6    2   37 1
   7    4    5 1
   8    4   38 1
   9    5    6 ar
  10    5   10 ar
  11    6    7 ar
  12    6   11 1
  13    7    8 ar
  14    7   39 1
  15    8    9 ar
  16    8   40 1
  17    9   10 ar
  18    9   41 1
  19   10   42 1
  20   12   13 1
  21   12   16 1
  22   13   14 ar
  23   13   23 ar
  24   14   15 1
  25   14   22 ar
  26   15   16 1
  27   15   25 1
  28   15   26 1
  29   16   43 1
  30   16   44 1
  31   17   18 1
  32   17   21 1
  33   18   19 ar
  34   18   23 ar
  35   19   20 1
  36   19   22 ar
  37   20   21 1
  38   20   45 1
  39   20   46 1
  40   21   33 1
  41   21   34 1
  42   22   47 1
  43   23   48 1
  44   24   25 am
  45   24   31 1
  46   25   32 2
  47   26   27 ar
  48   26   31 ar
  49   27   28 ar
  50   27   35 1
  51   28   29 ar
  52   28   49 1
  53   29   30 ar
  54   29   50 1
  55   30   31 ar
  56   30   51 1
  57   33   52 1
  58   33   53 1
  59   33   54 1
  60   34   55 1
  61   34   56 1
  62   34   57 1

#	End of record

