#	Name: ASD08710043
#	Creating user name:	WinNT
#	Creation time:	15. 06. 2019 21:19

#	Modifying user name:	WinNT
#	Modification time:	15. 06. 2019 21:19

#	Program:	/corina/corina34_cracker 3.40 0067  02.08.2006

@<TRIPOS>MOLECULE
ASD08710043
  50   52    0    0    0
SMALL
NO_CHARGES


@<TRIPOS>ATOM
   1 C1             0.3664     2.6348     0.6837 C.ar    
   2 C2             0.6874     1.3038     0.8541 C.ar    
   3 C3            -0.4341     3.0243    -0.3918 C.ar    
   4 C4            -0.9045     2.0624    -1.2883 C.ar    
   5 C5            -0.5759     0.7353    -1.1060 C.ar    
   6 C6             0.2184     0.3562    -0.0380 C.ar    
   7 S7             0.6332    -1.3414     0.1872 S.o2    
   8 O8             1.5043    -1.3962     1.3086 O.2     
   9 O9            -0.5872    -2.0657     0.1149 O.2     
  10 N10            1.5306    -1.8050    -1.1251 N.am    
  11 C11            2.9756    -1.5414    -1.1739 C.3     
  12 C12            0.8973    -2.4928    -2.2590 C.3     
  13 C13            1.6335    -3.8160    -2.5027 C.3     
  14 N14            3.0775    -3.5474    -2.5540 N.am    
  15 C15            3.7074    -2.8667    -1.4199 C.3     
  16 C16            3.8080    -3.9256    -3.6216 C.2     
  17 C17            5.2766    -3.7559    -3.6101 C.ar    
  18 O18            3.2594    -4.4061    -4.5941 O.2     
  19 C19            5.9451    -3.2822    -4.7399 C.ar    
  20 N20            7.2530    -3.1311    -4.7296 N.ar    
  21 C21            7.9793    -3.4163    -3.6655 C.ar    
  22 C22            7.3921    -3.8905    -2.5065 C.ar    
  23 C23            6.0194    -4.0621    -2.4637 C.ar    
  24 C24           -0.7716     4.4039    -0.5746 C.1     
  25 C25            9.4730    -3.2227    -3.7139 C.3     
  26 C26            1.3324    -4.7889    -1.3610 C.3     
  27 C27           -1.0825    -0.3042    -2.0723 C.3     
  28 N28           -1.0394     5.4983    -0.7196 N.1     
  29 H29            0.7298     3.3731     1.3832 H       
  30 H30            1.3065     1.0011     1.6856 H       
  31 H31           -1.5244     2.3569    -2.1221 H       
  32 H32            3.1936    -0.8471    -1.9854 H       
  33 H33            3.3017    -1.1139    -0.2258 H       
  34 H34           -0.1487    -2.6934    -2.0273 H       
  35 H35            0.9639    -1.8677    -3.1495 H       
  36 H36            1.3077    -4.2469    -3.4494 H       
  37 H37            4.7535    -2.6643    -1.6498 H       
  38 H38            3.6404    -3.4959    -0.5324 H       
  39 H39            5.3849    -3.0380    -5.6303 H       
  40 H40            7.9979    -4.1205    -1.6425 H       
  41 H41            5.5348    -4.4307    -1.5718 H       
  42 H42            9.7190    -2.2116    -3.3893 H       
  43 H43            9.9545    -3.9437    -3.0533 H       
  44 H44            9.8259    -3.3726    -4.7343 H       
  45 H45            0.2593    -4.9747    -1.3153 H       
  46 H46            1.8566    -5.7284    -1.5364 H       
  47 H47            1.6668    -4.3569    -0.4177 H       
  48 H48           -0.3763    -0.4096    -2.8959 H       
  49 H49           -1.1854    -1.2594    -1.5574 H       
  50 H50           -2.0524     0.0045    -2.4625 H       
@<TRIPOS>BOND
   1    1    2 ar
   2    1    3 ar
   3    1   29 1
   4    2    6 ar
   5    2   30 1
   6    3    4 ar
   7    3   24 1
   8    4    5 ar
   9    4   31 1
  10    5    6 ar
  11    5   27 1
  12    6    7 1
  13    7    8 2
  14    7    9 2
  15    7   10 am
  16   10   11 1
  17   10   12 1
  18   11   15 1
  19   11   32 1
  20   11   33 1
  21   12   13 1
  22   12   34 1
  23   12   35 1
  24   13   14 1
  25   13   26 1
  26   13   36 1
  27   14   15 1
  28   14   16 am
  29   15   37 1
  30   15   38 1
  31   16   17 1
  32   16   18 2
  33   17   19 ar
  34   17   23 ar
  35   19   20 ar
  36   19   39 1
  37   20   21 ar
  38   21   22 ar
  39   21   25 1
  40   22   23 ar
  41   22   40 1
  42   23   41 1
  43   24   28 3
  44   25   42 1
  45   25   43 1
  46   25   44 1
  47   26   45 1
  48   26   46 1
  49   26   47 1
  50   27   48 1
  51   27   49 1
  52   27   50 1

#	End of record

