#	Name: ASD01917324
#	Creating user name:	WinNT
#	Creation time:	15. 06. 2019 20:09

#	Modifying user name:	WinNT
#	Modification time:	15. 06. 2019 20:09

#	Program:	/corina/corina34_cracker 3.40 0067  02.08.2006

@<TRIPOS>MOLECULE
ASD01917324
  50   53    0    0    0
SMALL
NO_CHARGES


@<TRIPOS>ATOM
   1 C1            -0.0168     1.3902     0.0097 C.ar    
   2 C2             0.0021    -0.0041     0.0020 C.ar    
   3 N3             1.1281     2.0669     0.0024 N.ar    
   4 N4             1.1562    -0.6463    -0.0125 N.ar    
   5 C5             2.2907     0.0310    -0.0196 C.ar    
   6 C6             2.2753     1.4182    -0.0120 C.ar    
   7 C7            -1.3085     2.1156     0.0197 C.2     
   8 O8            -2.3536     1.4956     0.0213 O.2     
   9 N9            -1.3245     3.4633     0.0271 N.am    
  10 C10           -2.6019     4.1806     0.0371 C.3     
  11 C11           -3.4773     3.8434    -1.1826 C.3     
  12 C12           -4.8749     4.4283    -0.9703 C.3     
  13 C13           -4.7878     5.9332    -0.7085 C.3     
  14 C14           -3.8560     6.1804     0.4908 C.3     
  15 C15           -4.2427     5.1681     1.5938 C.3     
  16 C16           -3.4395     3.8875     1.3032 C.3     
  17 C17           -2.4387     5.7235     0.0554 C.3     
  18 N18           -3.8989     7.5680     0.9586 N.am    
  19 C19           -5.0630     8.1021     1.3782 C.2     
  20 O20           -6.0772     7.4325     1.3685 O.2     
  21 C21           -5.1063     9.5045     1.8509 C.ar    
  22 C22           -6.3137    10.0503     2.2834 C.ar    
  23 C23           -6.3399    11.3629     2.7234 C.ar    
  24 C24           -5.1549    12.0875     2.7161 C.ar    
  25 C25           -3.9887    11.4785     2.2713 C.ar    
  26 N26           -3.9938    10.2286     1.8640 N.ar    
  27 F27           -5.1370    13.3712     3.1368 F       
  28 C28            3.5727     2.1848    -0.0208 C.3     
  29 H29           -0.9252    -0.5578     0.0083 H       
  30 H30            3.2328    -0.4969    -0.0315 H       
  31 H31           -0.4903     3.9582     0.0259 H       
  32 H32           -3.0339     4.2748    -2.0801 H       
  33 H33           -3.5477     2.7613    -1.2930 H       
  34 H34           -5.4790     4.2514    -1.8601 H       
  35 H35           -5.3442     3.9402    -0.1161 H       
  36 H36           -4.3881     6.4341    -1.5902 H       
  37 H37           -5.7810     6.3226    -0.4850 H       
  38 H38           -3.9767     5.5628     2.5744 H       
  39 H39           -5.3114     4.9578     1.5513 H       
  40 H40           -4.1172     3.0538     1.1193 H       
  41 H41           -2.7825     3.6588     2.1424 H       
  42 H42           -1.6884     6.0285     0.7848 H       
  43 H43           -2.1935     6.1023    -0.9368 H       
  44 H44           -3.0894     8.1025     0.9663 H       
  45 H45           -7.2165     9.4576     2.2751 H       
  46 H46           -7.2606    11.8131     3.0640 H       
  47 H47           -3.0649    12.0379     2.2634 H       
  48 H48            3.8955     2.3644     1.0047 H       
  49 H49            4.3332     1.6060    -0.5450 H       
  50 H50            3.4279     3.1384    -0.5285 H       
@<TRIPOS>BOND
   1    1    2 ar
   2    1    3 ar
   3    1    7 1
   4    2    4 ar
   5    2   29 1
   6    3    6 ar
   7    4    5 ar
   8    5    6 ar
   9    5   30 1
  10    6   28 1
  11    7    8 2
  12    7    9 am
  13    9   10 1
  14    9   31 1
  15   10   11 1
  16   10   16 1
  17   10   17 1
  18   11   12 1
  19   11   32 1
  20   11   33 1
  21   12   13 1
  22   12   34 1
  23   12   35 1
  24   13   14 1
  25   13   36 1
  26   13   37 1
  27   14   15 1
  28   14   17 1
  29   14   18 1
  30   15   16 1
  31   15   38 1
  32   15   39 1
  33   16   40 1
  34   16   41 1
  35   17   42 1
  36   17   43 1
  37   18   19 am
  38   18   44 1
  39   19   20 2
  40   19   21 1
  41   21   22 ar
  42   21   26 ar
  43   22   23 ar
  44   22   45 1
  45   23   24 ar
  46   23   46 1
  47   24   25 ar
  48   24   27 1
  49   25   26 ar
  50   25   47 1
  51   28   48 1
  52   28   49 1
  53   28   50 1

#	End of record

