#	Name: ASD00431343
#	Creating user name:	WinNT
#	Creation time:	15. 06. 2019 18:35

#	Modifying user name:	WinNT
#	Modification time:	15. 06. 2019 18:35

#	Program:	/corina/corina34_cracker 3.40 0067  02.08.2006

@<TRIPOS>MOLECULE
ASD00431343
  32   33    0    0    0
SMALL
NO_CHARGES


@<TRIPOS>ATOM
   1 C1             3.6555    -1.8670     3.1492 C.2     
   2 C2             2.7463    -2.4207     2.2804 C.2     
   3 C3             2.6779    -1.7715     1.0784 C.2     
   4 C4             3.5127    -0.7047     0.9576 C.2     
   5 S5             4.4251    -0.4851     2.3824 S.3     
   6 C6             3.9237    -2.3294     4.4497 C.2     
   7 O7             4.7510    -1.7638     5.1373 O.2     
   8 O8             3.6073     0.0769    -0.1443 O.3     
   9 C9             4.4143     1.1693    -0.0845 C.ar    
  10 C10            5.7863     1.0120     0.0483 C.ar    
  11 C11            6.6060     2.1219     0.1085 C.ar    
  12 C12            6.0576     3.3939     0.0362 C.ar    
  13 C13            4.6858     3.5514    -0.0966 C.ar    
  14 C14            3.8664     2.4416    -0.1621 C.ar    
  15 O15            6.8646     4.4866     0.0960 O.3     
  16 C16            8.2478     4.2571     0.3719 C.3     
  17 C17            9.0195     4.1491    -0.9449 C.3     
  18 C18            8.8037     5.4211     1.1947 C.3     
  19 H19            2.1446    -3.2841     2.5228 H       
  20 H20            2.0126    -2.0823     0.2864 H       
  21 H21            3.3945    -3.1873     4.8377 H       
  22 H22            6.2132     0.0216     0.1050 H       
  23 H23            7.6740     1.9994     0.2123 H       
  24 H24            4.2589     4.5419    -0.1525 H       
  25 H25            2.7988     2.5642    -0.2696 H       
  26 H26            8.3572     3.3298     0.9342 H       
  27 H27            8.9101     5.0764    -1.5072 H       
  28 H28           10.0745     3.9740    -0.7344 H       
  29 H29            8.6235     3.3198    -1.5311 H       
  30 H30            8.2540     5.4981     2.1328 H       
  31 H31            9.8588     5.2461     1.4052 H       
  32 H32            8.6943     6.3484     0.6323 H       
@<TRIPOS>BOND
   1    1    2 2
   2    1    5 1
   3    1    6 1
   4    2    3 1
   5    2   19 1
   6    3    4 2
   7    3   20 1
   8    4    5 1
   9    4    8 1
  10    6    7 2
  11    6   21 1
  12    8    9 1
  13    9   10 ar
  14    9   14 ar
  15   10   11 ar
  16   10   22 1
  17   11   12 ar
  18   11   23 1
  19   12   13 ar
  20   12   15 1
  21   13   14 ar
  22   13   24 1
  23   14   25 1
  24   15   16 1
  25   16   17 1
  26   16   18 1
  27   16   26 1
  28   17   27 1
  29   17   28 1
  30   17   29 1
  31   18   30 1
  32   18   31 1
  33   18   32 1

#	End of record

