#	Name: ASD06340043
#	Creating user name:	WinNT
#	Creation time:	15. 06. 2019 21:06

#	Modifying user name:	WinNT
#	Modification time:	15. 06. 2019 21:06

#	Program:	/corina/corina34_cracker 3.40 0067  02.08.2006

@<TRIPOS>MOLECULE
ASD06340043
  32   34    0    0    0
SMALL
NO_CHARGES


@<TRIPOS>ATOM
   1 S1            -0.0210     1.6939     0.0114 S.3     
   2 N2             0.0021    -0.0041     0.0020 N.am    
   3 C3             1.2962    -0.3594    -0.0122 C.2     
   4 N4             2.1856     0.6226    -0.0155 N.am    
   5 C5             1.6912     1.8721    -0.0040 C.2     
   6 O6             1.6365    -1.5276    -0.0214 O.2     
   7 O7             2.3224     2.9128    -0.0052 O.2     
   8 C8             3.6269     0.3610    -0.0302 C.3     
   9 C9             4.1080     0.2785    -1.4559 C.ar    
  10 C10            4.5425     1.4186    -2.1058 C.ar    
  11 C11            4.9837     1.3430    -3.4137 C.ar    
  12 C12            4.9909     0.1272    -4.0715 C.ar    
  13 C13            4.5573    -1.0130    -3.4213 C.ar    
  14 C14            4.1201    -0.9381    -2.1121 C.ar    
  15 C15           -1.1035    -0.8590     0.0084 C.ar    
  16 C16           -2.3256    -0.4203    -0.4858 C.ar    
  17 C17           -3.4165    -1.2685    -0.4783 C.ar    
  18 C18           -3.2920    -2.5536     0.0212 C.ar    
  19 C19           -2.0770    -2.9922     0.5139 C.ar    
  20 C20           -0.9813    -2.1512     0.5036 C.ar    
  21 Cl21          -4.9444    -0.7221    -1.0954 Cl      
  22 H22            4.1482     1.1691     0.4830 H       
  23 H23            3.8302    -0.5822     0.4770 H       
  24 H24            4.5369     2.3685    -1.5919 H       
  25 H25            5.3225     2.2338    -3.9216 H       
  26 H26            5.3349     0.0683    -5.0935 H       
  27 H27            4.5625    -1.9628    -3.9354 H       
  28 H28            3.7848    -1.8296    -1.6029 H       
  29 H29           -2.4230     0.5824    -0.8749 H       
  30 H30           -4.1460    -3.2148     0.0265 H       
  31 H31           -1.9833    -3.9952     0.9033 H       
  32 H32           -0.0315    -2.4965     0.8843 H       
@<TRIPOS>BOND
   1    1    2 1
   2    1    5 1
   3    2    3 am
   4    2   15 1
   5    3    4 am
   6    3    6 2
   7    4    5 am
   8    4    8 1
   9    5    7 2
  10    8    9 1
  11    8   22 1
  12    8   23 1
  13    9   10 ar
  14    9   14 ar
  15   10   11 ar
  16   10   24 1
  17   11   12 ar
  18   11   25 1
  19   12   13 ar
  20   12   26 1
  21   13   14 ar
  22   13   27 1
  23   14   28 1
  24   15   16 ar
  25   15   20 ar
  26   16   17 ar
  27   16   29 1
  28   17   18 ar
  29   17   21 1
  30   18   19 ar
  31   18   30 1
  32   19   20 ar
  33   19   31 1
  34   20   32 1

#	End of record

