#	Name: ASD01470008
#	Creating user name:	WinNT
#	Creation time:	15. 06. 2019 19:21

#	Modifying user name:	WinNT
#	Modification time:	15. 06. 2019 19:21

#	Program:	/corina/corina34_cracker 3.40 0067  02.08.2006

@<TRIPOS>MOLECULE
ASD01470008
 136  137    0    0    0
SMALL
NO_CHARGES


@<TRIPOS>ATOM
   1 C1             2.6093    -2.1518     1.3524 C.ar    
   2 C2             2.6071    -3.5272     1.2138 C.ar    
   3 C3             3.7751    -4.1909     0.8879 C.ar    
   4 C4             4.9452    -3.4791     0.7001 C.ar    
   5 C5             4.9471    -2.1036     0.8377 C.ar    
   6 C6             3.7795    -1.4401     1.1650 C.ar    
   7 C7             1.3316    -4.3031     1.4186 C.3     
   8 C8             0.5887    -4.4240     0.0865 C.3     
   9 N9             0.1660    -3.0941    -0.3594 N.am    
  10 C10           -0.0391    -2.8565    -1.6701 C.2     
  11 C11           -0.4739    -1.4884    -2.1288 C.3     
  12 O12            0.1262    -3.7436    -2.4804 O.2     
  13 N13           -0.6275    -1.4878    -3.5857 N.am    
  14 C14           -1.8105    -1.1322    -1.4749 C.3     
  15 C15           -2.8619    -2.1201    -1.9105 C.2     
  16 N16           -4.1413    -1.9592    -1.5186 N.am    
  17 O17           -2.5567    -3.0600    -2.6136 O.2     
  18 C18           -0.5381    -0.3314    -4.2723 C.2     
  19 O19           -0.4293     0.7200    -3.6776 O.2     
  20 C20           -0.5734    -0.3449    -5.7788 C.3     
  21 C21           -0.4554     1.0870    -6.3046 C.3     
  22 C22           -0.4912     1.0733    -7.8341 C.3     
  23 C23           -0.3732     2.5053    -8.3598 C.3     
  24 C24           -0.0444     8.1784   -16.5809 C.3     
  25 C25           -0.0802     8.1647   -18.1104 C.3     
  26 C26            0.0026     9.5832   -20.1427 C.2     
  27 O27           -0.1062     8.5317   -20.7373 O.2     
  28 C28           -0.4359    12.0585   -22.7967 C.2     
  29 N29           -1.0032    12.1504   -24.0158 N.am    
  30 O30           -0.3227    13.0478   -22.1044 O.2     
  31 C31           -1.3968    13.4591   -24.5438 C.3     
  32 C32           -0.1923    14.1211   -25.2159 C.3     
  33 C33           -2.5010    13.2818   -25.5538 C.2     
  34 C34            0.8805    14.4145   -24.1652 C.3     
  35 C35            2.1327    14.9612   -24.8538 C.3     
  36 C36            0.3514    15.4507   -23.1716 C.3     
  37 O37           -2.9182    12.1716   -25.8077 O.2     
  38 N38           -3.0250    14.3570   -26.1751 N.am    
  39 C39            0.0378     9.5967   -18.6362 C.3     
  40 C40           -5.3044    15.1857   -30.0527 C.ar    
  41 C41           -6.3137    15.0221   -30.9831 C.ar    
  42 C42           -7.6390    15.0468   -30.5791 C.ar    
  43 C43           -7.9504    15.2364   -29.2362 C.ar    
  44 C44           -6.9339    15.3997   -28.3088 C.ar    
  45 C45           -5.6138    15.3741   -28.7185 C.ar    
  46 C46           -4.0985    14.1846   -27.1570 C.3     
  47 C47           -4.5095    15.5513   -27.7084 C.3     
  48 N48            0.0920    10.7395   -20.8293 N.am    
  49 C49            0.0577    10.7264   -22.2938 C.3     
  50 C50            1.4652    10.4668   -22.8346 C.3     
  51 O51            1.9701     9.2489   -22.2835 O.3     
  52 C52            1.4128    10.3535   -24.3595 C.3     
  53 O53           -8.6331    14.8865   -31.4932 O.3     
  54 O54           -9.2495    15.2618   -28.8349 O.3     
  55 C55           -0.6226    -5.3026     0.2648 C.2     
  56 O56           -1.7258    -4.8630     0.0422 O.2     
  57 O57           -0.4760    -6.5736     0.6709 O.3     
  58 C58           -0.4090     2.4916    -9.8893 C.3     
  59 C59           -0.2910     3.9236   -10.4151 C.3     
  60 C60           -0.3268     3.9099   -11.9446 C.3     
  61 C61           -0.2088     5.3418   -12.4704 C.3     
  62 C62           -0.2446     5.3281   -13.9999 C.3     
  63 C63           -0.1266     6.7601   -14.5256 C.3     
  64 C64           -0.1624     6.7464   -16.0552 C.3     
  65 H65            1.6958    -1.6328     1.6026 H       
  66 H66            3.7735    -5.2655     0.7804 H       
  67 H67            5.8578    -3.9977     0.4461 H       
  68 H68            5.8614    -1.5476     0.6913 H       
  69 H69            3.7809    -0.3654     1.2722 H       
  70 H70            1.5682    -5.2986     1.7944 H       
  71 H71            0.7016    -3.7827     2.1400 H       
  72 H72            1.2502    -4.8642    -0.6597 H       
  73 H73            0.0338    -2.3846     0.2887 H       
  74 H74            0.2781    -0.7531    -1.8424 H       
  75 H75           -0.7935    -2.3196    -4.0563 H       
  76 H76           -1.7054    -1.1678    -0.3906 H       
  77 H77           -2.1073    -0.1282    -1.7784 H       
  78 H78           -4.3854    -1.2075    -0.9562 H       
  79 H79           -4.8181    -2.5951    -1.7989 H       
  80 H80            0.2580    -0.9403    -6.1564 H       
  81 H81           -1.5143    -0.7795    -6.1163 H       
  82 H82           -1.2867     1.6824    -5.9270 H       
  83 H83            0.4855     1.5216    -5.9670 H       
  84 H84            0.3402     0.4780    -8.2116 H       
  85 H85           -1.4321     0.6387    -8.1716 H       
  86 H86           -1.2045     3.1006    -7.9823 H       
  87 H87            0.5677     2.9399    -8.0223 H       
  88 H88            0.8965     8.6130   -16.2434 H       
  89 H89           -0.8757     8.7737   -16.2034 H       
  90 H90            0.7512     7.5694   -18.4880 H       
  91 H91           -1.0211     7.7301   -18.4480 H       
  92 H92           -1.1509    11.3501   -24.5436 H       
  93 H93           -1.7490    14.0893   -23.7272 H       
  94 H94            0.2147    13.4513   -25.9734 H       
  95 H95           -0.5054    15.0535   -25.6857 H       
  96 H96            1.1298    13.4959   -23.6340 H       
  97 H97            1.8835    15.8798   -25.3850 H       
  98 H98            2.8970    15.1702   -24.1053 H       
  99 H99            2.5097    14.2230   -25.5617 H       
 100 H100          -0.5407    15.0612   -22.6811 H       
 101 H101           1.1157    15.6597   -22.4231 H       
 102 H102           0.1022    16.3693   -23.7028 H       
 103 H103          -2.6914    15.2448   -25.9721 H       
 104 H104          -0.7935    10.1920   -18.2586 H       
 105 H105           0.9787    10.0313   -18.2987 H       
 106 H106          -4.2718    15.1618   -30.3682 H       
 107 H107          -6.0694    14.8755   -32.0248 H       
 108 H108          -7.1729    15.5474   -27.2660 H       
 109 H109          -3.7463    13.5544   -27.9736 H       
 110 H110          -4.9566    13.7130   -26.6782 H       
 111 H111          -3.6514    16.0230   -28.1873 H       
 112 H112          -4.8618    16.1816   -26.8919 H       
 113 H113           0.1790    11.5804   -20.3537 H       
 114 H114          -0.6135     9.9380   -22.6345 H       
 115 H115           2.1201    11.2917   -22.5538 H       
 116 H116           2.0308     9.2493   -21.3184 H       
 117 H117           1.1227    11.3140   -24.7854 H       
 118 H118           2.3955    10.0707   -24.7368 H       
 119 H119           0.6829     9.5951   -24.6426 H       
 120 H120          -8.8978    13.9664   -31.6292 H       
 121 H121          -9.6026    14.3955   -28.5902 H       
 122 H122          -1.2821    -7.0983     0.7709 H       
 123 H123           0.4224     1.8963   -10.2669 H       
 124 H124          -1.3499     2.0570   -10.2269 H       
 125 H125          -1.1223     4.5189   -10.0375 H       
 126 H126           0.6499     4.3582   -10.0776 H       
 127 H127           0.5046     3.3145   -12.3222 H       
 128 H128          -1.2677     3.4753   -12.2822 H       
 129 H129          -1.0401     5.9372   -12.0928 H       
 130 H130           0.7321     5.7764   -12.1328 H       
 131 H131           0.5868     4.7328   -14.3775 H       
 132 H132          -1.1855     4.8935   -14.3374 H       
 133 H133          -0.9579     7.3555   -14.1481 H       
 134 H134           0.8143     7.1947   -14.1881 H       
 135 H135          -1.1033     6.3118   -16.3927 H       
 136 H136           0.6690     6.1511   -16.4327 H       
@<TRIPOS>BOND
   1    1    2 ar
   2    1    6 ar
   3    1   65 1
   4    2    3 ar
   5    2    7 1
   6    3    4 ar
   7    3   66 1
   8    4    5 ar
   9    4   67 1
  10    5    6 ar
  11    5   68 1
  12    6   69 1
  13    7    8 1
  14    7   70 1
  15    7   71 1
  16    8    9 1
  17    8   55 1
  18    8   72 1
  19    9   10 am
  20    9   73 1
  21   10   11 1
  22   10   12 2
  23   11   13 1
  24   11   14 1
  25   11   74 1
  26   13   18 am
  27   13   75 1
  28   14   15 1
  29   14   76 1
  30   14   77 1
  31   15   16 am
  32   15   17 2
  33   16   78 1
  34   16   79 1
  35   18   19 2
  36   18   20 1
  37   20   21 1
  38   20   80 1
  39   20   81 1
  40   21   22 1
  41   21   82 1
  42   21   83 1
  43   22   23 1
  44   22   84 1
  45   22   85 1
  46   23   58 1
  47   23   86 1
  48   23   87 1
  49   24   25 1
  50   24   64 1
  51   24   88 1
  52   24   89 1
  53   25   39 1
  54   25   90 1
  55   25   91 1
  56   26   27 2
  57   26   48 am
  58   26   39 1
  59   28   29 am
  60   28   30 2
  61   28   49 1
  62   29   31 1
  63   29   92 1
  64   31   32 1
  65   31   33 1
  66   31   93 1
  67   32   34 1
  68   32   94 1
  69   32   95 1
  70   33   37 2
  71   33   38 am
  72   34   35 1
  73   34   36 1
  74   34   96 1
  75   35   97 1
  76   35   98 1
  77   35   99 1
  78   36  100 1
  79   36  101 1
  80   36  102 1
  81   38   46 1
  82   38  103 1
  83   39  104 1
  84   39  105 1
  85   40   41 ar
  86   40   45 ar
  87   40  106 1
  88   41   42 ar
  89   41  107 1
  90   42   43 ar
  91   42   53 1
  92   43   44 ar
  93   43   54 1
  94   44   45 ar
  95   44  108 1
  96   45   47 1
  97   46   47 1
  98   46  109 1
  99   46  110 1
 100   47  111 1
 101   47  112 1
 102   48   49 1
 103   48  113 1
 104   49   50 1
 105   49  114 1
 106   50   51 1
 107   50   52 1
 108   50  115 1
 109   51  116 1
 110   52  117 1
 111   52  118 1
 112   52  119 1
 113   53  120 1
 114   54  121 1
 115   55   56 2
 116   55   57 1
 117   57  122 1
 118   58   59 1
 119   58  123 1
 120   58  124 1
 121   59   60 1
 122   59  125 1
 123   59  126 1
 124   60   61 1
 125   60  127 1
 126   60  128 1
 127   61   62 1
 128   61  129 1
 129   61  130 1
 130   62   63 1
 131   62  131 1
 132   62  132 1
 133   63   64 1
 134   63  133 1
 135   63  134 1
 136   64  135 1
 137   64  136 1

#	End of record

