#	Name: ASD08070378
#	Creating user name:	WinNT
#	Creation time:	15. 06. 2019 21:14

#	Modifying user name:	WinNT
#	Modification time:	15. 06. 2019 21:14

#	Program:	/corina/corina34_cracker 3.40 0067  02.08.2006

@<TRIPOS>MOLECULE
ASD08070378
  49   50    0    0    0
SMALL
NO_CHARGES


@<TRIPOS>ATOM
   1 O1            -0.0174     1.4354     0.0099 O.3     
   2 C2             0.0021    -0.0041     0.0020 C.3     
   3 O3             1.2560    -0.3335     0.6283 O.3     
   4 C4             2.0766     0.7293     0.3806 C.ar    
   5 C5             1.2912     1.8185    -0.0005 C.ar    
   6 C6             1.8892     3.0324    -0.3099 C.ar    
   7 C7             3.2588     3.1681    -0.2423 C.ar    
   8 C8             4.0503     2.0821     0.1381 C.ar    
   9 C9             3.4496     0.8593     0.4498 C.ar    
  10 C10            5.5177     2.2253     0.2103 C.2     
  11 O11            6.2052     1.2788     0.5417 O.2     
  12 N12            6.0953     3.4051    -0.0909 N.am    
  13 C13           -1.1677    -0.5619     0.8152 C.3     
  14 C14           -2.4873    -0.1100     0.1865 C.3     
  15 C15           -1.1023    -2.0905     0.8204 C.3     
  16 C16            8.1518     5.4116    -3.3343 C.3     
  17 C17            7.7027     4.2850    -2.4015 C.3     
  18 C18            8.0006     4.6738    -0.9520 C.3     
  19 C19            7.5516     3.5472    -0.0193 C.3     
  20 C20            7.9614     3.8802     1.4167 C.3     
  21 C21            7.6245     2.6998     2.3300 C.3     
  22 C22            8.0343     3.0328     3.7660 C.3     
  23 H23           -0.0263    -0.3817    -1.0201 H       
  24 H24            1.2789     3.8733    -0.6050 H       
  25 H25            3.7203     4.1142    -0.4837 H       
  26 H26            4.0583     0.0174     0.7449 H       
  27 H27            5.5467     4.1602    -0.3553 H       
  28 H28           -1.1076    -0.1922     1.8389 H       
  29 H29           -2.5474    -0.4797    -0.8372 H       
  30 H30           -3.3207    -0.5074     0.7658 H       
  31 H31           -2.5340     0.9790     0.1828 H       
  32 H32           -1.1624    -2.4602    -0.2033 H       
  33 H33           -0.1622    -2.4124     1.2683 H       
  34 H34           -1.9357    -2.4879     1.3997 H       
  35 H35            7.6131     6.3259    -3.0853 H       
  36 H36            9.2226     5.5769    -3.2152 H       
  37 H37            7.9396     5.1346    -4.3669 H       
  38 H38            6.6319     4.1197    -2.5207 H       
  39 H39            8.2414     3.3707    -2.6505 H       
  40 H40            9.0714     4.8391    -0.8329 H       
  41 H41            7.4619     5.5881    -0.7031 H       
  42 H42            8.0232     2.6131    -0.3244 H       
  43 H43            9.0336     4.0732     1.4531 H       
  44 H44            7.4213     4.7653     1.7528 H       
  45 H45            6.5523     2.5068     2.2936 H       
  46 H46            8.1646     1.8147     1.9940 H       
  47 H47            7.4942     3.9179     4.1020 H       
  48 H48            7.7943     2.1919     4.4166 H       
  49 H49            9.1065     3.2258     3.8023 H       
@<TRIPOS>BOND
   1    1    2 1
   2    1    5 1
   3    2    3 1
   4    2   13 1
   5    2   23 1
   6    3    4 1
   7    4    5 ar
   8    4    9 ar
   9    5    6 ar
  10    6    7 ar
  11    6   24 1
  12    7    8 ar
  13    7   25 1
  14    8    9 ar
  15    8   10 1
  16    9   26 1
  17   10   11 2
  18   10   12 am
  19   12   19 1
  20   12   27 1
  21   13   14 1
  22   13   15 1
  23   13   28 1
  24   14   29 1
  25   14   30 1
  26   14   31 1
  27   15   32 1
  28   15   33 1
  29   15   34 1
  30   16   17 1
  31   16   35 1
  32   16   36 1
  33   16   37 1
  34   17   18 1
  35   17   38 1
  36   17   39 1
  37   18   19 1
  38   18   40 1
  39   18   41 1
  40   19   20 1
  41   19   42 1
  42   20   21 1
  43   20   43 1
  44   20   44 1
  45   21   22 1
  46   21   45 1
  47   21   46 1
  48   22   47 1
  49   22   48 1
  50   22   49 1

#	End of record

