#	Name: ASD06600081
#	Creating user name:	WinNT
#	Creation time:	15. 06. 2019 21:07

#	Modifying user name:	WinNT
#	Modification time:	15. 06. 2019 21:07

#	Program:	/corina/corina34_cracker 3.40 0067  02.08.2006

@<TRIPOS>MOLECULE
ASD06600081
 260  259    0    0    0
SMALL
NO_CHARGES


@<TRIPOS>ATOM
   1 C1            -6.3026    -0.0830    11.4346 C.2     
   2 O2            -5.3601    -0.7562    11.0750 O.2     
   3 N3            -5.3214    -0.1287    13.6573 N.3     
   4 C4            -6.2924     0.5608    12.7972 C.3     
   5 C5            -5.8992     2.0333    12.6626 C.3     
   6 C6            -6.0095     2.7173    14.0267 C.3     
   7 C7            -5.6162     4.1898    13.8921 C.3     
   8 N8            -5.7218     4.8448    15.1983 N.pl3   
   9 C9            -5.4166     6.1789    15.3248 C.2     
  10 N10           -4.9332     6.8351    14.3096 N.2     
  11 N11           -5.6227     6.8235    16.5292 N.am    
  12 C12           -8.2639     0.2596     8.3689 C.2     
  13 O13           -8.8425     1.2421     8.7825 O.2     
  14 N14           -7.3566     0.0940    10.6135 N.am    
  15 C15           -7.3638    -0.5269     9.2866 C.3     
  16 C16           -7.8789    -1.9632     9.3984 C.3     
  17 O17           -9.2454    -1.9480     9.8161 O.3     
  18 C18          -10.6784     0.4036     6.3586 C.2     
  19 O19          -11.0316    -0.4123     7.1836 O.2     
  20 N20           -8.4260    -0.1287     7.0885 N.am    
  21 C21           -9.2123     0.6953     6.1671 C.3     
  22 C22           -8.8121     0.3725     4.7261 C.3     
  23 C23           -7.3750     0.7678     4.5033 C.2     
  24 O24           -6.7665     1.3479     5.3712 O.2     
  25 O25           -6.7710     0.4754     3.3408 O.3     
  26 C26          -13.7388     1.1264     4.4748 C.2     
  27 O27          -13.2018     1.8842     3.6948 O.2     
  28 N28          -11.5970     1.0493     5.6132 N.am    
  29 C29          -13.0127     0.6883     5.7206 C.3     
  30 C30          -13.6251     1.3827     6.9387 C.3     
  31 C31          -15.1037     1.0057     7.0508 C.3     
  32 C32          -15.2272    -0.4873     7.3616 C.3     
  33 C33          -15.7528     1.8159     8.1746 C.3     
  34 C34          -17.2047     1.0375     3.3162 C.2     
  35 O35          -17.6019     0.5747     4.3645 O.2     
  36 N36          -14.9848     0.6761     4.2275 N.am    
  37 C37          -15.7249     1.1709     3.0640 C.3     
  38 C38          -15.3420     0.3517     1.8299 C.3     
  39 O39          -15.7707    -1.0003     2.0037 O.3     
  40 C40          -20.2526     1.2094     1.3053 C.2     
  41 O41          -19.6307     1.2474     0.2648 O.2     
  42 N42          -18.0867     1.4325     2.3767 N.am    
  43 C43          -19.5252     1.3027     2.6218 C.3     
  44 C44          -20.0233     2.5260     3.3941 C.3     
  45 C45          -19.3771     2.5516     4.7807 C.3     
  46 C46          -19.8752     3.7748     5.5530 C.3     
  47 N47          -19.2565     3.7993     6.8807 N.pl3   
  48 C48          -19.5551     4.8135     7.7596 C.2     
  49 N49          -20.3887     5.7531     7.4116 N.2     
  50 N50          -18.9745     4.8364     9.0056 N.pl3   
  51 C51          -23.7212     1.4667     0.1803 C.2     
  52 O52          -24.1046     1.8432     1.2676 O.2     
  53 N53          -21.5944     1.0836     1.2842 N.am    
  54 C54          -22.3015     0.9928     0.0044 C.3     
  55 C55          -22.3046    -0.4603    -0.4746 C.3     
  56 C56          -20.8703    -0.9020    -0.7725 C.3     
  57 C57          -20.8589    -2.3893    -1.1313 C.3     
  58 C58          -20.3199    -0.0899    -1.9465 C.3     
  59 C59          -26.8476     1.3445    -1.6846 C.2     
  60 O60          -26.4036     0.7315    -2.6322 O.2     
  61 N61          -24.5649     1.4721    -0.8707 N.am    
  62 C62          -25.9102     2.0343    -0.7272 C.3     
  63 C63          -25.8732     3.5316    -1.0395 C.3     
  64 C64          -27.2413     4.1486    -0.7419 C.3     
  65 C65          -27.5208     4.0689     0.7602 C.3     
  66 C66          -27.2475     5.6131    -1.1848 C.3     
  67 C67          -30.4313     1.5114    -2.3861 C.2     
  68 O68          -30.6551     2.2932    -1.4863 O.2     
  69 N69          -28.1793     1.4087    -1.4876 N.am    
  70 C70          -29.0942     0.8213    -2.4696 C.3     
  71 C71          -29.2704    -0.6696    -2.1744 C.3     
  72 C72          -27.9108    -1.3678    -2.2459 C.3     
  73 O73          -29.8222    -0.8343    -0.8666 O.3     
  74 C74          -33.7165     1.1980    -3.9583 C.2     
  75 O75          -33.4627     0.0968    -4.3986 O.2     
  76 N76          -31.3785     1.2597    -3.3113 N.am    
  77 C77          -32.6351     2.0127    -3.2967 C.3     
  78 C78          -32.4503     3.3278    -4.0564 C.3     
  79 C79          -31.4424     4.2081    -3.3147 C.3     
  80 C80          -31.2577     5.5232    -4.0744 C.3     
  81 C81          -30.2498     6.4034    -3.3327 C.3     
  82 N82          -30.0724     7.6661    -4.0621 N.3     
  83 C83          -37.0822     1.8221    -5.2412 C.2     
  84 O84          -36.9737     3.0218    -5.1008 O.2     
  85 N85          -34.9659     1.6931    -4.0607 N.am    
  86 C86          -36.0172     0.9011    -4.7039 C.3     
  87 C87          -36.6365    -0.0519    -3.6796 C.3     
  88 C88          -35.5851    -1.0669    -3.2266 C.3     
  89 C89          -36.1661    -1.9403    -2.1128 C.3     
  90 C90          -35.1848    -1.9495    -4.4105 C.3     
  91 C91          -40.2721     1.3930    -7.0618 C.2     
  92 O92          -40.1865     0.1836    -7.0939 O.2     
  93 N93          -38.1553     1.3124    -5.8779 N.am    
  94 C94          -39.1906     2.2077    -6.4003 C.3     
  95 C95          -43.0911     2.0602    -9.2914 C.2     
  96 O96          -42.7505     3.2056    -9.4701 O.2     
  97 N97          -41.3344     2.0083    -7.6180 N.am    
  98 C98          -42.3858     1.2163    -8.2611 C.3     
  99 C99          -43.3921     0.7523    -7.2063 C.3     
 100 O100         -44.0596     1.8880    -6.6525 O.3     
 101 O101         -44.0977     1.5393   -10.0106 O.3     
 102 C102          -6.2468     6.1836    17.5379 C.2     
 103 O103          -6.5476     5.0149    17.4204 O.2     
 104 C104         -13.7864     5.5174    34.6814 C.3     
 105 C105         -13.4575     4.7691    33.3880 C.3     
 106 C106         -12.7555     5.7179    32.4143 C.3     
 107 C107         -12.4267     4.9696    31.1209 C.3     
 108 C108         -11.7247     5.9183    30.1472 C.3     
 109 C109         -11.3959     5.1701    28.8538 C.3     
 110 C110         -10.6939     6.1188    27.8801 C.3     
 111 C111         -10.3651     5.3705    26.5868 C.3     
 112 C112          -9.6631     6.3193    25.6131 C.3     
 113 C113          -9.3342     5.5710    24.3197 C.3     
 114 C114          -8.6323     6.5197    23.3460 C.3     
 115 C115          -8.3034     5.7715    22.0526 C.3     
 116 C116          -7.6015     6.7202    21.0789 C.3     
 117 C117          -7.2726     5.9719    19.7855 C.3     
 118 C118          -6.5707     6.9207    18.8118 C.3     
 119 H119          -4.3921    -0.0763    13.2678 H       
 120 H120          -5.3418     0.2424    14.5953 H       
 121 H121          -7.2856     0.4890    13.2403 H       
 122 H122          -4.8727     2.1038    12.3027 H       
 123 H123          -6.5669     2.5244    11.9548 H       
 124 H124          -7.0359     2.6468    14.3866 H       
 125 H125          -5.3417     2.2262    14.7345 H       
 126 H126          -4.5898     4.2603    13.5322 H       
 127 H127          -6.2840     4.6810    13.1843 H       
 128 H128          -6.0072     4.3369    15.9739 H       
 129 H129          -4.7860     7.7916    14.3760 H       
 130 H130          -5.3182     7.7367    16.6489 H       
 131 H131          -8.1104     0.6325    10.9011 H       
 132 H132          -6.3511    -0.5344     8.8835 H       
 133 H133          -7.8010    -2.4537     8.4281 H       
 134 H134          -7.2815    -2.5076    10.1297 H       
 135 H135          -9.6383    -2.8267     9.9083 H       
 136 H136          -8.0221    -0.9538     6.7771 H       
 137 H137          -9.0221     1.7493     6.3696 H       
 138 H138          -8.9267    -0.6967     4.5480 H       
 139 H139          -9.4519     0.9260     4.0387 H       
 140 H140          -5.8486     0.7491     3.2444 H       
 141 H141         -11.3207     1.7532     5.0056 H       
 142 H142         -13.1046    -0.3919     5.8338 H       
 143 H143         -13.1000     1.0657     7.8397 H       
 144 H144         -13.5331     2.4629     6.8255 H       
 145 H145         -15.6066     1.2235     6.1086 H       
 146 H146         -14.7903    -0.6923     8.3390 H       
 147 H147         -16.2795    -0.7715     7.3671 H       
 148 H148         -14.6997    -1.0618     6.6001 H       
 149 H149         -15.6648     2.8796     7.9532 H       
 150 H150         -16.8062     1.5474     8.2545 H       
 151 H151         -15.2499     1.5981     9.1168 H       
 152 H152         -15.3915     0.0245     4.8198 H       
 153 H153         -15.4782     2.2191     2.8953 H       
 154 H154         -15.8239     0.7753     0.9487 H       
 155 H155         -14.2601     0.3759     1.6991 H       
 156 H156         -15.5605    -1.5786     1.2577 H       
 157 H157         -17.7690     1.8026     1.5383 H       
 158 H158         -19.7144     0.4023     3.2062 H       
 159 H159         -19.7548     3.4324     2.8514 H       
 160 H160         -21.1069     2.4729     3.4991 H       
 161 H161         -19.6455     1.6452     5.3234 H       
 162 H162         -18.2935     2.6047     4.6757 H       
 163 H163         -19.6068     4.6812     5.0103 H       
 164 H164         -20.9588     3.7217     5.6580 H       
 165 H165         -18.6362     3.1000     7.1397 H       
 166 H166         -20.5994     6.4686     8.0318 H       
 167 H167         -18.3542     4.1371     9.2646 H       
 168 H168         -19.1852     5.5519     9.6258 H       
 169 H169         -22.0918     1.0531     2.1164 H       
 170 H170         -21.7987     1.6177    -0.7336 H       
 171 H171         -22.7273    -1.0979     0.3017 H       
 172 H172         -22.9057    -0.5430    -1.3801 H       
 173 H173         -20.2488    -0.7358     0.1074 H       
 174 H174         -21.4805    -2.5556    -2.0112 H       
 175 H175         -19.8372    -2.7041    -1.3435 H       
 176 H176         -21.2510    -2.9679    -0.2949 H       
 177 H177         -20.9415    -0.2562    -2.8264 H       
 178 H178         -20.3281     0.9697    -1.6909 H       
 179 H179         -19.2982    -0.4046    -2.1587 H       
 180 H180         -24.2814     1.1039    -1.7221 H       
 181 H181         -26.2594     1.8847     0.2944 H       
 182 H182         -25.1153     4.0130    -0.4216 H       
 183 H183         -25.6301     3.6773    -2.0921 H       
 184 H184         -28.0123     3.6016    -1.2845 H       
 185 H185         -28.5252     4.4403     0.9631 H       
 186 H186         -27.4431     3.0328     1.0898 H       
 187 H187         -26.7931     4.6767     1.2980 H       
 188 H188         -27.0484     5.6699    -2.2550 H       
 189 H189         -28.2222     6.0526    -0.9728 H       
 190 H190         -26.4764     6.1601    -0.6422 H       
 191 H191         -28.5321     1.8439    -0.6957 H       
 192 H192         -28.6822     0.9473    -3.4708 H       
 193 H193         -29.9435    -1.1087    -2.9108 H       
 194 H194         -27.2274    -0.9061    -1.5333 H       
 195 H195         -28.0312    -2.4234    -2.0024 H       
 196 H196         -27.5054    -1.2713    -3.2531 H       
 197 H197         -30.6861    -0.4160    -0.7487 H       
 198 H198         -31.2281     0.5800    -3.9868 H       
 199 H199         -32.9193     2.2253    -2.2661 H       
 200 H200         -32.0806     3.1187    -5.0603 H       
 201 H201         -33.4066     3.8468    -4.1223 H       
 202 H202         -31.8122     4.4172    -2.3109 H       
 203 H203         -30.4861     3.6891    -3.2489 H       
 204 H204         -30.8879     5.3141    -5.0782 H       
 205 H205         -32.2140     6.0422    -4.1403 H       
 206 H206         -30.6195     6.6125    -2.3289 H       
 207 H207         -29.2935     5.8845    -3.2669 H       
 208 H208         -29.4108     8.2655    -3.5919 H       
 209 H209         -29.7918     7.4962    -5.0163 H       
 210 H210         -35.1689     2.5738    -3.7086 H       
 211 H211         -35.5880     0.3248    -5.5234 H       
 212 H212         -36.9866     0.5175    -2.8187 H       
 213 H213         -37.4767    -0.5773    -4.1337 H       
 214 H214         -34.7074    -0.5390    -2.8538 H       
 215 H215         -37.0438    -2.4683    -2.4855 H       
 216 H216         -35.4170    -2.6634    -1.7900 H       
 217 H217         -36.4513    -1.3115    -1.2693 H       
 218 H218         -34.7709    -1.3273    -5.2039 H       
 219 H219         -34.4358    -2.6726    -4.0877 H       
 220 H220         -36.0625    -2.4775    -4.7832 H       
 221 H221         -38.2421     0.3529    -5.9902 H       
 222 H222         -38.7494     2.8867    -7.1299 H       
 223 H223         -39.6198     2.7840    -5.5807 H       
 224 H224         -41.4029     2.9756    -7.5924 H       
 225 H225         -41.9409     0.3474    -8.7459 H       
 226 H226         -44.1242     0.0904    -7.6689 H       
 227 H227         -42.8678     0.2172    -6.4145 H       
 228 H228         -44.7138     1.6682    -5.9751 H       
 229 H229         -44.5195     2.1190   -10.6594 H       
 230 H230         -12.8648     5.8849    35.1329 H       
 231 H231         -14.4421     6.3589    34.4576 H       
 232 H232         -14.2864     4.8415    35.3751 H       
 233 H233         -12.8017     3.9277    33.6118 H       
 234 H234         -14.3790     4.4016    32.9365 H       
 235 H235         -13.4113     6.5593    32.1906 H       
 236 H236         -11.8340     6.0854    32.8658 H       
 237 H237         -11.7709     4.1282    31.3447 H       
 238 H238         -13.3482     4.6021    30.6694 H       
 239 H239         -12.3805     6.7598    29.9235 H       
 240 H240         -10.8032     6.2859    30.5987 H       
 241 H241         -10.7401     4.3286    29.0776 H       
 242 H242         -12.3174     4.8025    28.4024 H       
 243 H243         -11.3497     6.9603    27.6564 H       
 244 H244          -9.7724     6.4863    28.3316 H       
 245 H245          -9.7093     4.5291    26.8105 H       
 246 H246         -11.2866     5.0030    26.1353 H       
 247 H247         -10.3189     7.1607    25.3893 H       
 248 H248          -8.7416     6.6868    26.0646 H       
 249 H249          -8.6785     4.7295    24.5434 H       
 250 H250         -10.2558     5.2035    23.8682 H       
 251 H251          -9.2881     7.3612    23.1222 H       
 252 H252          -7.7108     6.8873    23.7975 H       
 253 H253          -7.6477     4.9300    22.2764 H       
 254 H254          -9.2250     5.4039    21.6011 H       
 255 H255          -8.2573     7.5616    20.8552 H       
 256 H256          -6.6800     7.0877    21.5304 H       
 257 H257          -6.6169     5.1305    20.0093 H       
 258 H258          -8.1941     5.6044    19.3340 H       
 259 H259          -5.6492     7.2882    19.2633 H       
 260 H260          -7.2265     7.7621    18.5881 H       
@<TRIPOS>BOND
   1    1    2 2
   2    1    4 1
   3    1   14 am
   4    3    4 1
   5    3  119 1
   6    3  120 1
   7    4    5 1
   8    4  121 1
   9    5    6 1
  10    5  122 1
  11    5  123 1
  12    6    7 1
  13    6  124 1
  14    6  125 1
  15    7    8 1
  16    7  126 1
  17    7  127 1
  18    8    9 1
  19    8  128 1
  20    9   10 2
  21    9   11 1
  22   10  129 1
  23   11  102 am
  24   11  130 1
  25   12   13 2
  26   12   15 1
  27   12   20 am
  28   14   15 1
  29   14  131 1
  30   15   16 1
  31   15  132 1
  32   16   17 1
  33   16  133 1
  34   16  134 1
  35   17  135 1
  36   18   19 2
  37   18   21 1
  38   18   28 am
  39   20   21 1
  40   20  136 1
  41   21   22 1
  42   21  137 1
  43   22   23 1
  44   22  138 1
  45   22  139 1
  46   23   24 2
  47   23   25 1
  48   25  140 1
  49   26   27 2
  50   26   29 1
  51   26   36 am
  52   28   29 1
  53   28  141 1
  54   29   30 1
  55   29  142 1
  56   30   31 1
  57   30  143 1
  58   30  144 1
  59   31   32 1
  60   31   33 1
  61   31  145 1
  62   32  146 1
  63   32  147 1
  64   32  148 1
  65   33  149 1
  66   33  150 1
  67   33  151 1
  68   34   35 2
  69   34   37 1
  70   34   42 am
  71   36   37 1
  72   36  152 1
  73   37   38 1
  74   37  153 1
  75   38   39 1
  76   38  154 1
  77   38  155 1
  78   39  156 1
  79   40   41 2
  80   40   43 1
  81   40   53 am
  82   42   43 1
  83   42  157 1
  84   43   44 1
  85   43  158 1
  86   44   45 1
  87   44  159 1
  88   44  160 1
  89   45   46 1
  90   45  161 1
  91   45  162 1
  92   46   47 1
  93   46  163 1
  94   46  164 1
  95   47   48 1
  96   47  165 1
  97   48   49 2
  98   48   50 1
  99   49  166 1
 100   50  167 1
 101   50  168 1
 102   51   52 2
 103   51   54 1
 104   51   61 am
 105   53   54 1
 106   53  169 1
 107   54   55 1
 108   54  170 1
 109   55   56 1
 110   55  171 1
 111   55  172 1
 112   56   57 1
 113   56   58 1
 114   56  173 1
 115   57  174 1
 116   57  175 1
 117   57  176 1
 118   58  177 1
 119   58  178 1
 120   58  179 1
 121   59   60 2
 122   59   62 1
 123   59   69 am
 124   61   62 1
 125   61  180 1
 126   62   63 1
 127   62  181 1
 128   63   64 1
 129   63  182 1
 130   63  183 1
 131   64   65 1
 132   64   66 1
 133   64  184 1
 134   65  185 1
 135   65  186 1
 136   65  187 1
 137   66  188 1
 138   66  189 1
 139   66  190 1
 140   67   68 2
 141   67   70 1
 142   67   76 am
 143   69   70 1
 144   69  191 1
 145   70   71 1
 146   70  192 1
 147   71   72 1
 148   71   73 1
 149   71  193 1
 150   72  194 1
 151   72  195 1
 152   72  196 1
 153   73  197 1
 154   74   75 2
 155   74   77 1
 156   74   85 am
 157   76   77 1
 158   76  198 1
 159   77   78 1
 160   77  199 1
 161   78   79 1
 162   78  200 1
 163   78  201 1
 164   79   80 1
 165   79  202 1
 166   79  203 1
 167   80   81 1
 168   80  204 1
 169   80  205 1
 170   81   82 1
 171   81  206 1
 172   81  207 1
 173   82  208 1
 174   82  209 1
 175   83   84 2
 176   83   86 1
 177   83   93 am
 178   85   86 1
 179   85  210 1
 180   86   87 1
 181   86  211 1
 182   87   88 1
 183   87  212 1
 184   87  213 1
 185   88   89 1
 186   88   90 1
 187   88  214 1
 188   89  215 1
 189   89  216 1
 190   89  217 1
 191   90  218 1
 192   90  219 1
 193   90  220 1
 194   91   92 2
 195   91   94 1
 196   91   97 am
 197   93   94 1
 198   93  221 1
 199   94  222 1
 200   94  223 1
 201   95   96 2
 202   95   98 1
 203   95  101 1
 204   97   98 1
 205   97  224 1
 206   98   99 1
 207   98  225 1
 208   99  100 1
 209   99  226 1
 210   99  227 1
 211  100  228 1
 212  101  229 1
 213  102  103 2
 214  102  118 1
 215  104  105 1
 216  104  230 1
 217  104  231 1
 218  104  232 1
 219  105  106 1
 220  105  233 1
 221  105  234 1
 222  106  107 1
 223  106  235 1
 224  106  236 1
 225  107  108 1
 226  107  237 1
 227  107  238 1
 228  108  109 1
 229  108  239 1
 230  108  240 1
 231  109  110 1
 232  109  241 1
 233  109  242 1
 234  110  111 1
 235  110  243 1
 236  110  244 1
 237  111  112 1
 238  111  245 1
 239  111  246 1
 240  112  113 1
 241  112  247 1
 242  112  248 1
 243  113  114 1
 244  113  249 1
 245  113  250 1
 246  114  115 1
 247  114  251 1
 248  114  252 1
 249  115  116 1
 250  115  253 1
 251  115  254 1
 252  116  117 1
 253  116  255 1
 254  116  256 1
 255  117  118 1
 256  117  257 1
 257  117  258 1
 258  118  259 1
 259  118  260 1

#	End of record

