#	Name: ASD01028313
#	Creating user name:	WinNT
#	Creation time:	15. 06. 2019 18:56

#	Modifying user name:	WinNT
#	Modification time:	15. 06. 2019 18:56

#	Program:	/corina/corina34_cracker 3.40 0067  02.08.2006

@<TRIPOS>MOLECULE
ASD01028313
  46   50    0    0    0
SMALL
NO_CHARGES


@<TRIPOS>ATOM
   1 C1            -0.0166     1.3723     0.0096 C.ar    
   2 C2             0.0021    -0.0041     0.0020 C.ar    
   3 C3             1.1747     2.1037     0.0021 C.ar    
   4 C4             2.3796     1.4715    -0.0132 C.ar    
   5 C5             2.4325     0.0698    -0.0211 C.ar    
   6 C6             1.2318    -0.6813    -0.0133 C.ar    
   7 C7             3.6676    -0.6167    -0.0365 C.ar    
   8 C8             3.6410    -2.0000    -0.0432 C.ar    
   9 C9             2.4219    -2.6658    -0.0348 C.ar    
  10 N10            1.2802    -2.0187    -0.0200 N.ar    
  11 O11            4.8427     0.0595    -0.0449 O.3     
  12 C12            6.0400    -0.7206    -0.0603 C.3     
  13 C13            7.2364     0.1957    -0.0678 C.2     
  14 N14            7.8801     0.6753     1.0188 N.pl3   
  15 C15            8.9004     1.4618     0.5387 C.2     
  16 N16            8.8264     1.4210    -0.7816 N.2     
  17 N17            7.8432     0.6660    -1.1290 N.2     
  18 N18            7.7019     0.5230     2.3953 N.2     
  19 C19            8.5049     1.1279     3.2424 C.2     
  20 C20            9.5609     1.9421     2.7808 C.2     
  21 C21            9.7602     2.1084     1.4467 C.2     
  22 C22            8.2981     0.9528     4.7011 C.ar    
  23 O23           -1.2065     2.0274     0.0187 O.3     
  24 C24           -1.1606     3.4557     0.0263 C.3     
  25 C25            7.2583     0.1515     5.1688 C.ar    
  26 C26            7.0708    -0.0082     6.5268 C.ar    
  27 C27            7.9125     0.6256     7.4230 C.ar    
  28 C28            8.9462     1.4221     6.9644 C.ar    
  29 C29            9.1465     1.5843     5.6085 C.ar    
  30 H30           -0.9239    -0.5598     0.0082 H       
  31 H31            1.1383     3.1831     0.0082 H       
  32 H32            3.2931     2.0476    -0.0195 H       
  33 H33            4.5644    -2.5599    -0.0552 H       
  34 H34            2.4133    -3.7457    -0.0405 H       
  35 H35            6.0726    -1.3536     0.8264 H       
  36 H36            6.0551    -1.3452    -0.9534 H       
  37 H37           10.2121     2.4332     3.4887 H       
  38 H38           10.5669     2.7304     1.0877 H       
  39 H39           -0.6396     3.8072    -0.8642 H       
  40 H40           -2.1761     3.8518     0.0332 H       
  41 H41           -0.6312     3.7975     0.9157 H       
  42 H42            6.6001    -0.3432     4.4699 H       
  43 H43            6.2653    -0.6290     6.8904 H       
  44 H44            7.7617     0.4984     8.4849 H       
  45 H45            9.6002     1.9149     7.6686 H       
  46 H46            9.9539     2.2064     5.2515 H       
@<TRIPOS>BOND
   1    1    2 ar
   2    1    3 ar
   3    1   23 1
   4    2    6 ar
   5    2   30 1
   6    3    4 ar
   7    3   31 1
   8    4    5 ar
   9    4   32 1
  10    5    6 ar
  11    5    7 ar
  12    6   10 ar
  13    7    8 ar
  14    7   11 1
  15    8    9 ar
  16    8   33 1
  17    9   10 ar
  18    9   34 1
  19   11   12 1
  20   12   13 1
  21   12   35 1
  22   12   36 1
  23   13   14 1
  24   13   17 2
  25   14   15 1
  26   14   18 1
  27   15   16 2
  28   15   21 1
  29   16   17 1
  30   18   19 2
  31   19   20 1
  32   19   22 1
  33   20   21 2
  34   20   37 1
  35   21   38 1
  36   22   25 ar
  37   22   29 ar
  38   23   24 1
  39   24   39 1
  40   24   40 1
  41   24   41 1
  42   25   26 ar
  43   25   42 1
  44   26   27 ar
  45   26   43 1
  46   27   28 ar
  47   27   44 1
  48   28   29 ar
  49   28   45 1
  50   29   46 1

#	End of record

