#	Name: ASD07931498
#	Creating user name:	WinNT
#	Creation time:	15. 06. 2019 21:13

#	Modifying user name:	WinNT
#	Modification time:	15. 06. 2019 21:13

#	Program:	/corina/corina34_cracker 3.40 0067  02.08.2006

@<TRIPOS>MOLECULE
ASD07931498
  53   58    0    0    0
SMALL
NO_CHARGES


@<TRIPOS>ATOM
   1 N1            -0.0357     1.3024     0.0059 N.pl3   
   2 C2            -0.0526    -0.0336    -0.1246 C.2     
   3 C3             1.1052    -0.7712    -0.1509 C.2     
   4 C4             2.4085    -0.0787    -0.0324 C.2     
   5 C5             2.3817     1.3897     0.1093 C.ar    
   6 C6             3.5547     2.1295     0.2268 C.ar    
   7 C7             3.4885     3.5010     0.3571 C.ar    
   8 C8             2.2597     4.1418     0.3716 C.ar    
   9 C9             1.0884     3.4196     0.2563 C.ar    
  10 C10            1.1345     2.0339     0.1230 C.ar    
  11 N11            2.7842    -2.2636    -0.2300 N.am    
  12 N12            3.3378    -0.9891    -0.0844 N.2     
  13 C13            1.4366    -2.1871    -0.2755 C.2     
  14 O14            0.6537    -3.1149    -0.3968 O.2     
  15 C15           -1.3129     2.0198     0.0192 C.3     
  16 C16           -1.7065     2.3708    -1.3925 C.ar    
  17 C17           -2.3521     1.4365    -2.1814 C.ar    
  18 C18           -2.7142     1.7552    -3.4756 C.ar    
  19 C19           -2.4296     3.0154    -3.9842 C.ar    
  20 C20           -1.7817     3.9515    -3.1895 C.ar    
  21 C21           -1.4265     3.6285    -1.8945 C.ar    
  22 N22           -2.7954     3.3417    -5.2975 N.pl3   
  23 N23           -3.4502     2.4987    -6.2047 N.2     
  24 C24           -3.6201     3.1552    -7.3240 C.2     
  25 C25           -3.0798     4.4363    -7.1668 C.2     
  26 C26           -2.5839     4.5281    -5.9111 C.2     
  27 C27            5.2220    -4.7897    -1.3275 C.ar    
  28 C28            4.5167    -3.6010    -1.2758 C.ar    
  29 C29            3.5194    -3.4477    -0.3158 C.ar    
  30 C30            3.2739    -4.5070     0.5581 C.ar    
  31 C31            4.0211    -5.6597     0.4421 C.ar    
  32 N32            4.9586    -5.7694    -0.4810 N.ar    
  33 C33            4.8231    -2.4878    -2.2442 C.3     
  34 F34            6.1881    -4.9528    -2.2577 F       
  35 F35           -0.1025     4.0573     0.2729 F       
  36 H36           -1.0018    -0.5416    -0.2109 H       
  37 H37            4.5130     1.6315     0.2164 H       
  38 H38            4.3973     4.0774     0.4484 H       
  39 H39            2.2179     5.2161     0.4744 H       
  40 H40           -2.0807     1.3866     0.4637 H       
  41 H41           -1.2107     2.9329     0.6055 H       
  42 H42           -2.5732     0.4563    -1.7853 H       
  43 H43           -3.2177     1.0248    -4.0915 H       
  44 H44           -1.5591     4.9326    -3.5824 H       
  45 H45           -0.9259     4.3575    -1.2746 H       
  46 H46           -4.0950     2.7736    -8.2158 H       
  47 H47           -3.0650     5.2156    -7.9143 H       
  48 H48           -2.1034     5.3927    -5.4776 H       
  49 H49            2.5087    -4.4250     1.3158 H       
  50 H50            3.8368    -6.4841     1.1151 H       
  51 H51            4.2054    -2.6011    -3.1352 H       
  52 H52            4.6096    -1.5280    -1.7738 H       
  53 H53            5.8757    -2.5291    -2.5241 H       
@<TRIPOS>BOND
   1    1    2 1
   2    1   10 1
   3    1   15 1
   4    2    3 2
   5    2   36 1
   6    3    4 1
   7    3   13 1
   8    4    5 1
   9    4   12 2
  10    5    6 ar
  11    5   10 ar
  12    6    7 ar
  13    6   37 1
  14    7    8 ar
  15    7   38 1
  16    8    9 ar
  17    8   39 1
  18    9   10 ar
  19    9   35 1
  20   11   12 1
  21   11   13 am
  22   11   29 1
  23   13   14 2
  24   15   16 1
  25   15   40 1
  26   15   41 1
  27   16   17 ar
  28   16   21 ar
  29   17   18 ar
  30   17   42 1
  31   18   19 ar
  32   18   43 1
  33   19   20 ar
  34   19   22 1
  35   20   21 ar
  36   20   44 1
  37   21   45 1
  38   22   23 1
  39   22   26 1
  40   23   24 2
  41   24   25 1
  42   24   46 1
  43   25   26 2
  44   25   47 1
  45   26   48 1
  46   27   28 ar
  47   27   32 ar
  48   27   34 1
  49   28   29 ar
  50   28   33 1
  51   29   30 ar
  52   30   31 ar
  53   30   49 1
  54   31   32 ar
  55   31   50 1
  56   33   51 1
  57   33   52 1
  58   33   53 1

#	End of record

