#	Name: ASD07998004
#	Creating user name:	WinNT
#	Creation time:	15. 06. 2019 21:14

#	Modifying user name:	WinNT
#	Modification time:	15. 06. 2019 21:14

#	Program:	/corina/corina34_cracker 3.40 0067  02.08.2006

@<TRIPOS>MOLECULE
ASD07998004
  42   44    0    0    0
SMALL
NO_CHARGES


@<TRIPOS>ATOM
   1 C1            -2.9052     1.4847    -0.0366 C.3     
   2 C2            -2.8829    -0.0442     0.0186 C.3     
   3 C3            -1.4333    -0.5336     0.0129 C.3     
   4 N4            -4.2969     1.9546    -0.0311 N.3     
   5 C5            -4.3575     3.4215    -0.0834 C.3     
   6 N6            -1.4106    -1.9942     0.1252 N.pl3   
   7 C7            -1.2481    -2.5597     1.3867 C.ar    
   8 C8            -2.2904    -3.2919     1.8926 C.ar    
   9 C9            -3.5307    -3.4989     1.0775 C.3     
  10 C10           -3.2982    -4.4118    -0.1011 C.3     
  11 C11           -2.3665    -3.8520    -1.1476 C.ar    
  12 C12           -1.5579    -2.7494    -1.0319 C.ar    
  13 C13           -2.1897    -3.8506     3.1567 C.ar    
  14 C14           -1.0288    -3.6778     3.8892 C.ar    
  15 C15            0.0272    -2.9525     3.3691 C.ar    
  16 C16           -0.0767    -2.3870     2.1105 C.ar    
  17 C17           -0.7981    -2.3287    -2.1308 C.ar    
  18 C18           -0.8284    -3.0230    -3.3186 C.ar    
  19 C19           -1.6202    -4.1520    -3.4229 C.ar    
  20 C20           -2.3691    -4.5565    -2.3551 C.ar    
  21 H21           -2.3823     1.8872     0.8310 H       
  22 H22           -2.4112     1.8226    -0.9476 H       
  23 H23           -3.3769    -0.3821     0.9296 H       
  24 H24           -3.4057    -0.4467    -0.8490 H       
  25 H25           -0.9521    -0.2333    -0.9179 H       
  26 H26           -0.8987    -0.0960     0.8560 H       
  27 H27           -4.8203     1.5438    -0.7896 H       
  28 H28           -3.8447     3.8374     0.7839 H       
  29 H29           -3.8736     3.7728    -0.9947 H       
  30 H30           -5.3991     3.7425    -0.0781 H       
  31 H31           -4.3026    -3.9327     1.7131 H       
  32 H32           -3.8785    -2.5326     0.7123 H       
  33 H33           -2.8829    -5.3507     0.2652 H       
  34 H34           -4.2591    -4.6225    -0.5704 H       
  35 H35           -3.0123    -4.4170     3.5675 H       
  36 H36           -0.9470    -4.1123     4.8746 H       
  37 H37            0.9325    -2.8275     3.9446 H       
  38 H38            0.7432    -1.8186     1.6968 H       
  39 H39           -0.1802    -1.4471    -2.0449 H       
  40 H40           -0.2401    -2.6894    -4.1606 H       
  41 H41           -1.6414    -4.7149    -4.3444 H       
  42 H42           -2.9856    -5.4380    -2.4508 H       
@<TRIPOS>BOND
   1    1    2 1
   2    1    4 1
   3    1   21 1
   4    1   22 1
   5    2    3 1
   6    2   23 1
   7    2   24 1
   8    3    6 1
   9    3   25 1
  10    3   26 1
  11    4    5 1
  12    4   27 1
  13    5   28 1
  14    5   29 1
  15    5   30 1
  16    6    7 1
  17    6   12 1
  18    7    8 ar
  19    7   16 ar
  20    8    9 1
  21    8   13 ar
  22    9   10 1
  23    9   31 1
  24    9   32 1
  25   10   11 1
  26   10   33 1
  27   10   34 1
  28   11   12 ar
  29   11   20 ar
  30   12   17 ar
  31   13   14 ar
  32   13   35 1
  33   14   15 ar
  34   14   36 1
  35   15   16 ar
  36   15   37 1
  37   16   38 1
  38   17   18 ar
  39   17   39 1
  40   18   19 ar
  41   18   40 1
  42   19   20 ar
  43   19   41 1
  44   20   42 1

#	End of record

