#	Name: ASD01917562
#	Creating user name:	WinNT
#	Creation time:	15. 06. 2019 20:09

#	Modifying user name:	WinNT
#	Modification time:	15. 06. 2019 20:09

#	Program:	/corina/corina34_cracker 3.40 0067  02.08.2006

@<TRIPOS>MOLECULE
ASD01917562
  32   34    0    0    0
SMALL
NO_CHARGES


@<TRIPOS>ATOM
   1 N1            -0.0154     1.2828     0.0091 N.2     
   2 C2             0.0021    -0.0041     0.0020 C.2     
   3 S3             1.6095    -0.5841    -0.0164 S.3     
   4 C4             2.2216     1.0679    -0.0134 C.2     
   5 C5             1.1578     1.9044     0.0012 C.2     
   6 C6             1.2859     3.3306     0.0072 C.1     
   7 C7             1.3910     4.4999     0.0121 C.1     
   8 C8             1.5191     5.9261     0.0181 C.ar    
   9 C9             2.7837     6.5263     0.0093 C.ar    
  10 C10            2.8513     7.9190     0.0157 C.ar    
  11 C11            1.6669     8.6552     0.0306 C.ar    
  12 N12            0.4947     8.0532     0.0390 N.ar    
  13 C13            0.3833     6.7409     0.0271 C.ar    
  14 C14           -1.2252    -0.8785     0.0090 C.3     
  15 C15            4.1656     8.6084     0.0074 C.ar    
  16 C16            4.2248    10.0007     0.0139 C.ar    
  17 C17            5.4492    10.6373     0.0060 C.ar    
  18 C18            6.6171     9.8963    -0.0083 C.ar    
  19 C19            6.5647     8.5131    -0.0153 C.ar    
  20 C20            5.3441     7.8660    -0.0012 C.ar    
  21 Cl21           8.0349     7.5902    -0.0338 Cl      
  22 H22            3.2610     1.3609    -0.0212 H       
  23 H23            3.6822     5.9272    -0.0018 H       
  24 H24            1.7111     9.7342     0.0356 H       
  25 H25           -0.5975     6.2887     0.0291 H       
  26 H26           -1.5310    -1.0838    -1.0169 H       
  27 H27           -0.9999    -1.8169     0.5157 H       
  28 H28           -2.0326    -0.3673     0.5334 H       
  29 H29            3.3138    10.5806     0.0247 H       
  30 H30            5.4956    11.7163     0.0107 H       
  31 H31            7.5731    10.3986    -0.0144 H       
  32 H32            5.3038     6.7868    -0.0018 H       
@<TRIPOS>BOND
   1    1    2 2
   2    1    5 1
   3    2    3 1
   4    2   14 1
   5    3    4 1
   6    4    5 2
   7    4   22 1
   8    5    6 1
   9    6    7 3
  10    7    8 1
  11    8    9 ar
  12    8   13 ar
  13    9   10 ar
  14    9   23 1
  15   10   11 ar
  16   10   15 1
  17   11   12 ar
  18   11   24 1
  19   12   13 ar
  20   13   25 1
  21   14   26 1
  22   14   27 1
  23   14   28 1
  24   15   16 ar
  25   15   20 ar
  26   16   17 ar
  27   16   29 1
  28   17   18 ar
  29   17   30 1
  30   18   19 ar
  31   18   31 1
  32   19   20 ar
  33   19   21 1
  34   20   32 1

#	End of record

