#	Name: ASD06170107
#	Creating user name:	WinNT
#	Creation time:	15. 06. 2019 21:05

#	Modifying user name:	WinNT
#	Modification time:	15. 06. 2019 21:05

#	Program:	/corina/corina34_cracker 3.40 0067  02.08.2006

@<TRIPOS>MOLECULE
ASD06170107
  68   72    0    0    0
SMALL
NO_CHARGES


@<TRIPOS>ATOM
   1 N1            -0.1450     1.3383    -0.3674 N.pl3   
   2 N2            -0.0526    -0.0068     0.0025 N.am    
   3 C3             1.2430    -0.2990     0.2397 C.2     
   4 C4             2.0012     0.9397     0.0029 C.2     
   5 C5             1.0791     1.8995    -0.3663 C.2     
   6 C6             3.4520     1.1201     0.1343 C.2     
   7 O7             3.9532     2.2055    -0.0929 O.2     
   8 N8             4.2290     0.0837     0.5066 N.am    
   9 C9            -1.1238    -0.8997     0.1090 C.ar    
  10 C10           -2.0990    -0.9379    -0.8791 C.ar    
  11 C11           -3.1553    -1.8211    -0.7711 C.ar    
  12 C12           -3.2428    -2.6666     0.3197 C.ar    
  13 C13           -2.2735    -2.6311     1.3053 C.ar    
  14 C14           -1.2116    -1.7542     1.2004 C.ar    
  15 O15            1.6956    -1.3753     0.5826 O.2     
  16 C16            1.3907     3.3331    -0.7108 C.3     
  17 C17            5.6235     0.2056     0.4702 C.ar    
  18 C18            6.2159     1.4527     0.6217 C.ar    
  19 C19            7.5925     1.5719     0.5860 C.ar    
  20 C20            8.3825     0.4439     0.3987 C.ar    
  21 C21            7.7900    -0.8004     0.2476 C.ar    
  22 C22            6.4144    -0.9208     0.2884 C.ar    
  23 O23            9.7370     0.5608     0.3631 O.3     
  24 N24           11.6919     1.2662     3.9254 N.ar    
  25 C25           10.3803     1.2381     3.8865 C.ar    
  26 C26            9.6875     1.0037     2.7058 C.ar    
  27 C27           10.3866     0.7923     1.5301 C.ar    
  28 C28           11.7987     0.8248     1.5837 C.ar    
  29 C29           12.5750     0.6199     0.4338 C.ar    
  30 C30           13.9328     0.6578     0.5176 C.ar    
  31 C31           14.5674     0.8991     1.7395 C.ar    
  32 C32           13.8332     1.1035     2.8859 C.ar    
  33 C33           12.4309     1.0701     2.8270 C.ar    
  34 O34           15.9241     0.9319     1.7965 O.3     
  35 C35           16.6302     0.7121     0.5737 C.3     
  36 F36            8.1698     2.7845     0.7328 F       
  37 C37           -1.3884     2.0326    -0.7111 C.3     
  38 C38           -2.0199     2.6065     0.5588 C.3     
  39 C39           -3.2501     3.4365     0.1864 C.3     
  40 N40           -1.0436     3.4604     1.2484 N.3     
  41 H41            3.8222    -0.7466     0.7998 H       
  42 H42           -2.0317    -0.2773    -1.7309 H       
  43 H43           -3.9139    -1.8512    -1.5392 H       
  44 H44           -4.0701    -3.3558     0.4021 H       
  45 H45           -2.3447    -3.2927     2.1559 H       
  46 H46           -0.4527    -1.7298     1.9685 H       
  47 H47            1.3442     3.9421     0.1920 H       
  48 H48            2.3909     3.3947    -1.1395 H       
  49 H49            0.6622     3.6996    -1.4341 H       
  50 H50            5.6013     2.3288     0.7668 H       
  51 H51            8.4044    -1.6766     0.1021 H       
  52 H52            5.9538    -1.8911     0.1747 H       
  53 H53            9.8243     1.4017     4.7979 H       
  54 H54            8.6077     0.9858     2.7051 H       
  55 H55           12.0964     0.4322    -0.5160 H       
  56 H56           14.5270     0.4992    -0.3702 H       
  57 H57           14.3331     1.2884     3.8252 H       
  58 H58           17.7030     0.7646     0.7592 H       
  59 H59           16.3773    -0.2723     0.1799 H       
  60 H60           16.3489     1.4765    -0.1507 H       
  61 H61           -1.1715     2.8429    -1.4072 H       
  62 H62           -2.0804     1.3301    -1.1756 H       
  63 H63           -2.3179     1.7905     1.2171 H       
  64 H64           -3.9746     2.8029    -0.3253 H       
  65 H65           -3.7000     3.8453     1.0911 H       
  66 H66           -2.9521     4.2525    -0.4719 H       
  67 H67           -0.7515     4.2250     0.6584 H       
  68 H68           -1.4144     3.8000     2.1232 H       
@<TRIPOS>BOND
   1    1    2 1
   2    1    5 1
   3    1   37 1
   4    2    3 am
   5    2    9 1
   6    3    4 1
   7    3   15 2
   8    4    5 2
   9    4    6 1
  10    5   16 1
  11    6    7 2
  12    6    8 am
  13    8   17 1
  14    8   41 1
  15    9   10 ar
  16    9   14 ar
  17   10   11 ar
  18   10   42 1
  19   11   12 ar
  20   11   43 1
  21   12   13 ar
  22   12   44 1
  23   13   14 ar
  24   13   45 1
  25   14   46 1
  26   16   47 1
  27   16   48 1
  28   16   49 1
  29   17   18 ar
  30   17   22 ar
  31   18   19 ar
  32   18   50 1
  33   19   20 ar
  34   19   36 1
  35   20   21 ar
  36   20   23 1
  37   21   22 ar
  38   21   51 1
  39   22   52 1
  40   23   27 1
  41   24   25 ar
  42   24   33 ar
  43   25   26 ar
  44   25   53 1
  45   26   27 ar
  46   26   54 1
  47   27   28 ar
  48   28   29 ar
  49   28   33 ar
  50   29   30 ar
  51   29   55 1
  52   30   31 ar
  53   30   56 1
  54   31   32 ar
  55   31   34 1
  56   32   33 ar
  57   32   57 1
  58   34   35 1
  59   35   58 1
  60   35   59 1
  61   35   60 1
  62   37   38 1
  63   37   61 1
  64   37   62 1
  65   38   39 1
  66   38   40 1
  67   38   63 1
  68   39   64 1
  69   39   65 1
  70   39   66 1
  71   40   67 1
  72   40   68 1

#	End of record

