#	Name: ASD02030088
#	Creating user name:	WinNT
#	Creation time:	15. 06. 2019 20:14

#	Modifying user name:	WinNT
#	Modification time:	15. 06. 2019 20:14

#	Program:	/corina/corina34_cracker 3.40 0067  02.08.2006

@<TRIPOS>MOLECULE
ASD02030088
  59   62    0    0    0
SMALL
NO_CHARGES


@<TRIPOS>ATOM
   1 C1            -0.7369    -0.4455    -2.1653 C.ar    
   2 C2            -0.0665    -0.5690    -0.9564 C.ar    
   3 C3            -0.5796     0.0076     0.1903 C.ar    
   4 C4            -1.7691     0.7153     0.1424 C.ar    
   5 C5            -2.4547     0.8464    -1.0757 C.ar    
   6 C6            -1.9251     0.2635    -2.2336 C.ar    
   7 C7            -3.7200     1.5968    -1.1365 C.2     
   8 C8            -5.0105     0.8826    -1.0147 C.ar    
   9 C9            -6.2053     1.6032    -0.9647 C.ar    
  10 C10           -7.4067     0.9380    -0.8513 C.ar    
  11 C11           -5.0337    -0.5122    -0.9557 C.ar    
  12 O12           -3.7047     2.8032    -1.2866 O.2     
  13 F13           -2.5762     0.3832    -3.4113 F       
  14 O14           -2.2708     1.2800     1.2699 O.3     
  15 C15           -6.2353    -1.1770    -0.8423 C.ar    
  16 C16           -7.4292    -0.4561    -0.7860 C.ar    
  17 C17           -8.7199    -1.1704    -0.6642 C.2     
  18 N18           -9.8727    -0.4745    -0.6099 N.am    
  19 O19           -8.7400    -2.3845    -0.6132 O.2     
  20 C20          -11.1502    -1.1815    -0.4893 C.3     
  21 C21          -12.2935    -0.1656    -0.4487 C.3     
  22 N22          -13.5709    -0.8726    -0.3282 N.am    
  23 C23          -15.2680     1.1467    -1.1135 C.ar    
  24 C24          -15.2090     2.4763    -0.8232 C.ar    
  25 C25          -15.4715     3.4367    -1.7986 C.ar    
  26 C26          -15.7948     3.0763    -3.0713 C.ar    
  27 C27          -15.8653     1.7153    -3.4078 C.ar    
  28 C28          -15.5927     0.7383    -2.4151 C.ar    
  29 C29          -16.1936     1.2832    -4.7031 C.ar    
  30 N30          -16.2472    -0.0006    -4.9702 N.ar    
  31 C31          -16.0021    -0.9340    -4.0606 C.ar    
  32 C32          -15.6703    -0.6187    -2.7781 C.ar    
  33 S33          -14.9318    -0.0504     0.1348 S.o2    
  34 O34          -16.0002    -0.9863     0.0914 O.2     
  35 O35          -14.5827     0.6769     1.3047 O.2     
  36 O36           -0.2229    -1.0175    -3.2875 O.3     
  37 C37            1.0085    -1.7289    -3.1473 C.3     
  38 H38            0.8617    -1.1193    -0.9113 H       
  39 H39           -0.0513    -0.0944     1.1267 H       
  40 H40           -6.1879     2.6819    -1.0145 H       
  41 H41           -8.3309     1.4953    -0.8126 H       
  42 H42           -4.1099    -1.0700    -0.9992 H       
  43 H43           -1.9098     2.1555     1.4655 H       
  44 H44           -6.2533    -2.2559    -0.7969 H       
  45 H45           -9.8567     0.4945    -0.6506 H       
  46 H46          -11.2818    -1.8426    -1.3459 H       
  47 H47          -11.1545    -1.7702     0.4280 H       
  48 H48          -12.1619     0.4955     0.4079 H       
  49 H49          -12.2892     0.4231    -1.3661 H       
  50 H50          -13.6196    -1.8222    -0.5196 H       
  51 H51          -14.9553     2.7911     0.1782 H       
  52 H52          -15.4179     4.4841    -1.5406 H       
  53 H53          -15.9959     3.8319    -3.8162 H       
  54 H54          -16.4019     2.0061    -5.4779 H       
  55 H55          -16.0637    -1.9737    -4.3461 H       
  56 H56          -15.4746    -1.3949    -2.0531 H       
  57 H57            1.3062    -2.1341    -4.1145 H       
  58 H58            1.7807    -1.0507    -2.7843 H       
  59 H59            0.8779    -2.5447    -2.4363 H       
@<TRIPOS>BOND
   1    1    2 ar
   2    1   36 1
   3    1    6 ar
   4    2    3 ar
   5    2   38 1
   6    3    4 ar
   7    3   39 1
   8    4    5 ar
   9    4   14 1
  10    5    6 ar
  11    5    7 1
  12    6   13 1
  13    7    8 1
  14    7   12 2
  15    8    9 ar
  16    8   11 ar
  17    9   10 ar
  18    9   40 1
  19   10   16 ar
  20   10   41 1
  21   11   15 ar
  22   11   42 1
  23   14   43 1
  24   15   16 ar
  25   15   44 1
  26   16   17 1
  27   17   18 am
  28   17   19 2
  29   18   20 1
  30   18   45 1
  31   20   21 1
  32   20   46 1
  33   20   47 1
  34   21   22 1
  35   21   48 1
  36   21   49 1
  37   22   33 am
  38   22   50 1
  39   23   24 ar
  40   23   33 1
  41   23   28 ar
  42   24   25 ar
  43   24   51 1
  44   25   26 ar
  45   25   52 1
  46   26   27 ar
  47   26   53 1
  48   27   28 ar
  49   27   29 ar
  50   28   32 ar
  51   29   30 ar
  52   29   54 1
  53   30   31 ar
  54   31   32 ar
  55   31   55 1
  56   32   56 1
  57   33   34 2
  58   33   35 2
  59   36   37 1
  60   37   57 1
  61   37   58 1
  62   37   59 1

#	End of record

