#	Name: ASD01884169
#	Creating user name:	WinNT
#	Creation time:	15. 06. 2019 19:47

#	Modifying user name:	WinNT
#	Modification time:	15. 06. 2019 19:47

#	Program:	/corina/corina34_cracker 3.40 0067  02.08.2006

@<TRIPOS>MOLECULE
ASD01884169
  35   38    0    0    0
SMALL
NO_CHARGES


@<TRIPOS>ATOM
   1 C1            -0.0168     1.3898     0.0097 C.ar    
   2 C2             0.0021    -0.0041     0.0020 C.ar    
   3 C3            -1.1849    -0.7052     0.0096 C.ar    
   4 C4            -2.3994     0.0018     0.0250 C.ar    
   5 C5            -2.3267     1.3988     0.0318 C.ar    
   6 N6            -1.1748     2.0398     0.0298 N.ar    
   7 N7            -3.6833    -0.5074     0.0349 N.am    
   8 C8            -4.7107     0.3472     0.0497 C.2     
   9 S9            -4.0021     1.9705     0.0515 S.3     
  10 O10           -5.8949     0.0665     0.0599 O.2     
  11 C11            1.2561     2.1468     0.0016 C.ar    
  12 C12           -3.9139    -1.9541     0.0290 C.3     
  13 C13           -3.9798    -2.4660     1.4693 C.3     
  14 C14           -4.3322    -3.9400     1.6797 C.3     
  15 C15           -2.9011    -3.4540     1.9179 C.3     
  16 F16           -1.9301    -3.8202     0.9796 F       
  17 F17           -2.4593    -3.3705     3.2426 F       
  18 C18            1.2425     3.5538     0.0093 C.ar    
  19 C19            2.4488     4.2544     0.0015 C.ar    
  20 C20            3.6573     2.1779    -0.0150 C.ar    
  21 C21            2.4730     1.4700    -0.0079 C.ar    
  22 C22            3.6465     3.5653    -0.0137 C.ar    
  23 F23            4.8133     4.2463    -0.0217 F       
  24 C24           -0.0020     4.2621     0.0245 C.1     
  25 N25           -0.9892     4.8240     0.0366 N.1     
  26 H26            0.9436    -0.5330    -0.0102 H       
  27 H27           -1.1815    -1.7852     0.0034 H       
  28 H28           -4.8552    -2.1699    -0.4767 H       
  29 H29           -3.0975    -2.4501    -0.4960 H       
  30 H30           -4.3455    -1.7509     2.2061 H       
  31 H31           -4.9295    -4.1945     2.5553 H       
  32 H32           -4.5172    -4.5449     0.7921 H       
  33 H33            2.4467     5.3344     0.0069 H       
  34 H34            4.5987     1.6487    -0.0220 H       
  35 H35            2.4898     0.3901    -0.0093 H       
@<TRIPOS>BOND
   1    1    2 ar
   2    1   11 1
   3    1    6 ar
   4    2    3 ar
   5    2   26 1
   6    3    4 ar
   7    3   27 1
   8    4    5 ar
   9    4    7 1
  10    5    6 ar
  11    5    9 1
  12    7    8 am
  13    7   12 1
  14    8    9 1
  15    8   10 2
  16   11   18 ar
  17   11   21 ar
  18   12   13 1
  19   12   28 1
  20   12   29 1
  21   13   14 1
  22   13   15 1
  23   13   30 1
  24   14   15 1
  25   14   31 1
  26   14   32 1
  27   15   16 1
  28   15   17 1
  29   18   19 ar
  30   18   24 1
  31   19   22 ar
  32   19   33 1
  33   20   21 ar
  34   20   22 ar
  35   20   34 1
  36   21   35 1
  37   22   23 1
  38   24   25 3

#	End of record

