#	Name: ASD03540190
#	Creating user name:	WinNT
#	Creation time:	15. 06. 2019 20:42

#	Modifying user name:	WinNT
#	Modification time:	15. 06. 2019 20:42

#	Program:	/corina/corina34_cracker 3.40 0067  02.08.2006

@<TRIPOS>MOLECULE
ASD03540190
  73   76    0    0    0
SMALL
NO_CHARGES


@<TRIPOS>ATOM
   1 C1             0.1318     1.4705     0.1552 C.2     
   2 C2             0.1135    -0.0060     0.1100 C.ar    
   3 C3            -0.0716    -0.7412     1.2824 C.ar    
   4 C4            -0.0881    -2.1197     1.2330 C.ar    
   5 C5             0.0787    -2.7738     0.0251 C.ar    
   6 C6             0.2631    -2.0514    -1.1405 C.ar    
   7 C7             0.2755    -0.6724    -1.1063 C.ar    
   8 O8            -0.0145     2.0476     1.2140 O.2     
   9 O9             0.3161     2.1768    -0.9770 O.3     
  10 C10            0.0601    -4.2800    -0.0210 C.3     
  11 C11           -0.4862    -5.6388     1.9136 C.2     
  12 N12           -1.3201    -6.1347     2.8389 N.am    
  13 C13           -2.6598    -5.7898     2.8590 C.2     
  14 C14           -3.1458    -4.9111     1.8981 C.2     
  15 C15           -2.1856    -4.3919     0.8984 C.2     
  16 N16           -0.9005    -4.7868     0.9622 N.am    
  17 C17           -4.5112    -4.6518     2.0364 C.2     
  18 C18           -5.0949    -5.2937     3.0621 C.2     
  19 S19           -3.9141    -6.2735     3.9130 S.3     
  20 O20           -2.5524    -3.6194     0.0326 O.2     
  21 O21            0.6841    -5.9675     1.9399 O.2     
  22 C22           -0.3506    -4.7423    -1.4204 C.3     
  23 C23           -6.5120    -5.1904     3.4186 C.2     
  24 N24           -6.9941    -5.8805     4.4711 N.am    
  25 O25           -7.2540    -4.4815     2.7641 O.2     
  26 C26           -8.4113    -5.7772     4.8276 C.3     
  27 C27           -8.6906    -6.6396     6.0315 C.ar    
  28 C28           -8.5703    -6.1107     7.3022 C.ar    
  29 C29           -8.8275    -6.9050     8.4100 C.ar    
  30 C30           -9.2051    -8.2292     8.2386 C.ar    
  31 C31           -9.3239    -8.7531     6.9662 C.ar    
  32 C32           -9.0724    -7.9576     5.8633 C.ar    
  33 O33           -8.7094    -6.3873     9.6609 O.3     
  34 C34           -8.9898    -7.2632    10.7547 C.3     
  35 C35            0.3226     3.6239    -0.8575 C.3     
  36 O36            1.5782     4.0554    -0.2697 O.3     
  37 C37            2.6628     4.0268    -1.0601 C.2     
  38 O38            2.5661     3.6535    -2.2052 O.2     
  39 C39            4.0009     4.4602    -0.5192 C.3     
  40 C40            5.0601     4.3318    -1.6158 C.3     
  41 C41            3.9174     5.9169    -0.0588 C.3     
  42 C42            4.3838     3.5719     0.6662 C.3     
  43 H43           -0.2013    -0.2319     2.2259 H       
  44 H44           -0.2312    -2.6897     2.1391 H       
  45 H45            0.3934    -2.5682    -2.0798 H       
  46 H46            0.4146    -0.1096    -2.0175 H       
  47 H47            1.0538    -4.6629     0.2111 H       
  48 H48           -0.9773    -6.7480     3.5077 H       
  49 H49           -5.0519    -3.9911     1.3750 H       
  50 H50           -0.3641    -5.8317    -1.4538 H       
  51 H51           -1.3444    -4.3594    -1.6526 H       
  52 H52            0.3641    -4.3652    -2.1520 H       
  53 H53           -6.4027    -6.4455     4.9926 H       
  54 H54           -8.6529    -4.7400     5.0597 H       
  55 H55           -9.0221    -6.1139     3.9899 H       
  56 H56           -8.2759    -5.0799     7.4330 H       
  57 H57           -9.4055    -8.8497     9.0995 H       
  58 H58           -9.6175    -9.7838     6.8323 H       
  59 H59           -9.1705    -8.3677     4.8691 H       
  60 H60          -10.0174    -7.6192    10.6808 H       
  61 H61           -8.3078    -8.1129    10.7238 H       
  62 H62           -8.8581    -6.7256    11.6937 H       
  63 H63            0.2115     4.0705    -1.8456 H       
  64 H64           -0.5041     3.9396    -0.2211 H       
  65 H65            4.7873     4.9647    -2.4603 H       
  66 H66            6.0280     4.6453    -1.2246 H       
  67 H67            5.1196     3.2940    -1.9438 H       
  68 H68            3.1628     6.0083     0.7224 H       
  69 H69            4.8852     6.2304     0.3324 H       
  70 H70            3.6446     6.5497    -0.9033 H       
  71 H71            4.4434     2.5341     0.3382 H       
  72 H72            5.3517     3.8853     1.0574 H       
  73 H73            3.6293     3.6633     1.4475 H       
@<TRIPOS>BOND
   1    1    2 1
   2    1    8 2
   3    1    9 1
   4    2    3 ar
   5    2    7 ar
   6    3    4 ar
   7    3   43 1
   8    4    5 ar
   9    4   44 1
  10    5    6 ar
  11    5   10 1
  12    6    7 ar
  13    6   45 1
  14    7   46 1
  15    9   35 1
  16   10   16 1
  17   10   22 1
  18   10   47 1
  19   11   12 am
  20   11   16 am
  21   11   21 2
  22   12   13 1
  23   12   48 1
  24   13   14 2
  25   13   19 1
  26   14   15 1
  27   14   17 1
  28   15   16 am
  29   15   20 2
  30   17   18 2
  31   17   49 1
  32   18   19 1
  33   18   23 1
  34   22   50 1
  35   22   51 1
  36   22   52 1
  37   23   24 am
  38   23   25 2
  39   24   26 1
  40   24   53 1
  41   26   27 1
  42   26   54 1
  43   26   55 1
  44   27   28 ar
  45   27   32 ar
  46   28   29 ar
  47   28   56 1
  48   29   30 ar
  49   29   33 1
  50   30   31 ar
  51   30   57 1
  52   31   32 ar
  53   31   58 1
  54   32   59 1
  55   33   34 1
  56   34   60 1
  57   34   61 1
  58   34   62 1
  59   35   36 1
  60   35   63 1
  61   35   64 1
  62   36   37 1
  63   37   38 2
  64   37   39 1
  65   39   40 1
  66   39   41 1
  67   39   42 1
  68   40   65 1
  69   40   66 1
  70   40   67 1
  71   41   68 1
  72   41   69 1
  73   41   70 1
  74   42   71 1
  75   42   72 1
  76   42   73 1

#	End of record

