#	Name: ASD04590032
#	Creating user name:	WinNT
#	Creation time:	15. 06. 2019 20:50

#	Modifying user name:	WinNT
#	Modification time:	15. 06. 2019 20:50

#	Program:	/corina/corina34_cracker 3.40 0067  02.08.2006

@<TRIPOS>MOLECULE
ASD04590032
  39   41    0    0    0
SMALL
NO_CHARGES


@<TRIPOS>ATOM
   1 N1            -0.0768     1.2682    -0.0495 N.pl3   
   2 N2            -0.0362    -0.0145     0.0019 N.2     
   3 C3             1.1929    -0.4417    -0.2149 C.2     
   4 C4             2.0014     0.7057    -0.4235 C.2     
   5 C5             1.1590     1.7667    -0.3103 C.2     
   6 C6             1.6420    -1.8463    -0.2361 C.2     
   7 O7             2.8104    -2.1080    -0.4485 O.2     
   8 N8             0.7574    -2.8400    -0.0200 N.am    
   9 C9             1.1621    -4.1747    -0.1363 C.ar    
  10 C10            2.4401    -4.5505     0.2561 C.ar    
  11 C11            2.8374    -5.8682     0.1404 C.ar    
  12 C12            1.9624    -6.8143    -0.3663 C.ar    
  13 C13            0.6876    -6.4417    -0.7582 C.ar    
  14 C14            0.2843    -5.1262    -0.6389 C.ar    
  15 F15            2.3532    -8.1026    -0.4790 F       
  16 N16            3.3789     0.7382    -0.6902 N.am    
  17 C17            4.0037     1.9195    -0.8650 C.2     
  18 O18            3.3755     2.9546    -0.7918 O.2     
  19 C19            5.4828     1.9544    -1.1513 C.3     
  20 C20            5.9382     3.4069    -1.3060 C.3     
  21 N21            9.5034     3.1221    -1.4098 N.2     
  22 N22            8.3580     2.8962    -0.8706 N.2     
  23 C23            7.4173     3.4418    -1.5923 C.2     
  24 N24            8.0171     4.0451    -2.6469 N.pl3   
  25 C25            9.3455     3.8222    -2.4999 C.2     
  26 H26           -0.8759     1.8036     0.0759 H       
  27 H27            1.4228     2.8093    -0.4098 H       
  28 H28           -0.1597    -2.6300     0.2161 H       
  29 H29            3.1229    -3.8129     0.6510 H       
  30 H30            3.8313    -6.1608     0.4452 H       
  31 H31            0.0069    -7.1811    -1.1535 H       
  32 H32           -0.7116    -4.8368    -0.9405 H       
  33 H33            3.8812    -0.0895    -0.7487 H       
  34 H34            6.0236     1.4900    -0.3267 H       
  35 H35            5.6875     1.4094    -2.0728 H       
  36 H36            5.3974     3.8713    -2.1306 H       
  37 H37            5.7335     3.9519    -0.3845 H       
  38 H38            7.5835     4.5367    -3.3619 H       
  39 H39           10.1285     4.1616    -3.1618 H       
@<TRIPOS>BOND
   1    1    2 1
   2    1    5 1
   3    1   26 1
   4    2    3 2
   5    3    4 1
   6    3    6 1
   7    4    5 2
   8    4   16 1
   9    5   27 1
  10    6    7 2
  11    6    8 am
  12    8    9 1
  13    8   28 1
  14    9   10 ar
  15    9   14 ar
  16   10   11 ar
  17   10   29 1
  18   11   12 ar
  19   11   30 1
  20   12   13 ar
  21   12   15 1
  22   13   14 ar
  23   13   31 1
  24   14   32 1
  25   16   17 am
  26   16   33 1
  27   17   18 2
  28   17   19 1
  29   19   20 1
  30   19   34 1
  31   19   35 1
  32   20   23 1
  33   20   36 1
  34   20   37 1
  35   21   22 1
  36   21   25 2
  37   22   23 2
  38   23   24 1
  39   24   25 1
  40   24   38 1
  41   25   39 1

#	End of record

