#	Name: ASD02039405
#	Creating user name:	WinNT
#	Creation time:	15. 06. 2019 20:18

#	Modifying user name:	WinNT
#	Modification time:	15. 06. 2019 20:18

#	Program:	/corina/corina34_cracker 3.40 0067  02.08.2006

@<TRIPOS>MOLECULE
ASD02039405
  44   46    0    0    0
SMALL
NO_CHARGES


@<TRIPOS>ATOM
   1 C1            -0.1211     1.5199    -0.1799 C.ar    
   2 C2            -0.1103     0.1412    -0.0703 C.ar    
   3 C3             1.1697     2.2916    -0.0825 C.3     
   4 N4             1.8259     2.3129    -1.3922 N.am    
   5 C5             1.4076     3.2850    -2.4053 C.3     
   6 C6             2.8143     1.4383    -1.6650 C.2     
   7 C7             3.1764     0.4050    -0.6794 C.2     
   8 C8             4.1877    -0.5030    -0.7975 C.2     
   9 N9             2.5683     0.1867     0.5146 N.2     
  10 C10            3.1598    -0.8066     1.1129 C.2     
  11 N11            4.1703    -1.2588     0.3255 N.pl3   
  12 O12            3.4073     1.5021    -2.7250 O.2     
  13 C13            2.5642     4.2414    -2.7027 C.3     
  14 C14            1.0127     2.5482    -3.6868 C.3     
  15 C15           -1.2906    -0.5744    -0.1585 C.ar    
  16 C16           -2.4884     0.0862    -0.3574 C.ar    
  17 C17           -2.5039     1.4774    -0.4686 C.ar    
  18 C18           -1.3103     2.1905    -0.3839 C.ar    
  19 C19           -3.7857     2.1933    -0.6823 C.ar    
  20 C20           -4.6654     1.7885    -1.6912 C.ar    
  21 C21           -4.1339     3.2749     0.1224 C.ar    
  22 N22           -5.2721     3.9124    -0.0650 N.ar    
  23 C23           -6.1211     3.5573    -1.0121 C.ar    
  24 C24           -5.8479     2.4874    -1.8506 C.ar    
  25 F25           -3.6411    -0.6130    -0.4445 F       
  26 F26           -7.2750     4.2436    -1.1631 F       
  27 H27            0.8235    -0.3787     0.0845 H       
  28 H28            0.9594     3.3128     0.2351 H       
  29 H29            1.8254     1.8126     0.6446 H       
  30 H30            0.5537     3.8518    -2.0343 H       
  31 H31            4.8711    -0.6005    -1.6281 H       
  32 H32            2.8923    -1.2050     2.0804 H       
  33 H33            4.7711    -1.9921     0.5309 H       
  34 H34            3.3854     3.6879    -3.1582 H       
  35 H35            2.2259     5.0188    -3.3877 H       
  36 H36            2.9054     4.6988    -1.7740 H       
  37 H37            0.2546     1.7997    -3.4566 H       
  38 H38            0.6122     3.2614    -4.4072 H       
  39 H39            1.8901     2.0586    -4.1094 H       
  40 H40           -1.2763    -1.6508    -0.0722 H       
  41 H41           -1.3164     3.2671    -0.4689 H       
  42 H42           -4.4269     0.9511    -2.3302 H       
  43 H43           -3.4650     3.5944     0.9079 H       
  44 H44           -6.5491     2.2053    -2.6220 H       
@<TRIPOS>BOND
   1    1    2 ar
   2    1    3 1
   3    1   18 ar
   4    2   15 ar
   5    2   27 1
   6    3    4 1
   7    3   28 1
   8    3   29 1
   9    4    5 1
  10    4    6 am
  11    5   13 1
  12    5   14 1
  13    5   30 1
  14    6    7 1
  15    6   12 2
  16    7    8 2
  17    7    9 1
  18    8   11 1
  19    8   31 1
  20    9   10 2
  21   10   11 1
  22   10   32 1
  23   11   33 1
  24   13   34 1
  25   13   35 1
  26   13   36 1
  27   14   37 1
  28   14   38 1
  29   14   39 1
  30   15   16 ar
  31   15   40 1
  32   16   17 ar
  33   16   25 1
  34   17   18 ar
  35   17   19 1
  36   18   41 1
  37   19   20 ar
  38   19   21 ar
  39   20   24 ar
  40   20   42 1
  41   21   22 ar
  42   21   43 1
  43   22   23 ar
  44   23   24 ar
  45   23   26 1
  46   24   44 1

#	End of record

