#	Name: ASD01883206
#	Creating user name:	WinNT
#	Creation time:	15. 06. 2019 19:46

#	Modifying user name:	WinNT
#	Modification time:	15. 06. 2019 19:46

#	Program:	/corina/corina34_cracker 3.40 0067  02.08.2006

@<TRIPOS>MOLECULE
ASD01883206
  52   54    0    0    0
SMALL
NO_CHARGES


@<TRIPOS>ATOM
   1 N1            -0.0162     1.3417     0.0094 N.am    
   2 C2             0.0021    -0.0041     0.0020 C.2     
   3 C3            -1.2164    -0.7275     0.0102 C.2     
   4 C4            -2.4261    -0.0114     0.0261 C.2     
   5 C5            -2.3787     1.3964     0.0332 C.2     
   6 C6            -1.1849     2.0323     0.0299 C.2     
   7 O7             1.0656    -0.6000    -0.0121 O.2     
   8 C8            -1.2155    -2.1595     0.0021 C.1     
   9 N9            -1.2149    -3.2955    -0.0044 N.1     
  10 C10            1.2512     2.0764     0.0013 C.3     
  11 C11            1.6787     2.3400    -1.4440 C.3     
  12 C12           -3.7222    -0.7218     0.0347 C.ar    
  13 C13           -4.5702    -0.6157     1.1400 C.ar    
  14 C14           -5.7773    -1.2772     1.1467 C.ar    
  15 C15           -6.1539    -2.0539     0.0506 C.ar    
  16 C16           -5.3078    -2.1605    -1.0537 C.ar    
  17 C17           -4.1028    -1.4951    -1.0649 C.ar    
  18 C18           -7.4538    -2.7668     0.0594 C.ar    
  19 C19            3.0023     3.1073    -1.4525 C.3     
  20 C20            3.4928     3.2620    -2.8935 C.3     
  21 C21            2.7937     4.4908    -0.8334 C.3     
  22 C22           -7.8323    -3.5431    -1.0340 C.ar    
  23 C23           -9.0477    -4.2066    -1.0199 C.ar    
  24 C24           -9.8860    -4.0974     0.0820 C.ar    
  25 C25           -9.5108    -3.3263     1.1677 C.ar    
  26 C26           -8.2986    -2.6669     1.1644 C.ar    
  27 Br27         -11.5451    -5.0046     0.0982 Br      
  28 O28           -9.4206    -4.9645    -2.0849 O.3     
  29 C29           -8.5098    -5.0316    -3.1840 C.3     
  30 H30           -3.2951     1.9678     0.0453 H       
  31 H31           -1.1610     3.1120     0.0358 H       
  32 H32            1.1242     3.0258     0.5214 H       
  33 H33            2.0168     1.4860     0.5046 H       
  34 H34            1.8057     1.3906    -1.9642 H       
  35 H35            0.9131     2.9304    -1.9474 H       
  36 H36           -4.2786    -0.0151     1.9889 H       
  37 H37           -6.4330    -1.1953     2.0010 H       
  38 H38           -5.6001    -2.7623    -1.9015 H       
  39 H39           -3.4480    -1.5778    -1.9197 H       
  40 H40            3.7444     2.5581    -0.8731 H       
  41 H41            2.7507     3.8113    -3.4729 H       
  42 H42            4.4358     3.8087    -2.8995 H       
  43 H43            3.6414     2.2764    -3.3345 H       
  44 H44            2.4443     4.3806     0.1931 H       
  45 H45            3.7367     5.0375    -0.8395 H       
  46 H46            2.0516     5.0400    -1.4129 H       
  47 H47           -7.1796    -3.6269    -1.8904 H       
  48 H48          -10.1664    -3.2439     2.0220 H       
  49 H49           -8.0083    -2.0660     2.0135 H       
  50 H50           -8.9283    -5.6672    -3.9644 H       
  51 H51           -8.3448    -4.0300    -3.5808 H       
  52 H52           -7.5616    -5.4490    -2.8451 H       
@<TRIPOS>BOND
   1    1    2 am
   2    1   10 1
   3    1    6 1
   4    2    3 1
   5    2    7 2
   6    3    4 2
   7    3    8 1
   8    4    5 1
   9    4   12 1
  10    5    6 2
  11    5   30 1
  12    6   31 1
  13    8    9 3
  14   10   11 1
  15   10   32 1
  16   10   33 1
  17   11   19 1
  18   11   34 1
  19   11   35 1
  20   12   13 ar
  21   12   17 ar
  22   13   14 ar
  23   13   36 1
  24   14   15 ar
  25   14   37 1
  26   15   16 ar
  27   15   18 1
  28   16   17 ar
  29   16   38 1
  30   17   39 1
  31   18   22 ar
  32   18   26 ar
  33   19   20 1
  34   19   21 1
  35   19   40 1
  36   20   41 1
  37   20   42 1
  38   20   43 1
  39   21   44 1
  40   21   45 1
  41   21   46 1
  42   22   23 ar
  43   22   47 1
  44   23   24 ar
  45   23   28 1
  46   24   25 ar
  47   24   27 1
  48   25   26 ar
  49   25   48 1
  50   26   49 1
  51   28   29 1
  52   29   50 1
  53   29   51 1
  54   29   52 1

#	End of record

