#	Name: ASD01900158
#	Creating user name:	WinNT
#	Creation time:	15. 06. 2019 19:51

#	Modifying user name:	WinNT
#	Modification time:	15. 06. 2019 19:51

#	Program:	/corina/corina34_cracker 3.40 0067  02.08.2006

@<TRIPOS>MOLECULE
ASD01900158
  38   39    0    0    0
SMALL
NO_CHARGES


@<TRIPOS>ATOM
   1 C1             0.0375     1.3063     0.1254 C.ar    
   2 C2            -1.1258     1.6659    -0.5358 C.ar    
   3 C3            -1.1585     2.8478    -1.2597 C.ar    
   4 C4            -0.0170     3.6327    -1.2957 C.ar    
   5 C5             1.1176     3.2091    -0.6069 C.ar    
   6 N6             1.1071     2.0701     0.0746 N.ar    
   7 C7             2.3460     4.0364    -0.6357 C.2     
   8 N8             3.4467     3.6318     0.0286 N.am    
   9 O9             2.3613     5.0799    -1.2585 O.2     
  10 C10            4.6364     4.3614    -0.0786 C.ar    
  11 C11            4.5955     5.7462    -0.1739 C.ar    
  12 C12            5.7699     6.4660    -0.2792 C.ar    
  13 C13            6.9916     5.8039    -0.2896 C.ar    
  14 C14            7.0316     4.4192    -0.1942 C.ar    
  15 C15            5.8583     3.7005    -0.0837 C.ar    
  16 N16            8.1831     6.5335    -0.3968 N.am    
  17 C17            9.3135     5.9221    -0.8027 C.2     
  18 O18            9.2797     4.7667    -1.1702 O.2     
  19 Cl19           5.7195     8.1972    -0.3990 Cl      
  20 C20           10.6195     6.6740    -0.7999 C.3     
  21 C21           10.9394     7.1353     0.6234 C.3     
  22 C22           11.7368     5.7572    -1.3021 C.3     
  23 H23            0.0650     0.3885     0.6939 H       
  24 H24           -1.9984     1.0314    -0.4880 H       
  25 H25           -2.0531     3.1497    -1.7839 H       
  26 H26           -0.0069     4.5595    -1.8501 H       
  27 H27            3.4144     2.8351     0.5809 H       
  28 H28            3.6457     6.2603    -0.1661 H       
  29 H29            7.9811     3.9047    -0.2027 H       
  30 H30            5.8898     2.6235    -0.0095 H       
  31 H31            8.1943     7.4787    -0.1789 H       
  32 H32           10.5403     7.5422    -1.4541 H       
  33 H33           11.8841     7.6791     0.6254 H       
  34 H34           10.1434     7.7883     0.9812 H       
  35 H35           11.0186     6.2670     1.2776 H       
  36 H36           11.5089     5.4286    -2.3161 H       
  37 H37           12.6815     6.3011    -1.3001 H       
  38 H38           11.8160     4.8890    -0.6479 H       
@<TRIPOS>BOND
   1    1    2 ar
   2    1    6 ar
   3    1   23 1
   4    2    3 ar
   5    2   24 1
   6    3    4 ar
   7    3   25 1
   8    4    5 ar
   9    4   26 1
  10    5    6 ar
  11    5    7 1
  12    7    8 am
  13    7    9 2
  14    8   10 1
  15    8   27 1
  16   10   11 ar
  17   10   15 ar
  18   11   12 ar
  19   11   28 1
  20   12   13 ar
  21   12   19 1
  22   13   14 ar
  23   13   16 1
  24   14   15 ar
  25   14   29 1
  26   15   30 1
  27   16   17 am
  28   16   31 1
  29   17   18 2
  30   17   20 1
  31   20   21 1
  32   20   22 1
  33   20   32 1
  34   21   33 1
  35   21   34 1
  36   21   35 1
  37   22   36 1
  38   22   37 1
  39   22   38 1

#	End of record

