#	Name: ASD01916360
#	Creating user name:	WinNT
#	Creation time:	15. 06. 2019 20:07

#	Modifying user name:	WinNT
#	Modification time:	15. 06. 2019 20:07

#	Program:	/corina/corina34_cracker 3.40 0067  02.08.2006

@<TRIPOS>MOLECULE
ASD01916360
  35   37    0    0    0
SMALL
NO_CHARGES


@<TRIPOS>ATOM
   1 C1            -0.0109     1.5115    -0.0141 C.3     
   2 C2             0.0190    -0.0225    -0.0275 C.3     
   3 C3             0.6644    -0.5306     1.2596 C.3     
   4 C4             2.0201     0.0835     1.4657 C.ar    
   5 C5             2.3782     1.2916     0.8569 C.ar    
   6 C6             1.4259     1.9940    -0.0146 C.2     
   7 N7             2.9062    -0.5204     2.2385 N.ar    
   8 C8             4.1077     0.0065     2.4355 C.ar    
   9 N9             4.4803     1.1512     1.8765 N.ar    
  10 C10            3.6557     1.8180     1.0896 C.ar    
  11 N11            5.0011    -0.6585     3.2502 N.pl3   
  12 O12            1.7767     2.9249    -0.7086 O.2     
  13 C13           -1.4101    -0.5595    -0.1279 C.3     
  14 C14            6.3071    -0.1897     3.3811 C.ar    
  15 C15            6.9683    -0.3085     4.5997 C.ar    
  16 C16            8.2584     0.1535     4.7325 C.ar    
  17 C17            8.9040     0.7425     3.6414 C.ar    
  18 C18            8.2366     0.8602     2.4187 C.ar    
  19 C19            6.9486     0.3909     2.2914 C.ar    
  20 C20           10.2456     1.2245     3.7760 C.1     
  21 N21           11.3100     1.6070     3.8829 N.1     
  22 H22           -0.5255     1.8796    -0.9017 H       
  23 H23           -0.5197     1.8642     0.8830 H       
  24 H24            0.5975    -0.3671    -0.8846 H       
  25 H25            0.0247    -0.2765     2.1047 H       
  26 H26            0.7677    -1.6143     1.2039 H       
  27 H27            3.9596     2.7492     0.6349 H       
  28 H28            4.7201    -1.4522     3.7318 H       
  29 H29           -1.8708    -0.1970    -1.0468 H       
  30 H30           -1.3890    -1.6492    -0.1374 H       
  31 H31           -1.9888    -0.2148     0.7291 H       
  32 H32            6.4688    -0.7633     5.4423 H       
  33 H33            8.7709     0.0613     5.6787 H       
  34 H34            8.7325     1.3147     1.5737 H       
  35 H35            6.4326     0.4812     1.3470 H       
@<TRIPOS>BOND
   1    1    2 1
   2    1    6 1
   3    1   22 1
   4    1   23 1
   5    2    3 1
   6    2   13 1
   7    2   24 1
   8    3    4 1
   9    3   25 1
  10    3   26 1
  11    4    5 ar
  12    4    7 ar
  13    5    6 1
  14    5   10 ar
  15    6   12 2
  16    7    8 ar
  17    8    9 ar
  18    8   11 1
  19    9   10 ar
  20   10   27 1
  21   11   14 1
  22   11   28 1
  23   13   29 1
  24   13   30 1
  25   13   31 1
  26   14   15 ar
  27   14   19 ar
  28   15   16 ar
  29   15   32 1
  30   16   17 ar
  31   16   33 1
  32   17   18 ar
  33   17   20 1
  34   18   19 ar
  35   18   34 1
  36   19   35 1
  37   20   21 3

#	End of record

