#	Name: ASD02198054
#	Creating user name:	WinNT
#	Creation time:	15. 06. 2019 20:18

#	Modifying user name:	WinNT
#	Modification time:	15. 06. 2019 20:18

#	Program:	/corina/corina34_cracker 3.40 0067  02.08.2006

@<TRIPOS>MOLECULE
ASD02198054
  50   53    0    0    0
SMALL
NO_CHARGES


@<TRIPOS>ATOM
   1 C1            -0.0089     1.3805     0.1731 C.2     
   2 C2             0.0027     0.0070     0.0599 C.2     
   3 C3            -1.1906    -0.7839     0.0272 C.1     
   4 S4             1.5785     2.0026     0.1802 S.3     
   5 C5             2.2781     0.3988     0.0290 C.2     
   6 C6             1.2818    -0.5427    -0.0208 C.2     
   7 C7             3.6607     0.1200    -0.0318 C.2     
   8 C8             4.6296     1.2223    -0.1452 C.2     
   9 O9             4.0526    -1.0349     0.0096 O.2     
  10 N10            1.5223    -1.9044    -0.1384 N.pl3   
  11 N11           -1.1483     2.1469     0.2624 N.pl3   
  12 N12           -2.1372    -1.4114     0.0012 N.1     
  13 C13           -1.0440     3.6035     0.3797 C.3     
  14 C14           -2.4462     4.2103     0.4619 C.3     
  15 N15           -2.3415     5.6708     0.5796 N.3     
  16 C16           -3.6559     6.3068     0.4233 C.3     
  17 C17           -1.3734     6.2085    -0.3847 C.3     
  18 C18           -1.1827     7.7065    -0.1368 C.3     
  19 C19           -2.5296     8.4192    -0.2862 C.3     
  20 C20           -3.5333     7.8078     0.6953 C.3     
  21 C21            4.2659     2.4955    -0.3355 C.2     
  22 S22            5.6039     3.5408    -0.4256 S.3     
  23 C23            6.7570     2.2333    -0.1988 C.ar    
  24 C24            6.0763     1.0245    -0.0538 C.ar    
  25 C25            8.1541     2.2525    -0.1455 C.ar    
  26 C26            8.8572     1.0861     0.0432 C.ar    
  27 C27            8.1850    -0.1199     0.1824 C.ar    
  28 C28            6.8134    -0.1583     0.1401 C.ar    
  29 H29            2.4334    -2.2333    -0.1900 H       
  30 H30            0.7794    -2.5273    -0.1691 H       
  31 H31           -2.0206     1.7228     0.2476 H       
  32 H32           -0.4853     3.8563     1.2808 H       
  33 H33           -0.5262     4.0021    -0.4927 H       
  34 H34           -3.0049     3.9574    -0.4392 H       
  35 H35           -2.9640     3.8116     1.3343 H       
  36 H36           -4.0165     6.1502    -0.5933 H       
  37 H37           -4.3590     5.8659     1.1299 H       
  38 H38           -0.4188     5.6961    -0.2651 H       
  39 H39           -1.7447     6.0523    -1.3976 H       
  40 H40           -0.7983     7.8625     0.8711 H       
  41 H41           -0.4758     8.1084    -0.8627 H       
  42 H42           -2.4067     9.4800    -0.0680 H       
  43 H43           -2.8958     8.2961    -1.3055 H       
  44 H44           -4.5058     8.2821     0.5640 H       
  45 H45           -3.1859     7.9654     1.7164 H       
  46 H46            3.2401     2.8220    -0.4219 H       
  47 H47            8.6834     3.1877    -0.2535 H       
  48 H48            9.9363     1.1085     0.0830 H       
  49 H49            8.7437    -1.0324     0.3300 H       
  50 H50            6.2982    -1.1012     0.2496 H       
@<TRIPOS>BOND
   1    1    2 2
   2    1    4 1
   3    1   11 1
   4    2    3 1
   5    2    6 1
   6    3   12 3
   7    4    5 1
   8    5    6 2
   9    5    7 1
  10    6   10 1
  11    7    8 1
  12    7    9 2
  13    8   21 2
  14    8   24 1
  15   10   29 1
  16   10   30 1
  17   11   13 1
  18   11   31 1
  19   13   14 1
  20   13   32 1
  21   13   33 1
  22   14   15 1
  23   14   34 1
  24   14   35 1
  25   15   16 1
  26   15   17 1
  27   16   20 1
  28   16   36 1
  29   16   37 1
  30   17   18 1
  31   17   38 1
  32   17   39 1
  33   18   19 1
  34   18   40 1
  35   18   41 1
  36   19   20 1
  37   19   42 1
  38   19   43 1
  39   20   44 1
  40   20   45 1
  41   21   22 1
  42   21   46 1
  43   22   23 1
  44   23   24 ar
  45   23   25 ar
  46   24   28 ar
  47   25   26 ar
  48   25   47 1
  49   26   27 ar
  50   26   48 1
  51   27   28 ar
  52   27   49 1
  53   28   50 1

#	End of record

