#	Name: ASD01814272
#	Creating user name:	WinNT
#	Creation time:	15. 06. 2019 19:32

#	Modifying user name:	WinNT
#	Modification time:	15. 06. 2019 19:32

#	Program:	/corina/corina34_cracker 3.40 0067  02.08.2006

@<TRIPOS>MOLECULE
ASD01814272
  50   54    0    0    0
SMALL
NO_CHARGES


@<TRIPOS>ATOM
   1 C1            -0.0154     1.3855     0.0750 C.ar    
   2 C2             0.0023    -0.0043     0.0154 C.ar    
   3 C3             1.1792    -0.6887    -0.0523 C.ar    
   4 C4             2.3938     0.0139    -0.0630 C.ar    
   5 C5             2.3719     1.4287    -0.0027 C.ar    
   6 C6             1.1469     2.1000     0.0666 C.ar    
   7 C7             3.6272    -0.6672    -0.1329 C.ar    
   8 C8             4.8010     0.0084    -0.1438 C.ar    
   9 C9             4.8351     1.4106    -0.0860 C.ar    
  10 C10            3.6407     2.1510    -0.0143 C.ar    
  11 C11            6.1016     2.1530    -0.0977 C.2     
  12 N12            6.0337     3.5033    -0.0390 N.am    
  13 C13            4.8306     4.1305     0.0282 C.2     
  14 N14            3.6968     3.4922     0.0392 N.2     
  15 C15            3.6390    -2.1728    -0.1961 C.3     
  16 C16            3.4716    -2.6169    -1.6264 C.ar    
  17 C17            4.5842    -2.8049    -2.4255 C.ar    
  18 C18            4.4334    -3.2119    -3.7369 C.ar    
  19 C19            3.1642    -3.4320    -4.2521 C.ar    
  20 C20            2.0494    -3.2426    -3.4483 C.ar    
  21 C21            2.2059    -2.8410    -2.1358 C.ar    
  22 O22            7.1723     1.5757    -0.1575 O.2     
  23 C23            7.2125     4.2596    -0.0472 C.ar    
  24 C24            7.5130     5.0679    -1.1356 C.ar    
  25 C25            8.6760     5.8129    -1.1405 C.ar    
  26 C26            9.5407     5.7545    -0.0629 C.ar    
  27 C27            9.2445     4.9502     1.0222 C.ar    
  28 C28            8.0803     4.2072     1.0356 C.ar    
  29 O29            3.0132    -3.8320    -5.5421 O.3     
  30 C30            1.6772    -4.0395    -6.0048 C.3     
  31 H31           -0.9608     1.9053     0.1240 H       
  32 H32           -0.9302    -0.5490     0.0234 H       
  33 H33            1.1768    -1.7678    -0.0973 H       
  34 H34            1.1211     3.1787     0.1128 H       
  35 H35            5.7285    -0.5421    -0.1977 H       
  36 H36            4.8144     5.2094     0.0745 H       
  37 H37            4.5873    -2.5453     0.1913 H       
  38 H38            2.8203    -2.5681     0.4052 H       
  39 H39            5.5720    -2.6330    -2.0240 H       
  40 H40            5.3028    -3.3583    -4.3608 H       
  41 H41            1.0603    -3.4133    -3.8471 H       
  42 H42            1.3384    -2.6938    -1.5096 H       
  43 H43            6.8382     5.1137    -1.9776 H       
  44 H44            8.9105     6.4414    -1.9868 H       
  45 H45           10.4495     6.3379    -0.0691 H       
  46 H46            9.9220     4.9064     1.8622 H       
  47 H47            7.8495     3.5792     1.8834 H       
  48 H48            1.1993    -4.8110    -5.4011 H       
  49 H49            1.1144    -3.1101    -5.9186 H       
  50 H50            1.6989    -4.3557    -7.0477 H       
@<TRIPOS>BOND
   1    1    2 ar
   2    1    6 ar
   3    1   31 1
   4    2    3 ar
   5    2   32 1
   6    3    4 ar
   7    3   33 1
   8    4    5 ar
   9    4    7 ar
  10    5    6 ar
  11    5   10 ar
  12    6   34 1
  13    7    8 ar
  14    7   15 1
  15    8    9 ar
  16    8   35 1
  17    9   10 ar
  18    9   11 1
  19   10   14 1
  20   11   12 am
  21   11   22 2
  22   12   13 1
  23   12   23 1
  24   13   14 2
  25   13   36 1
  26   15   16 1
  27   15   37 1
  28   15   38 1
  29   16   17 ar
  30   16   21 ar
  31   17   18 ar
  32   17   39 1
  33   18   19 ar
  34   18   40 1
  35   19   20 ar
  36   19   29 1
  37   20   21 ar
  38   20   41 1
  39   21   42 1
  40   23   24 ar
  41   23   28 ar
  42   24   25 ar
  43   24   43 1
  44   25   26 ar
  45   25   44 1
  46   26   27 ar
  47   26   45 1
  48   27   28 ar
  49   27   46 1
  50   28   47 1
  51   29   30 1
  52   30   48 1
  53   30   49 1
  54   30   50 1

#	End of record

