#	Name: ASD05143323
#	Creating user name:	WinNT
#	Creation time:	15. 06. 2019 20:57

#	Modifying user name:	WinNT
#	Modification time:	15. 06. 2019 20:57

#	Program:	/corina/corina34_cracker 3.40 0067  02.08.2006

@<TRIPOS>MOLECULE
ASD05143323
  53   55    0    0    0
SMALL
NO_CHARGES


@<TRIPOS>ATOM
   1 C1            -0.1110     1.2864     1.1151 C.2     
   2 N2            -0.0937    -0.0316     1.1438 N.2     
   3 S3            -1.5892    -0.5255     0.5060 S.3     
   4 C4            -2.1635     1.0750     0.2322 C.2     
   5 N5            -1.1974     1.8667     0.6428 N.2     
   6 N6            -3.3834     1.4481    -0.3010 N.pl3   
   7 C7            -3.7690     2.7940    -0.2923 C.ar    
   8 C8            -5.1160     3.1310    -0.3158 C.ar    
   9 C9            -5.4954     4.4587    -0.3073 C.ar    
  10 C10           -4.5315     5.4557    -0.2756 C.ar    
  11 C11           -3.1858     5.1200    -0.2521 C.ar    
  12 C12           -2.8047     3.7927    -0.2543 C.ar    
  13 C13            0.9212    -0.8371     1.5946 C.ar    
  14 C14            2.2256    -0.6404     1.1420 C.ar    
  15 C15            0.6536    -1.8574     2.5159 C.ar    
  16 C16            1.6841    -2.6650     2.9649 C.ar    
  17 C17            2.9732    -2.4645     2.5049 C.ar    
  18 C18            3.2427    -1.4541     1.5992 C.ar    
  19 C19            1.0396     2.0828     1.5991 C.ar    
  20 C20            1.5304     3.1465     0.8332 C.ar    
  21 C21            1.6356     1.7805     2.8223 C.ar    
  22 C22            2.7075     2.5264     3.2688 C.ar    
  23 C23            3.1932     3.5743     2.5069 C.ar    
  24 C24            2.6069     3.8862     1.2944 C.ar    
  25 O25           -0.6131    -2.0535     2.9678 O.3     
  26 C26           -0.8104    -3.1129     3.9062 C.3     
  27 O27            0.9535     3.4521    -0.3580 O.3     
  28 C28            1.6042     4.4403    -1.1594 C.3     
  29 O29           -4.9060     6.7630    -0.2681 O.3     
  30 C30           -3.8609     7.7370    -0.2350 C.3     
  31 H31           -3.9721     0.7774    -0.6811 H       
  32 H32           -5.8666     2.3548    -0.3412 H       
  33 H33           -6.5429     4.7210    -0.3256 H       
  34 H34           -2.4359     5.8969    -0.2278 H       
  35 H35           -1.7570     3.5315    -0.2356 H       
  36 H36            2.4397     0.1471     0.4347 H       
  37 H37            1.4815    -3.4525     3.6757 H       
  38 H38            3.7742    -3.0969     2.8583 H       
  39 H39            4.2519    -1.3043     1.2450 H       
  40 H40            1.2588     0.9638     3.4202 H       
  41 H41            3.1688     2.2916     4.2167 H       
  42 H42            4.0321     4.1539     2.8629 H       
  43 H43            2.9908     4.7054     0.7045 H       
  44 H44           -0.2077    -2.9277     4.7953 H       
  45 H45           -1.8632    -3.1605     4.1844 H       
  46 H46           -0.5108    -4.0587     3.4548 H       
  47 H47            1.5873     5.3982    -0.6397 H       
  48 H48            2.6372     4.1414    -1.3370 H       
  49 H49            1.0842     4.5349    -2.1127 H       
  50 H50           -3.2633     7.5984     0.6660 H       
  51 H51           -3.2264     7.6192    -1.1135 H       
  52 H52           -4.2957     8.7365    -0.2324 H       
  53 Br53           9.2519    13.7365     9.7953 Br      
@<TRIPOS>BOND
   1    1    2 2
   2    1   19 1
   3    1    5 1
   4    2    3 1
   5    2   13 1
   6    3    4 1
   7    4    5 2
   8    4    6 1
   9    6    7 1
  10    6   31 1
  11    7    8 ar
  12    7   12 ar
  13    8    9 ar
  14    8   32 1
  15    9   10 ar
  16    9   33 1
  17   10   11 ar
  18   10   29 1
  19   11   12 ar
  20   11   34 1
  21   12   35 1
  22   13   14 ar
  23   13   15 ar
  24   14   18 ar
  25   14   36 1
  26   15   16 ar
  27   15   25 1
  28   16   17 ar
  29   16   37 1
  30   17   18 ar
  31   17   38 1
  32   18   39 1
  33   19   20 ar
  34   19   21 ar
  35   20   27 1
  36   20   24 ar
  37   21   22 ar
  38   21   40 1
  39   22   23 ar
  40   22   41 1
  41   23   24 ar
  42   23   42 1
  43   24   43 1
  44   25   26 1
  45   26   44 1
  46   26   45 1
  47   26   46 1
  48   27   28 1
  49   28   47 1
  50   28   48 1
  51   28   49 1
  52   29   30 1
  53   30   50 1
  54   30   51 1
  55   30   52 1

#	End of record

