#	Name: ASD06610012
#	Creating user name:	WinNT
#	Creation time:	15. 06. 2019 21:07

#	Modifying user name:	WinNT
#	Modification time:	15. 06. 2019 21:07

#	Program:	/corina/corina34_cracker 3.40 0067  02.08.2006

@<TRIPOS>MOLECULE
ASD06610012
 330  331    0    0    0
SMALL
NO_CHARGES


@<TRIPOS>ATOM
   1 C1            -8.8371   -17.5732     3.8324 C.2     
   2 O2            -9.4002   -18.6399     3.7066 O.2     
   3 N3            -6.8014   -18.8883     3.9570 N.am    
   4 C4            -7.3390   -17.5259     3.9889 C.3     
   5 C5            -6.7321   -16.7112     2.8448 C.3     
   6 C6            -5.2057   -16.7669     2.9328 C.3     
   7 O7            -7.1574   -17.2562     1.5942 O.3     
   8 C8           -11.4900   -15.1696     3.0922 C.2     
   9 O9           -10.7466   -14.2123     3.0514 O.2     
  10 N10           -9.5505   -16.4297     3.8266 N.am    
  11 C11          -11.0062   -16.4753     3.6684 C.3     
  12 C12          -11.6605   -16.7045     5.0323 C.3     
  13 C13          -11.2767   -18.0900     5.5558 C.3     
  14 C14          -11.1778   -15.6362     6.0155 C.3     
  15 C15          -14.7534   -13.7456     2.2644 C.2     
  16 O16          -15.3466   -14.7120     2.6947 O.2     
  17 N17          -12.7489   -15.0658     2.6221 N.am    
  18 C18          -13.2509   -13.7722     2.1521 C.3     
  19 C19          -12.8449   -13.5680     0.6911 C.3     
  20 C20          -11.3441   -13.4718     0.5955 C.ar    
  21 C21          -10.5891   -14.6139     0.4043 C.ar    
  22 C22           -9.2123   -14.5256     0.3167 C.ar    
  23 C23           -8.5906   -13.2953     0.4197 C.ar    
  24 C24           -9.3457   -12.1531     0.6099 C.ar    
  25 C25          -10.7227   -12.2408     0.6933 C.ar    
  26 C26          -17.4592   -11.6352     1.0042 C.2     
  27 O27          -16.7121   -11.0147     0.2779 O.2     
  28 N28          -15.4381   -12.6479     1.8866 N.am    
  29 C29          -16.8988   -12.6220     1.9958 C.3     
  30 C30          -17.2970   -12.2034     3.4125 C.3     
  31 C31          -16.8355   -13.2697     4.4081 C.3     
  32 C32          -17.2337   -12.8511     5.8248 C.3     
  33 N33          -16.7918   -13.8720     6.7780 N.pl3   
  34 C34          -17.0401   -13.7122     8.1208 C.2     
  35 N35          -17.6686   -12.6524     8.5457 N.2     
  36 N36          -16.6254   -14.6703     9.0153 N.pl3   
  37 C37          -20.6764    -9.9926     0.4432 C.2     
  38 O38          -21.1320   -10.4039     1.4892 O.2     
  39 N39          -18.7907   -11.4423     0.9246 N.am    
  40 C40          -19.3356   -10.4830    -0.0393 C.3     
  41 C41          -19.5009   -11.1645    -1.3991 C.3     
  42 O42          -20.4828   -12.1978    -1.2979 O.3     
  43 C43          -23.4924    -8.1592    -0.9963 C.2     
  44 O44          -23.0330    -8.2227    -2.1170 O.2     
  45 N45          -21.3692    -9.0970    -0.2878 N.am    
  46 C46          -22.6727    -8.6202     0.1812 C.3     
  47 C47          -22.4705    -7.4534     1.1500 C.3     
  48 O48          -21.8930    -6.3487     0.4512 O.3     
  49 C49          -26.5492    -6.2158    -1.4878 C.2     
  50 O50          -26.6028    -5.8996    -0.3182 O.2     
  51 N51          -24.7359    -7.6765    -0.8041 N.am    
  52 C52          -25.5328    -7.2283    -1.9489 C.3     
  53 C53          -26.2525    -8.4272    -2.5698 C.3     
  54 C54          -25.2210    -9.3971    -3.1496 C.3     
  55 C55          -25.9408   -10.5960    -3.7705 C.3     
  56 N56          -24.9531   -11.5247    -4.3256 N.pl3   
  57 C57          -25.3675   -12.6831    -4.9391 C.2     
  58 N58          -24.4887   -13.5094    -5.4330 N.2     
  59 N59          -26.7089   -12.9700    -5.0317 N.pl3   
  60 C60          -29.5556    -4.6695    -2.8785 C.2     
  61 O61          -29.5624    -5.4130    -3.8367 O.2     
  62 N62          -27.3988    -5.6616    -2.3752 N.am    
  63 C63          -28.3870    -4.6773    -1.9270 C.3     
  64 C64          -27.7455    -3.2886    -1.8958 C.3     
  65 C65          -26.6392    -3.2615    -0.8393 C.3     
  66 C66          -26.0074    -1.8936    -0.8085 C.2     
  67 O67          -26.4016    -1.0292    -1.5549 O.2     
  68 O68          -25.0068    -1.6356     0.0483 O.3     
  69 C69          -32.4158    -2.4886    -3.5311 C.2     
  70 O70          -31.9973    -1.6248    -2.7898 O.2     
  71 N71          -30.5932    -3.8364    -2.6647 N.am    
  72 C72          -31.7292    -3.8288    -3.5896 C.3     
  73 C73          -32.7182    -4.9263    -3.1916 C.3     
  74 C74          -32.0597    -6.2957    -3.3705 C.3     
  75 C75          -33.0486    -7.3931    -2.9725 C.3     
  76 C76          -32.3901    -8.7625    -3.1515 C.3     
  77 N77          -33.3396    -9.8162    -2.7693 N.3     
  78 C78          -35.6005    -1.1005    -4.6685 C.2     
  79 O79          -36.0262    -2.1909    -4.9860 O.2     
  80 N80          -33.4948    -2.2499    -4.3026 N.am    
  81 C81          -34.1622    -0.9470    -4.2457 C.3     
  82 C82          -33.4553     0.0297    -5.1876 C.3     
  83 C83          -32.0319     0.2818    -4.6862 C.3     
  84 C84          -31.3249     1.2585    -5.6281 C.3     
  85 N85          -29.9620     1.5000    -5.1480 N.pl3   
  86 C86          -29.1306     2.3500    -5.8381 C.2     
  87 N87          -29.5550     2.9412    -6.9195 N.2     
  88 N88          -27.8516     2.5766    -5.3876 N.pl3   
  89 C89          -38.3229     1.1396    -5.6350 C.2     
  90 O90          -37.5910     2.1061    -5.6665 O.2     
  91 N91          -36.4138    -0.0261    -4.6937 N.am    
  92 C92          -37.8121    -0.1753    -5.1046 C.3     
  93 C93          -38.6548    -0.6017    -3.9009 C.3     
  94 C94          -41.5877     2.5749    -6.4371 C.2     
  95 O95          -42.1822     1.6388    -5.9460 O.2     
  96 N96          -39.5930     1.2414    -6.0742 N.am    
  97 C97          -40.0895     2.5196    -6.5897 C.3     
  98 C98          -39.7224     2.6500    -8.0693 C.3     
  99 O99          -40.4091     1.6469    -8.8206 O.3     
 100 C100         -44.2977     4.6672    -7.7183 C.2     
 101 O101         -43.5627     5.2419    -8.4932 O.2     
 102 N102         -42.2670     3.6647    -6.8463 N.am    
 103 C103         -43.7235     3.7184    -6.6979 C.3     
 104 C104         -44.0751     4.2080    -5.2916 C.3     
 105 C105         -46.1070     7.1628    -8.4294 C.2     
 106 O106         -45.6156     7.4681    -7.3634 O.2     
 107 N107         -45.6280     4.8771    -7.7698 N.am    
 108 C108         -46.1973     5.7128    -8.8298 C.3     
 109 C109         -47.6637     5.3337    -9.0461 C.3     
 110 C110         -47.7471     3.9153    -9.5483 C.2     
 111 O111         -46.7369     3.3083    -9.8144 O.2     
 112 O112         -48.9437     3.3263    -9.6999 O.3     
 113 C113         -47.8748    10.1678    -9.2268 C.2     
 114 O114         -48.7046     9.5315    -9.8413 O.2     
 115 N115         -46.5724     8.1204    -9.2558 N.am    
 116 C116         -46.5738     9.5211    -8.8266 C.3     
 117 C117         -45.4111    10.2597    -9.4925 C.3     
 118 C118         -45.4797    10.0582   -11.0076 C.3     
 119 C119         -46.7211    10.7614   -11.5599 C.3     
 120 C120         -44.0860     9.7067    -8.9639 C.3     
 121 C121         -49.1065    13.6032    -9.4377 C.2     
 122 O122         -48.0351    14.0666    -9.1086 O.2     
 123 N123         -48.1163    11.4534    -8.9020 N.am    
 124 C124         -49.3324    12.1142    -9.3822 C.3     
 125 C125         -50.4892    11.8091    -8.4285 C.3     
 126 C126         -50.7956    10.3341    -8.4662 C.ar    
 127 C127         -50.1551     9.4726    -7.5952 C.ar    
 128 C128         -50.4362     8.1196    -7.6299 C.ar    
 129 C129         -51.3581     7.6281    -8.5351 C.ar    
 130 C130         -51.9993     8.4897    -9.4054 C.ar    
 131 C131         -51.7214     9.8433    -9.3678 C.ar    
 132 C132         -50.1457    16.4671    -8.5514 C.2     
 133 O133         -50.4868    15.7584    -7.6342 O.2     
 134 N134         -50.0950    14.4197    -9.8531 N.am    
 135 C135         -49.8754    15.8672    -9.9071 C.3     
 136 C136         -50.8206    16.4883   -10.9374 C.3     
 137 C137         -50.5066    17.9785   -11.0844 C.3     
 138 C138         -51.3655    18.5729   -12.2023 C.3     
 139 C139         -52.2676    16.3156   -10.4714 C.3     
 140 O140         -50.0075    17.7889    -8.3628 O.3     
 141 C141          -5.6261   -19.1632     4.5568 C.2     
 142 O142          -5.0136   -18.2827     5.1229 O.2     
 143 C143           8.1949   -30.8016     9.5283 C.3     
 144 C144           7.6334   -29.3787     9.5616 C.3     
 145 C145           6.2995   -29.3392     8.8134 C.3     
 146 C146           5.7380   -27.9163     8.8467 C.3     
 147 C147           4.4040   -27.8768     8.0985 C.3     
 148 C148           3.8426   -26.4539     8.1318 C.3     
 149 C149           2.5086   -26.4143     7.3836 C.3     
 150 C150           1.9471   -24.9915     7.4169 C.3     
 151 C151           0.6132   -24.9519     6.6687 C.3     
 152 C152           0.0517   -23.5291     6.7020 C.3     
 153 C153          -1.2823   -23.4895     5.9538 C.3     
 154 C154          -1.8437   -22.0666     5.9871 C.3     
 155 C155          -3.1777   -22.0271     5.2389 C.3     
 156 C156          -3.7391   -20.6042     5.2722 C.3     
 157 C157          -5.0731   -20.5647     4.5239 C.3     
 158 H158          -7.2912   -19.5925     3.5043 H       
 159 H159          -7.0877   -17.0583     4.9410 H       
 160 H160          -7.0629   -15.6754     2.9210 H       
 161 H161          -4.8749   -17.8027     2.8566 H       
 162 H162          -4.7733   -16.1866     2.1177 H       
 163 H163          -4.8813   -16.3512     3.8867 H       
 164 H164          -6.8972   -18.1775     1.4578 H       
 165 H165          -9.1000   -15.5765     3.9273 H       
 166 H166         -11.2732   -17.2905     2.9958 H       
 167 H167         -12.7439   -16.6418     4.9307 H       
 168 H168         -10.1933   -18.1527     5.6574 H       
 169 H169         -11.7429   -18.2533     6.5274 H       
 170 H170         -11.6206   -18.8511     4.8553 H       
 171 H171         -10.0885   -15.6427     6.0532 H       
 172 H172         -11.5241   -14.6565     5.6863 H       
 173 H173         -11.5770   -15.8483     7.0073 H       
 174 H174         -13.3225   -15.8475     2.5951 H       
 175 H175         -12.8267   -12.9745     2.7619 H       
 176 H176         -13.1936   -14.4119     0.0958 H       
 177 H177         -13.2927   -12.6482     0.3148 H       
 178 H178         -11.0748   -15.5751     0.3238 H       
 179 H179          -8.6224   -15.4180     0.1680 H       
 180 H180          -7.5149   -13.2264     0.3519 H       
 181 H181          -8.8599   -11.1919     0.6908 H       
 182 H182         -11.3129   -11.3480     0.8382 H       
 183 H183         -14.9637   -11.8750     1.5425 H       
 184 H184         -17.2965   -13.6147     1.7849 H       
 185 H185         -16.8260   -11.2510     3.6559 H       
 186 H186         -18.3804   -12.0980     3.4693 H       
 187 H187         -17.3065   -14.2221     4.1647 H       
 188 H188         -15.7521   -13.3751     4.3513 H       
 189 H189         -16.7627   -11.8987     6.0681 H       
 190 H190         -18.3171   -12.7456     5.8815 H       
 191 H191         -16.3241   -14.6608     6.4618 H       
 192 H192         -17.8438   -12.5396     9.4930 H       
 193 H193         -16.1577   -15.4591     8.6991 H       
 194 H194         -16.8006   -14.5576     9.9627 H       
 195 H195         -19.3883   -11.9386     1.5056 H       
 196 H196         -18.6534    -9.6385    -0.1367 H       
 197 H197         -19.8218   -10.4295    -2.1373 H       
 198 H198         -18.5489   -11.5969    -1.7070 H       
 199 H199         -20.6397   -12.6737    -2.1249 H       
 200 H200         -21.0048    -8.7680    -1.1244 H       
 201 H201         -23.1936    -9.4302     0.6917 H       
 202 H202         -23.4328    -7.1565     1.5670 H       
 203 H203         -21.8047    -7.7615     1.9561 H       
 204 H204         -21.7365    -5.5715     1.0048 H       
 205 H205         -25.1033    -7.6257     0.0922 H       
 206 H206         -24.8777    -6.7732    -2.6917 H       
 207 H207         -26.8390    -8.9353    -1.8043 H       
 208 H208         -26.9138    -8.0822    -3.3647 H       
 209 H209         -24.6346    -8.8890    -3.9151 H       
 210 H210         -24.5598    -9.7421    -2.3547 H       
 211 H211         -26.5272   -11.1041    -3.0050 H       
 212 H212         -26.6020   -10.2509    -4.5654 H       
 213 H213         -24.0067   -11.3222    -4.2603 H       
 214 H214         -24.7811   -14.3267    -5.8658 H       
 215 H215         -27.3629   -12.3551    -4.6641 H       
 216 H216         -27.0013   -13.7874    -5.4645 H       
 217 H217         -27.3560    -5.9145    -3.3107 H       
 218 H218         -28.7339    -4.9398    -0.9276 H       
 219 H219         -27.3198    -3.0629    -2.8735 H       
 220 H220         -28.5024    -2.5442    -1.6484 H       
 221 H221         -27.0649    -3.4871     0.1385 H       
 222 H222         -25.8823    -4.0058    -1.0866 H       
 223 H223         -24.6333    -0.7439     0.0313 H       
 224 H224         -30.5877    -3.2417    -1.8983 H       
 225 H225         -31.3733    -4.0108    -4.6037 H       
 226 H226         -33.0061    -4.7951    -2.1486 H       
 227 H227         -33.6040    -4.8638    -3.8237 H       
 228 H228         -31.7717    -6.4269    -4.4136 H       
 229 H229         -31.1738    -6.3582    -2.7385 H       
 230 H230         -33.3366    -7.2619    -1.9295 H       
 231 H231         -33.9345    -7.3306    -3.6046 H       
 232 H232         -32.1022    -8.8937    -4.1945 H       
 233 H233         -31.5043    -8.8250    -2.5194 H       
 234 H234         -34.1963    -9.7397    -3.2970 H       
 235 H235         -32.9280   -10.7309    -2.8787 H       
 236 H236         -33.8295    -2.9408    -4.8955 H       
 237 H237         -34.1221    -0.5624    -3.2266 H       
 238 H238         -33.4172    -0.3957    -6.1904 H       
 239 H239         -34.0037     0.9713    -5.2129 H       
 240 H240         -32.0699     0.7072    -3.6834 H       
 241 H241         -31.4835    -0.6598    -4.6609 H       
 242 H242         -31.2869     0.8331    -6.6309 H       
 243 H243         -31.8733     2.2002    -5.6534 H       
 244 H244         -29.6462     1.0600    -4.3433 H       
 245 H245         -28.9684     3.5410    -7.4064 H       
 246 H246         -27.5358     2.1367    -4.5829 H       
 247 H247         -27.2650     3.1764    -5.8745 H       
 248 H248         -36.0734     0.8460    -4.4397 H       
 249 H249         -37.8826    -0.9337    -5.8844 H       
 250 H250         -39.6951    -0.7127    -4.2067 H       
 251 H251         -38.2853    -1.5527    -3.5173 H       
 252 H252         -38.5842     0.1566    -3.1211 H       
 253 H253         -40.1783     0.4683    -6.0489 H       
 254 H254         -39.6368     3.3378    -6.0296 H       
 255 H255         -40.0128     3.6367    -8.4301 H       
 256 H256         -38.6468     2.5212    -8.1895 H       
 257 H257         -40.2233     1.6699    -9.7693 H       
 258 H258         -41.7916     4.4134    -7.2390 H       
 259 H259         -44.1413     2.7235    -6.8513 H       
 260 H260         -45.1588     4.2480    -5.1812 H       
 261 H261         -43.6598     3.5218    -4.5536 H       
 262 H262         -43.6573     5.2030    -5.1382 H       
 263 H263         -46.2086     4.4748    -7.1049 H       
 264 H264         -45.6413     5.5559    -9.7542 H       
 265 H265         -48.2035     5.4175    -8.1028 H       
 266 H266         -48.1083     6.0058    -9.7801 H       
 267 H267         -48.9466     2.4155   -10.0249 H       
 268 H268         -46.9065     7.8821   -10.1347 H       
 269 H269         -46.4622     9.5693    -7.7434 H       
 270 H270         -45.4778    11.3234    -9.2640 H       
 271 H271         -44.5873    10.4791   -11.4709 H       
 272 H272         -45.5364     8.9926   -11.2302 H       
 273 H273         -46.6467    10.8311   -12.6451 H       
 274 H274         -47.6108    10.1912   -11.2927 H       
 275 H275         -46.7904    11.7630   -11.1355 H       
 276 H276         -43.9649     8.6753    -9.2950 H       
 277 H277         -43.2624    10.3100    -9.3457 H       
 278 H278         -44.0868     9.7408    -7.8744 H       
 279 H279         -47.4849    11.9410    -8.3502 H       
 280 H280         -49.5765    11.7464   -10.3788 H       
 281 H281         -50.2098    12.0964    -7.4148 H       
 282 H282         -51.3711    12.3714    -8.7354 H       
 283 H283         -49.4349     9.8566    -6.8880 H       
 284 H284         -49.9352     7.4464    -6.9499 H       
 285 H285         -51.5771     6.5709    -8.5626 H       
 286 H286         -52.7193     8.1056   -10.1128 H       
 287 H287         -52.2251    10.5170   -10.0453 H       
 288 H288         -50.9518    14.0490   -10.1164 H       
 289 H289         -48.8430    16.0676   -10.1938 H       
 290 H290         -50.6868    15.9923   -11.8988 H       
 291 H291         -50.7253    18.4901   -10.1471 H       
 292 H292         -49.4521    18.1052   -11.3300 H       
 293 H293         -51.1468    18.0613   -13.1396 H       
 294 H294         -52.4199    18.4463   -11.9568 H       
 295 H295         -51.1418    19.6346   -12.3070 H       
 296 H296         -52.9410    16.7582   -11.2054 H       
 297 H297         -52.4913    15.2540   -10.3667 H       
 298 H298         -52.4014    16.8116    -9.5101 H       
 299 H299         -50.1920    18.1275    -7.4760 H       
 300 H300           9.1452   -30.8298    10.0614 H       
 301 H301           7.4899   -31.4817    10.0064 H       
 302 H302           8.3496   -31.1070     8.4935 H       
 303 H303           7.4788   -29.0733    10.5965 H       
 304 H304           8.3385   -28.6986     9.0836 H       
 305 H305           6.4541   -29.6446     7.7786 H       
 306 H306           5.5944   -30.0193     9.2915 H       
 307 H307           5.5833   -27.6109     9.8816 H       
 308 H308           6.4430   -27.2362     8.3687 H       
 309 H309           4.5587   -28.1822     7.0637 H       
 310 H310           3.6990   -28.5568     8.5766 H       
 311 H311           3.6879   -26.1485     9.1667 H       
 312 H312           4.5476   -25.7738     7.6538 H       
 313 H313           2.6633   -26.7198     6.3488 H       
 314 H314           1.8036   -27.0944     7.8616 H       
 315 H315           1.7925   -24.6860     8.4518 H       
 316 H316           2.6522   -24.3114     6.9389 H       
 317 H317           0.7678   -25.2574     5.6338 H       
 318 H318          -0.0919   -25.6320     7.1467 H       
 319 H319          -0.1029   -23.2236     7.7368 H       
 320 H320           0.7567   -22.8490     6.2240 H       
 321 H321          -1.1276   -23.7949     4.9189 H       
 322 H322          -1.9873   -24.1696     6.4318 H       
 323 H323          -1.9984   -21.7612     7.0219 H       
 324 H324          -1.1387   -21.3866     5.5090 H       
 325 H325          -3.0230   -22.3325     4.2040 H       
 326 H326          -3.8827   -22.7072     5.7169 H       
 327 H327          -3.8938   -20.2988     6.3070 H       
 328 H328          -3.0341   -19.9241     4.7941 H       
 329 H329          -5.7781   -21.2448     5.0020 H       
 330 H330          -4.9184   -20.8701     3.4891 H       
@<TRIPOS>BOND
   1    1    2 2
   2    1    4 1
   3    1   10 am
   4    3  141 am
   5    3    4 1
   6    3  158 1
   7    4    5 1
   8    4  159 1
   9    5    6 1
  10    5    7 1
  11    5  160 1
  12    6  161 1
  13    6  162 1
  14    6  163 1
  15    7  164 1
  16    8    9 2
  17    8   11 1
  18    8   17 am
  19   10   11 1
  20   10  165 1
  21   11   12 1
  22   11  166 1
  23   12   13 1
  24   12   14 1
  25   12  167 1
  26   13  168 1
  27   13  169 1
  28   13  170 1
  29   14  171 1
  30   14  172 1
  31   14  173 1
  32   15   16 2
  33   15   18 1
  34   15   28 am
  35   17   18 1
  36   17  174 1
  37   18   19 1
  38   18  175 1
  39   19   20 1
  40   19  176 1
  41   19  177 1
  42   20   21 ar
  43   20   25 ar
  44   21   22 ar
  45   21  178 1
  46   22   23 ar
  47   22  179 1
  48   23   24 ar
  49   23  180 1
  50   24   25 ar
  51   24  181 1
  52   25  182 1
  53   26   27 2
  54   26   29 1
  55   26   39 am
  56   28   29 1
  57   28  183 1
  58   29   30 1
  59   29  184 1
  60   30   31 1
  61   30  185 1
  62   30  186 1
  63   31   32 1
  64   31  187 1
  65   31  188 1
  66   32   33 1
  67   32  189 1
  68   32  190 1
  69   33   34 1
  70   33  191 1
  71   34   35 2
  72   34   36 1
  73   35  192 1
  74   36  193 1
  75   36  194 1
  76   37   38 2
  77   37   40 1
  78   37   45 am
  79   39   40 1
  80   39  195 1
  81   40   41 1
  82   40  196 1
  83   41   42 1
  84   41  197 1
  85   41  198 1
  86   42  199 1
  87   43   44 2
  88   43   46 1
  89   43   51 am
  90   45   46 1
  91   45  200 1
  92   46   47 1
  93   46  201 1
  94   47   48 1
  95   47  202 1
  96   47  203 1
  97   48  204 1
  98   49   50 2
  99   49   52 1
 100   49   62 am
 101   51   52 1
 102   51  205 1
 103   52   53 1
 104   52  206 1
 105   53   54 1
 106   53  207 1
 107   53  208 1
 108   54   55 1
 109   54  209 1
 110   54  210 1
 111   55   56 1
 112   55  211 1
 113   55  212 1
 114   56   57 1
 115   56  213 1
 116   57   58 2
 117   57   59 1
 118   58  214 1
 119   59  215 1
 120   59  216 1
 121   60   61 2
 122   60   63 1
 123   60   71 am
 124   62   63 1
 125   62  217 1
 126   63   64 1
 127   63  218 1
 128   64   65 1
 129   64  219 1
 130   64  220 1
 131   65   66 1
 132   65  221 1
 133   65  222 1
 134   66   67 2
 135   66   68 1
 136   68  223 1
 137   69   70 2
 138   69   72 1
 139   69   80 am
 140   71   72 1
 141   71  224 1
 142   72   73 1
 143   72  225 1
 144   73   74 1
 145   73  226 1
 146   73  227 1
 147   74   75 1
 148   74  228 1
 149   74  229 1
 150   75   76 1
 151   75  230 1
 152   75  231 1
 153   76   77 1
 154   76  232 1
 155   76  233 1
 156   77  234 1
 157   77  235 1
 158   78   79 2
 159   78   81 1
 160   78   91 am
 161   80   81 1
 162   80  236 1
 163   81   82 1
 164   81  237 1
 165   82   83 1
 166   82  238 1
 167   82  239 1
 168   83   84 1
 169   83  240 1
 170   83  241 1
 171   84   85 1
 172   84  242 1
 173   84  243 1
 174   85   86 1
 175   85  244 1
 176   86   87 2
 177   86   88 1
 178   87  245 1
 179   88  246 1
 180   88  247 1
 181   89   90 2
 182   89   92 1
 183   89   96 am
 184   91   92 1
 185   91  248 1
 186   92   93 1
 187   92  249 1
 188   93  250 1
 189   93  251 1
 190   93  252 1
 191   94   95 2
 192   94   97 1
 193   94  102 am
 194   96   97 1
 195   96  253 1
 196   97   98 1
 197   97  254 1
 198   98   99 1
 199   98  255 1
 200   98  256 1
 201   99  257 1
 202  100  101 2
 203  100  103 1
 204  100  107 am
 205  102  103 1
 206  102  258 1
 207  103  104 1
 208  103  259 1
 209  104  260 1
 210  104  261 1
 211  104  262 1
 212  105  106 2
 213  105  108 1
 214  105  115 am
 215  107  108 1
 216  107  263 1
 217  108  109 1
 218  108  264 1
 219  109  110 1
 220  109  265 1
 221  109  266 1
 222  110  111 2
 223  110  112 1
 224  112  267 1
 225  113  114 2
 226  113  116 1
 227  113  123 am
 228  115  116 1
 229  115  268 1
 230  116  117 1
 231  116  269 1
 232  117  118 1
 233  117  120 1
 234  117  270 1
 235  118  119 1
 236  118  271 1
 237  118  272 1
 238  119  273 1
 239  119  274 1
 240  119  275 1
 241  120  276 1
 242  120  277 1
 243  120  278 1
 244  121  122 2
 245  121  124 1
 246  121  134 am
 247  123  124 1
 248  123  279 1
 249  124  125 1
 250  124  280 1
 251  125  126 1
 252  125  281 1
 253  125  282 1
 254  126  127 ar
 255  126  131 ar
 256  127  128 ar
 257  127  283 1
 258  128  129 ar
 259  128  284 1
 260  129  130 ar
 261  129  285 1
 262  130  131 ar
 263  130  286 1
 264  131  287 1
 265  132  133 2
 266  132  135 1
 267  132  140 1
 268  134  135 1
 269  134  288 1
 270  135  136 1
 271  135  289 1
 272  136  137 1
 273  136  139 1
 274  136  290 1
 275  137  138 1
 276  137  291 1
 277  137  292 1
 278  138  293 1
 279  138  294 1
 280  138  295 1
 281  139  296 1
 282  139  297 1
 283  139  298 1
 284  140  299 1
 285  141  142 2
 286  141  157 1
 287  143  144 1
 288  143  300 1
 289  143  301 1
 290  143  302 1
 291  144  145 1
 292  144  303 1
 293  144  304 1
 294  145  146 1
 295  145  305 1
 296  145  306 1
 297  146  147 1
 298  146  307 1
 299  146  308 1
 300  147  148 1
 301  147  309 1
 302  147  310 1
 303  148  149 1
 304  148  311 1
 305  148  312 1
 306  149  150 1
 307  149  313 1
 308  149  314 1
 309  150  151 1
 310  150  315 1
 311  150  316 1
 312  151  152 1
 313  151  317 1
 314  151  318 1
 315  152  153 1
 316  152  319 1
 317  152  320 1
 318  153  154 1
 319  153  321 1
 320  153  322 1
 321  154  155 1
 322  154  323 1
 323  154  324 1
 324  155  156 1
 325  155  325 1
 326  155  326 1
 327  156  157 1
 328  156  327 1
 329  156  328 1
 330  157  329 1
 331  157  330 1

#	End of record

