#	Name: ASD03730099
#	Creating user name:	WinNT
#	Creation time:	15. 06. 2019 20:43

#	Modifying user name:	WinNT
#	Modification time:	15. 06. 2019 20:43

#	Program:	/corina/corina34_cracker 3.40 0067  02.08.2006

@<TRIPOS>MOLECULE
ASD03730099
  49   54    0    0    0
SMALL
NO_CHARGES


@<TRIPOS>ATOM
   1 C1            -0.0466     1.4850     0.2244 C.2     
   2 C2            -0.0458    -0.0219     0.2063 C.3     
   3 O3             0.9867     2.0897     0.4183 O.2     
   4 N4            -1.1946     2.1607     0.0195 N.am    
   5 O5             5.7350     2.7524     3.4585 O.3     
   6 C6             7.0867     2.6732     3.9479 C.3     
   7 O7             7.1820     1.3369     4.4754 O.3     
   8 C8             6.2756     0.5992     3.7689 C.ar    
   9 C9             5.3856     1.4702     3.1446 C.ar    
  10 C10            6.1364    -0.7672     3.6044 C.ar    
  11 C11            5.1095    -1.2819     2.8189 C.ar    
  12 C12            4.2216    -0.4022     2.2071 C.ar    
  13 C13            4.3614     0.9610     2.3641 C.ar    
  14 O14            4.8087    -2.5773     2.5164 O.3     
  15 C15            3.2239    -1.2485     1.4625 C.3     
  16 C16            3.4503    -2.6514     2.0423 C.3     
  17 N17            1.3137    -0.5124     0.4459 N.am    
  18 C18            1.8130    -0.7781     1.6695 C.2     
  19 C19            3.4410    -1.2145    -0.0213 C.ar    
  20 C20            4.5086    -1.5241    -0.8339 C.ar    
  21 C21            4.3979    -1.3862    -2.2061 C.ar    
  22 C22            3.2128    -0.9362    -2.7592 C.ar    
  23 C23            2.1409    -0.6239    -1.9493 C.ar    
  24 C24            2.2433    -0.7600    -0.5670 C.ar    
  25 O25            1.2357    -0.6607     2.7297 O.2     
  26 C26           -1.2153     3.5552     0.1328 C.ar    
  27 C27           -0.1181     4.3024    -0.2744 C.ar    
  28 C28           -0.1411     5.6800    -0.1614 C.ar    
  29 C29           -1.2561     6.3143     0.3574 C.ar    
  30 C30           -2.3507     5.5719     0.7644 C.ar    
  31 C31           -2.3354     4.1946     0.6473 C.ar    
  32 Cl32          -3.7474     6.3715     1.4152 Cl      
  33 Cl33           1.2303     6.6149    -0.6702 Cl      
  34 H34           -0.7094    -0.3950     0.9863 H       
  35 H35           -0.3930    -0.3738    -0.7652 H       
  36 H36           -2.0064     1.6804    -0.2065 H       
  37 H37            7.7976     2.8151     3.1339 H       
  38 H38            7.2527     3.4085     4.7352 H       
  39 H39            6.8294    -1.4392     4.0889 H       
  40 H40            3.6700     1.6329     1.8773 H       
  41 H41            3.3518    -3.4112     1.2670 H       
  42 H42            2.7629    -2.8456     2.8656 H       
  43 H43            5.4331    -1.8752    -0.3999 H       
  44 H44            5.2347    -1.6298    -2.8439 H       
  45 H45            3.1264    -0.8284    -3.8303 H       
  46 H46            1.2190    -0.2725    -2.3886 H       
  47 H47            0.7527     3.8078    -0.6788 H       
  48 H48           -1.2720     7.3906     0.4452 H       
  49 H49           -3.1919     3.6160     0.9602 H       
@<TRIPOS>BOND
   1    1    2 1
   2    1    3 2
   3    1    4 am
   4    2   17 1
   5    2   34 1
   6    2   35 1
   7    4   26 1
   8    4   36 1
   9    5    6 1
  10    5    9 1
  11    6    7 1
  12    6   37 1
  13    6   38 1
  14    7    8 1
  15    8    9 ar
  16    8   10 ar
  17    9   13 ar
  18   10   11 ar
  19   10   39 1
  20   11   12 ar
  21   11   14 1
  22   12   13 ar
  23   12   15 1
  24   13   40 1
  25   14   16 1
  26   15   16 1
  27   15   18 1
  28   15   19 1
  29   16   41 1
  30   16   42 1
  31   17   18 am
  32   17   24 1
  33   18   25 2
  34   19   20 ar
  35   19   24 ar
  36   20   21 ar
  37   20   43 1
  38   21   22 ar
  39   21   44 1
  40   22   23 ar
  41   22   45 1
  42   23   24 ar
  43   23   46 1
  44   26   27 ar
  45   26   31 ar
  46   27   28 ar
  47   27   47 1
  48   28   29 ar
  49   28   33 1
  50   29   30 ar
  51   29   48 1
  52   30   31 ar
  53   30   32 1
  54   31   49 1

#	End of record

