#	Name: ASD05830001
#	Creating user name:	WinNT
#	Creation time:	15. 06. 2019 21:03

#	Modifying user name:	WinNT
#	Modification time:	15. 06. 2019 21:03

#	Program:	/corina/corina34_cracker 3.40 0067  02.08.2006

@<TRIPOS>MOLECULE
ASD05830001
  31   33    0    0    0
SMALL
NO_CHARGES


@<TRIPOS>ATOM
   1 C1            -0.0159     1.3249     0.0093 C.ar    
   2 N2             0.0021    -0.0041     0.0020 N.ar    
   3 C3             1.1408    -0.6725    -0.0124 C.ar    
   4 N4             2.3124    -0.0723    -0.0204 N.ar    
   5 C5             1.2102     2.0111     0.0013 C.ar    
   6 N6             1.5713     3.3168     0.0049 N.2     
   7 C7             2.3940     1.2541    -0.0141 C.ar    
   8 N8             3.4230     2.1616    -0.0194 N.pl3   
   9 C9             2.8695     3.4072    -0.0070 C.2     
  10 C10            4.8542     1.8491    -0.0342 C.3     
  11 O11            5.6102     2.9534    -0.5760 O.3     
  12 C12            6.9607     2.8085    -0.1054 C.3     
  13 C13            6.9019     2.0287     1.2224 C.3     
  14 C14            5.3981     1.7130     1.4108 C.3     
  15 O15            4.7819     2.6658     2.2795 O.3     
  16 C16            7.5810     4.1875     0.1281 C.3     
  17 O17            7.6585     0.8202     1.1267 O.3     
  18 N18           -1.2145     2.0167     0.0188 N.pl3   
  19 H19            1.1097    -1.7520    -0.0176 H       
  20 H20            3.4262     4.3327    -0.0079 H       
  21 H21            5.0414     0.9393    -0.6046 H       
  22 H22            7.5500     2.2535    -0.8354 H       
  23 H23            7.2681     2.6452     2.0434 H       
  24 H24            5.2574     0.6991     1.7855 H       
  25 H25            5.0896     2.6201     3.1950 H       
  26 H26            6.9818     4.7372     0.8539 H       
  27 H27            8.5954     4.0697     0.5091 H       
  28 H28            7.6077     4.7378    -0.8124 H       
  29 H29            8.5992     0.9581     0.9501 H       
  30 H30           -2.0545     1.5316     0.0202 H       
  31 H31           -1.2146     2.9867     0.0241 H       
@<TRIPOS>BOND
   1    1    2 ar
   2    1    5 ar
   3    1   18 1
   4    2    3 ar
   5    3    4 ar
   6    3   19 1
   7    4    7 ar
   8    5    7 ar
   9    5    6 1
  10    6    9 2
  11    7    8 1
  12    8    9 1
  13    8   10 1
  14    9   20 1
  15   10   11 1
  16   10   14 1
  17   10   21 1
  18   11   12 1
  19   12   13 1
  20   12   16 1
  21   12   22 1
  22   13   14 1
  23   13   17 1
  24   13   23 1
  25   14   15 1
  26   14   24 1
  27   15   25 1
  28   16   26 1
  29   16   27 1
  30   16   28 1
  31   17   29 1
  32   18   30 1
  33   18   31 1

#	End of record

