#	Name: ASD03730718
#	Creating user name:	WinNT
#	Creation time:	15. 06. 2019 20:44

#	Modifying user name:	WinNT
#	Modification time:	15. 06. 2019 20:44

#	Program:	/corina/corina34_cracker 3.40 0067  02.08.2006

@<TRIPOS>MOLECULE
ASD03730718
  63   69    0    0    0
SMALL
NO_CHARGES


@<TRIPOS>ATOM
   1 C1             1.3686    -1.2402    -2.5539 C.2     
   2 C2             0.7533    -1.4867    -1.2327 C.ar    
   3 C3             1.4878    -1.2692    -0.0656 C.ar    
   4 C4             0.9077    -1.5013     1.1641 C.ar    
   5 C5            -0.3993    -1.9491     1.2425 C.ar    
   6 C6            -1.1327    -2.1671     0.0899 C.ar    
   7 C7            -0.5665    -1.9325    -1.1463 C.ar    
   8 O8             2.4872    -0.7693    -2.6251 O.2     
   9 N9             0.6917    -1.5425    -3.6794 N.am    
  10 C10            2.9116    -0.7825    -0.1490 C.3     
  11 O11            1.4050    -3.3818     6.3828 O.3     
  12 C12            1.6176    -3.4670     7.8042 C.3     
  13 O13            3.0493    -3.3994     7.9408 O.3     
  14 C14            3.4879    -2.6997     6.8531 C.ar    
  15 C15            2.4767    -2.6901     5.8951 C.ar    
  16 C16            4.6873    -2.0590     6.5993 C.ar    
  17 C17            4.8943    -1.4035     5.3893 C.ar    
  18 C18            3.8798    -1.4079     4.4368 C.ar    
  19 C19            2.6805    -2.0406     4.6892 C.ar    
  20 O20            5.9807    -0.7054     4.9506 O.3     
  21 C21            4.4070    -0.6541     3.2452 C.3     
  22 C22            5.9155    -0.5761     3.5173 C.3     
  23 N23            3.4056    -0.4846     1.1976 N.am    
  24 C24            4.1069    -1.3546     1.9514 C.2     
  25 C25            3.7912     0.7072     3.1127 C.ar    
  26 C26            3.7208     1.8044     3.9418 C.ar    
  27 C27            3.0650     2.9483     3.5231 C.ar    
  28 C28            2.4799     2.9869     2.2704 C.ar    
  29 C29            2.5469     1.8901     1.4367 C.ar    
  30 C30            3.2054     0.7345     1.8497 C.ar    
  31 O31            4.4321    -2.4821     1.6446 O.2     
  32 C32            1.2580    -1.2713    -4.9313 C.ar    
  33 C33            0.6228    -1.7034    -6.0939 C.ar    
  34 C34            1.1875    -1.4323    -7.3292 C.ar    
  35 C35            2.3789    -0.7343    -7.4070 C.ar    
  36 C36            3.0098    -0.3057    -6.2541 C.ar    
  37 C37            2.4497    -0.5668    -5.0175 C.ar    
  38 O38           -0.5483    -2.3900    -6.0158 O.3     
  39 C39           -1.1425    -2.8015    -7.2486 C.3     
  40 H40            1.4748    -1.3334     2.0678 H       
  41 H41           -0.8488    -2.1296     2.2078 H       
  42 H42           -2.1521    -2.5170     0.1580 H       
  43 H43           -1.1417    -2.0981    -2.0453 H       
  44 H44           -0.1876    -1.9480    -3.6225 H       
  45 H45            3.5337    -1.5547    -0.6017 H       
  46 H46            2.9519     0.1202    -0.7587 H       
  47 H47            1.1442    -2.6275     8.3133 H       
  48 H48            1.2402    -4.4133     8.1918 H       
  49 H49            5.4683    -2.0674     7.3452 H       
  50 H50            1.8985    -2.0298     3.9444 H       
  51 H51            6.3175     0.3849     3.1965 H       
  52 H52            6.4397    -1.3984     3.0302 H       
  53 H53            4.1782     1.7720     4.9196 H       
  54 H54            3.0103     3.8094     4.1727 H       
  55 H55            1.9679     3.8799     1.9437 H       
  56 H56            2.0872     1.9277     0.4602 H       
  57 H57            0.6976    -1.7663    -8.2318 H       
  58 H58            2.8177    -0.5238    -8.3711 H       
  59 H59            3.9402     0.2387    -6.3198 H       
  60 H60            2.9423    -0.2265    -4.1187 H       
  61 H61           -2.0692    -3.3376    -7.0441 H       
  62 H62           -1.3574    -1.9243    -7.8590 H       
  63 H63           -0.4542    -3.4563    -7.7830 H       
@<TRIPOS>BOND
   1    1    2 1
   2    1    8 2
   3    1    9 am
   4    2    3 ar
   5    2    7 ar
   6    3    4 ar
   7    3   10 1
   8    4    5 ar
   9    4   40 1
  10    5    6 ar
  11    5   41 1
  12    6    7 ar
  13    6   42 1
  14    7   43 1
  15    9   32 1
  16    9   44 1
  17   10   23 1
  18   10   45 1
  19   10   46 1
  20   11   12 1
  21   11   15 1
  22   12   13 1
  23   12   47 1
  24   12   48 1
  25   13   14 1
  26   14   15 ar
  27   14   16 ar
  28   15   19 ar
  29   16   17 ar
  30   16   49 1
  31   17   18 ar
  32   17   20 1
  33   18   19 ar
  34   18   21 1
  35   19   50 1
  36   20   22 1
  37   21   22 1
  38   21   24 1
  39   21   25 1
  40   22   51 1
  41   22   52 1
  42   23   24 am
  43   23   30 1
  44   24   31 2
  45   25   26 ar
  46   25   30 ar
  47   26   27 ar
  48   26   53 1
  49   27   28 ar
  50   27   54 1
  51   28   29 ar
  52   28   55 1
  53   29   30 ar
  54   29   56 1
  55   32   33 ar
  56   32   37 ar
  57   33   34 ar
  58   33   38 1
  59   34   35 ar
  60   34   57 1
  61   35   36 ar
  62   35   58 1
  63   36   37 ar
  64   36   59 1
  65   37   60 1
  66   38   39 1
  67   39   61 1
  68   39   62 1
  69   39   63 1

#	End of record

