#	Name: ASD01881567
#	Creating user name:	WinNT
#	Creation time:	15. 06. 2019 19:42

#	Modifying user name:	WinNT
#	Modification time:	15. 06. 2019 19:42

#	Program:	/corina/corina34_cracker 3.40 0067  02.08.2006

@<TRIPOS>MOLECULE
ASD01881567
  54   57    0    0    0
SMALL
NO_CHARGES


@<TRIPOS>ATOM
   1 N1             0.9237     1.4950     1.0841 N.3     
   2 C2             1.4071     0.2428     1.6823 C.3     
   3 C3             0.2179    -0.5507     2.2288 C.3     
   4 N4            -0.7290    -0.8225     1.1383 N.3     
   5 C5            -1.2124     0.4297     0.5401 C.3     
   6 C6            -0.0232     1.2232    -0.0064 C.3     
   7 C7             2.0441     2.3211     0.6147 C.3     
   8 C8             1.5084     3.5565    -0.0619 C.2     
   9 N9             0.8064     4.5606     0.5459 N.pl3   
  10 N10            0.4914     5.5221    -0.4235 N.am    
  11 C11            0.9987     5.0997    -1.5996 C.2     
  12 C12            1.6449     3.8622    -1.3682 C.2     
  13 C13            0.4455     4.6203     1.9645 C.3     
  14 C14           -0.2211     6.7063    -0.2101 C.ar    
  15 C15            0.2765     7.9131    -0.6847 C.ar    
  16 C16           -1.4306     6.6775     0.4720 C.ar    
  17 C17           -2.1318     7.8488     0.6812 C.ar    
  18 C18           -1.6310     9.0494     0.2119 C.ar    
  19 C19           -0.4296     9.0808    -0.4722 C.ar    
  20 O20            0.9187     5.6804    -2.6671 O.2     
  21 Cl21           2.4614     2.9000    -2.5603 Cl      
  22 C22           -1.7976    -1.6104     1.5860 C.ar    
  23 C23           -1.5701    -2.9161     2.0157 C.ar    
  24 C24           -3.0827    -1.0904     1.6076 C.ar    
  25 C25           -4.1363    -1.8688     2.0505 C.ar    
  26 C26           -3.9113    -3.1676     2.4725 C.ar    
  27 C27           -2.6292    -3.6910     2.4578 C.ar    
  28 F28           -4.9436    -3.9244     2.9048 F       
  29 O29           -0.3104    -3.4287     2.0007 O.3     
  30 C30           -0.1520    -4.7741     2.4555 C.3     
  31 H31            1.9208    -0.3480     0.9240 H       
  32 H32            2.0966     0.4706     2.4952 H       
  33 H33            0.5710    -1.4932     2.6472 H       
  34 H34           -0.2796     0.0289     3.0064 H       
  35 H35           -1.9020     0.2019    -0.2728 H       
  36 H36           -1.7261     1.0205     1.2984 H       
  37 H37           -0.3764     2.1657    -0.4248 H       
  38 H38            0.4743     0.6435    -0.7840 H       
  39 H39            2.6624     2.6113     1.4642 H       
  40 H40            2.6446     1.7503    -0.0936 H       
  41 H41            1.1837     4.0729     2.5505 H       
  42 H42            0.4217     5.6603     2.2899 H       
  43 H43           -0.5376     4.1720     2.1084 H       
  44 H44            1.2147     7.9383    -1.2190 H       
  45 H45           -1.8226     5.7401     0.8381 H       
  46 H46           -3.0724     7.8271     1.2115 H       
  47 H47           -2.1815     9.9639     0.3765 H       
  48 H48           -0.0413    10.0201    -0.8374 H       
  49 H49           -3.2608    -0.0772     1.2788 H       
  50 H50           -5.1368    -1.4624     2.0675 H       
  51 H51           -2.4559    -4.7049     2.7872 H       
  52 H52           -0.7470    -5.4410     1.8315 H       
  53 H53            0.8985    -5.0579     2.3917 H       
  54 H54           -0.4866    -4.8497     3.4901 H       
@<TRIPOS>BOND
   1    1    2 1
   2    1    7 1
   3    1    6 1
   4    2    3 1
   5    2   31 1
   6    2   32 1
   7    3    4 1
   8    3   33 1
   9    3   34 1
  10    4    5 1
  11    4   22 1
  12    5    6 1
  13    5   35 1
  14    5   36 1
  15    6   37 1
  16    6   38 1
  17    7    8 1
  18    7   39 1
  19    7   40 1
  20    8    9 1
  21    8   12 2
  22    9   10 1
  23    9   13 1
  24   10   11 am
  25   10   14 1
  26   11   12 1
  27   11   20 2
  28   12   21 1
  29   13   41 1
  30   13   42 1
  31   13   43 1
  32   14   15 ar
  33   14   16 ar
  34   15   19 ar
  35   15   44 1
  36   16   17 ar
  37   16   45 1
  38   17   18 ar
  39   17   46 1
  40   18   19 ar
  41   18   47 1
  42   19   48 1
  43   22   23 ar
  44   22   24 ar
  45   23   29 1
  46   23   27 ar
  47   24   25 ar
  48   24   49 1
  49   25   26 ar
  50   25   50 1
  51   26   27 ar
  52   26   28 1
  53   27   51 1
  54   29   30 1
  55   30   52 1
  56   30   53 1
  57   30   54 1

#	End of record

