#	Name: ASD04880153
#	Creating user name:	WinNT
#	Creation time:	15. 06. 2019 20:52

#	Modifying user name:	WinNT
#	Modification time:	15. 06. 2019 20:52

#	Program:	/corina/corina34_cracker 3.40 0067  02.08.2006

@<TRIPOS>MOLECULE
ASD04880153
  54   56    0    0    0
SMALL
NO_CHARGES


@<TRIPOS>ATOM
   1 C1            -0.0144     1.2118     0.0087 C.2     
   2 O2             0.0577    -0.0018    -0.0141 O.2     
   3 C3             1.2187     2.0260    -0.0194 C.ar    
   4 C4             2.4673     1.4095     0.0723 C.ar    
   5 C5             3.6180     2.1788     0.0453 C.ar    
   6 C6             3.5283     3.5595    -0.0722 C.ar    
   7 C7             2.2922     4.1718    -0.1627 C.ar    
   8 C8             1.1389     3.4141    -0.1436 C.ar    
   9 O9             4.8360     1.5824     0.1344 O.3     
  10 C10            5.9809     2.4369     0.1001 C.3     
  11 C11            7.2515     1.5920     0.2115 C.3     
  12 N12           -1.2190     1.8145     0.0540 N.am    
  13 N13           -1.4354     3.1836     0.1958 N.2     
  14 C14           -2.6790     3.5211     0.2124 C.2     
  15 C15           -3.5393     2.2861     0.0682 C.3     
  16 C16           -2.5205     1.1348    -0.0446 C.3     
  17 C17           -4.4282     2.1044     1.3002 C.3     
  18 C18           -4.3896     2.3696    -1.2011 C.3     
  19 C19           -3.1848     4.8987     0.3510 C.ar    
  20 C20           -2.2893     5.9644     0.4778 C.ar    
  21 C21           -2.7690     7.2539     0.6070 C.ar    
  22 C22           -4.1425     7.4896     0.6108 C.ar    
  23 C23           -5.0314     6.4323     0.4855 C.ar    
  24 C24           -4.5602     5.1431     0.3503 C.ar    
  25 O25           -4.6122     8.7588     0.7380 O.3     
  26 C26           -6.0311     8.9289     0.7341 C.3     
  27 O27           -1.9005     8.2931     0.7309 O.3     
  28 C28           -0.5066     7.9786     0.7196 C.3     
  29 H29            2.5357     0.3356     0.1644 H       
  30 H30            4.4276     4.1573    -0.0927 H       
  31 H31            2.2289     5.2462    -0.2532 H       
  32 H32            0.1750     3.8953    -0.2193 H       
  33 H33            5.9935     2.9899    -0.8391 H       
  34 H34            5.9363     3.1377     0.9338 H       
  35 H35            7.2389     1.0390     1.1508 H       
  36 H36            7.2961     0.8912    -0.6221 H       
  37 H37            8.1247     2.2438     0.1854 H       
  38 H38           -2.6166     0.6276    -1.0046 H       
  39 H39           -2.6484     0.4301     0.7771 H       
  40 H40           -5.0926     2.9628     1.3986 H       
  41 H41           -5.0213     1.1966     1.1896 H       
  42 H42           -3.8038     2.0243     2.1900 H       
  43 H43           -3.7381     2.4757    -2.0685 H       
  44 H44           -4.9829     1.4607    -1.3014 H       
  45 H45           -5.0535     3.2317    -1.1376 H       
  46 H46           -1.2251     5.7805     0.4751 H       
  47 H47           -6.0951     6.6195     0.4896 H       
  48 H48           -5.2545     4.3222     0.2481 H       
  49 H49           -6.4661     8.3711     1.5634 H       
  50 H50           -6.2705     9.9868     0.8425 H       
  51 H51           -6.4388     8.5586    -0.2065 H       
  52 H52            0.0736     8.8952     0.8260 H       
  53 H53           -0.2791     7.3064     1.5470 H       
  54 H54           -0.2511     7.4942    -0.2228 H       
@<TRIPOS>BOND
   1    1    2 2
   2    1    3 1
   3    1   12 am
   4    3    4 ar
   5    3    8 ar
   6    4    5 ar
   7    4   29 1
   8    5    6 ar
   9    5    9 1
  10    6    7 ar
  11    6   30 1
  12    7    8 ar
  13    7   31 1
  14    8   32 1
  15    9   10 1
  16   10   11 1
  17   10   33 1
  18   10   34 1
  19   11   35 1
  20   11   36 1
  21   11   37 1
  22   12   13 1
  23   12   16 1
  24   13   14 2
  25   14   15 1
  26   14   19 1
  27   15   16 1
  28   15   17 1
  29   15   18 1
  30   16   38 1
  31   16   39 1
  32   17   40 1
  33   17   41 1
  34   17   42 1
  35   18   43 1
  36   18   44 1
  37   18   45 1
  38   19   20 ar
  39   19   24 ar
  40   20   21 ar
  41   20   46 1
  42   21   22 ar
  43   21   27 1
  44   22   23 ar
  45   22   25 1
  46   23   24 ar
  47   23   47 1
  48   24   48 1
  49   25   26 1
  50   26   49 1
  51   26   50 1
  52   26   51 1
  53   27   28 1
  54   28   52 1
  55   28   53 1
  56   28   54 1

#	End of record

