#	Name: ASD06170140
#	Creating user name:	WinNT
#	Creation time:	15. 06. 2019 21:05

#	Modifying user name:	WinNT
#	Modification time:	15. 06. 2019 21:05

#	Program:	/corina/corina34_cracker 3.40 0067  02.08.2006

@<TRIPOS>MOLECULE
ASD06170140
  70   75    0    0    0
SMALL
NO_CHARGES


@<TRIPOS>ATOM
   1 N1             0.0331    -1.9149     0.7558 N.pl3   
   2 N2             0.2310    -0.6699     0.1513 N.am    
   3 C3             1.5571    -0.4713     0.0010 C.2     
   4 C4             2.2229    -1.6654     0.5453 C.2     
   5 C5             1.2206    -2.5055     0.9893 C.2     
   6 C6             3.6683    -1.9146     0.6046 C.2     
   7 O7             4.0877    -2.9518     1.0834 O.2     
   8 N8             4.5308    -0.9948     0.1287 N.am    
   9 C9            -1.2723    -2.4890     1.0913 C.3     
  10 C10           -1.7756    -3.3318    -0.0823 C.3     
  11 C11           -3.1389    -3.9314     0.2680 C.3     
  12 C12           -0.7767     0.2202    -0.2339 C.ar    
  13 C13           -1.7646     0.5868     0.6708 C.ar    
  14 C14           -2.7581     1.4663     0.2874 C.ar    
  15 C15           -2.7698     1.9818    -0.9957 C.ar    
  16 C16           -1.7878     1.6185    -1.8990 C.ar    
  17 C17           -0.7884     0.7439    -1.5202 C.ar    
  18 O18            2.0964     0.5036    -0.4883 O.2     
  19 C19            1.4219    -3.8555     1.6281 C.3     
  20 C20            5.9102    -1.1859     0.2766 C.ar    
  21 C21            6.4468    -2.4645     0.1973 C.ar    
  22 C22            7.8084    -2.6520     0.3435 C.ar    
  23 C23            8.6392    -1.5611     0.5696 C.ar    
  24 C24            8.1024    -0.2853     0.6490 C.ar    
  25 C25            6.7423    -0.0966     0.4968 C.ar    
  26 F26            8.3313    -3.8953     0.2670 F       
  27 O27            9.9790    -1.7451     0.7135 O.3     
  28 C28           12.8982    -1.9357    -1.4994 C.ar    
  29 C29           12.1408    -1.8805    -0.3261 C.ar    
  30 C30           10.7390    -1.7992    -0.4098 C.ar    
  31 C31           10.1513    -1.7761    -1.6642 C.ar    
  32 C32           10.9606    -1.8335    -2.7890 C.ar    
  33 N33           12.2633    -1.9088    -2.6908 N.ar    
  34 C34           14.2771    -2.0088    -1.2458 C.2     
  35 C35           14.6281    -2.0133     0.0450 C.2     
  36 S36           13.2071    -1.9310     1.0718 S.3     
  37 C37           16.0135    -2.0844     0.5361 C.2     
  38 O38           16.9364    -2.1448    -0.2537 O.2     
  39 N39           16.2596    -2.0827     1.8612 N.am    
  40 C40           17.4548    -2.1390     2.7164 C.3     
  41 C41           16.5800    -2.7774     3.8042 C.3     
  42 C42           15.4516    -2.0169     3.0883 C.3     
  43 H43            4.1962    -0.2005    -0.3162 H       
  44 H44           -1.1758    -3.1186     1.9758 H       
  45 H45           -1.9815    -1.6861     1.2924 H       
  46 H46           -1.8720    -2.7022    -0.9668 H       
  47 H47           -1.0664    -4.1347    -0.2835 H       
  48 H48           -3.4974    -4.5319    -0.5680 H       
  49 H49           -3.0424    -4.5611     1.1525 H       
  50 H50           -3.8481    -3.1285     0.4692 H       
  51 H51           -1.7563     0.1842     1.6729 H       
  52 H52           -3.5268     1.7515     0.9904 H       
  53 H53           -3.5477     2.6694    -1.2930 H       
  54 H54           -1.8000     2.0226    -2.9005 H       
  55 H55           -0.0192     0.4639    -2.2248 H       
  56 H56            1.4318    -4.6249     0.8560 H       
  57 H57            2.3712    -3.8661     2.1637 H       
  58 H58            0.6084    -4.0520     2.3264 H       
  59 H59            5.8004    -3.3117     0.0219 H       
  60 H60            8.7484     0.5621     0.8255 H       
  61 H61            6.3256     0.8981     0.5540 H       
  62 H62            9.0778    -1.7145    -1.7647 H       
  63 H63           10.5053    -1.8160    -3.7681 H       
  64 H64           15.0066    -2.0586    -2.0407 H       
  65 H65           18.2296    -2.8048     2.3362 H       
  66 H66           17.8396    -1.1565     2.9899 H       
  67 H67           16.5045    -3.8627     3.7372 H       
  68 H68           16.7880    -2.4191     4.8124 H       
  69 H69           15.3083    -1.0023     3.4598 H       
  70 H70           14.5197    -2.5787     3.0249 H       
@<TRIPOS>BOND
   1    1    2 1
   2    1    5 1
   3    1    9 1
   4    2    3 am
   5    2   12 1
   6    3    4 1
   7    3   18 2
   8    4    5 2
   9    4    6 1
  10    5   19 1
  11    6    7 2
  12    6    8 am
  13    8   20 1
  14    8   43 1
  15    9   10 1
  16    9   44 1
  17    9   45 1
  18   10   11 1
  19   10   46 1
  20   10   47 1
  21   11   48 1
  22   11   49 1
  23   11   50 1
  24   12   13 ar
  25   12   17 ar
  26   13   14 ar
  27   13   51 1
  28   14   15 ar
  29   14   52 1
  30   15   16 ar
  31   15   53 1
  32   16   17 ar
  33   16   54 1
  34   17   55 1
  35   19   56 1
  36   19   57 1
  37   19   58 1
  38   20   21 ar
  39   20   25 ar
  40   21   22 ar
  41   21   59 1
  42   22   23 ar
  43   22   26 1
  44   23   24 ar
  45   23   27 1
  46   24   25 ar
  47   24   60 1
  48   25   61 1
  49   27   30 1
  50   28   29 ar
  51   28   33 ar
  52   28   34 1
  53   29   30 ar
  54   29   36 1
  55   30   31 ar
  56   31   32 ar
  57   31   62 1
  58   32   33 ar
  59   32   63 1
  60   34   35 2
  61   34   64 1
  62   35   36 1
  63   35   37 1
  64   37   38 2
  65   37   39 am
  66   39   40 1
  67   39   42 1
  68   40   41 1
  69   40   65 1
  70   40   66 1
  71   41   42 1
  72   41   67 1
  73   41   68 1
  74   42   69 1
  75   42   70 1

#	End of record

