#	Name: ASD03330846
#	Creating user name:	WinNT
#	Creation time:	15. 06. 2019 20:38

#	Modifying user name:	WinNT
#	Modification time:	15. 06. 2019 20:38

#	Program:	/corina/corina34_cracker 3.40 0067  02.08.2006

@<TRIPOS>MOLECULE
ASD03330846
  61   63    0    0    0
SMALL
NO_CHARGES


@<TRIPOS>ATOM
   1 C1            -0.5212     1.8014    -0.6117 C.2     
   2 N2            -0.6453     0.4691    -0.8526 N.pl3   
   3 C3             0.8111     2.0708    -0.5288 C.2     
   4 N4             1.4791     0.9146    -0.7353 N.2     
   5 C5             0.6131    -0.0508    -0.9362 C.2     
   6 C6             0.9459    -1.4663    -1.2079 C.ar    
   7 C7             1.8997    -1.7882    -2.1789 C.ar    
   8 C8             1.4161     3.3877    -0.2623 C.2     
   9 O9             0.7056     4.3602    -0.0928 O.2     
  10 C10            3.3582     4.8240     0.0583 C.3     
  11 N11            2.7567     3.5146    -0.2065 N.am    
  12 C12            2.2116    -3.1127    -2.4336 C.ar    
  13 C13            1.5850    -4.1217    -1.7328 C.ar    
  14 C14            0.6299    -3.8127    -0.7598 C.ar    
  15 C15            0.3148    -2.4810    -0.4937 C.ar    
  16 C16           -1.9119    -0.2569    -0.9805 C.3     
  17 C17           -2.8442     0.5204    -1.9150 C.3     
  18 C18           -3.6426     1.5432    -1.1131 C.3     
  19 N19           -2.8524     2.0735    -0.0004 N.3     
  20 C20           -1.6578     2.7821    -0.4832 C.3     
  21 C21           -3.6687     2.9421     0.8581 C.3     
  22 C22            3.4198     5.0608     1.5687 C.3     
  23 C23            4.2242     3.9389     2.2284 C.3     
  24 C24            4.0958     6.4048     1.8470 C.3     
  25 C25            2.0009     5.0754     2.1409 C.3     
  26 C26            4.7520     4.8614    -0.5133 C.2     
  27 O27            5.3340     3.8264    -0.7606 O.2     
  28 N28            5.3519     6.0449    -0.7497 N.am    
  29 C29            6.6657     6.0839    -1.3966 C.3     
  30 F30            2.5172    -0.8050    -2.8696 F       
  31 C31           -0.0197    -4.8623    -0.0337 C.1     
  32 N32           -0.5350    -5.6949     0.5422 N.1     
  33 H33            2.7536     5.6024    -0.4071 H       
  34 H34            3.3233     2.7390    -0.3417 H       
  35 H35            2.9484    -3.3568    -3.1845 H       
  36 H36            1.8325    -5.1530    -1.9364 H       
  37 H37           -0.4221    -2.2378     0.2574 H       
  38 H38           -1.7238    -1.2474    -1.3949 H       
  39 H39           -2.3771    -0.3536     0.0004 H       
  40 H40           -2.2522     1.0352    -2.6717 H       
  41 H41           -3.5296    -0.1731    -2.4022 H       
  42 H42           -3.9328     2.3641    -1.7688 H       
  43 H43           -4.5404     1.0668    -0.7191 H       
  44 H44           -1.3862     3.5639     0.2261 H       
  45 H45           -1.8666     3.2275    -1.4560 H       
  46 H46           -4.5039     2.3710     1.2636 H       
  47 H47           -3.0573     3.3224     1.6765 H       
  48 H48           -4.0507     3.7775     0.2714 H       
  49 H49            5.2351     3.9285     1.8207 H       
  50 H50            4.2681     4.1076     3.3043 H       
  51 H51            3.7426     2.9814     2.0301 H       
  52 H52            3.5069     7.2068     1.4019 H       
  53 H53            4.1661     6.5601     2.9236 H       
  54 H54            5.0960     6.4050     1.4138 H       
  55 H55            1.5193     4.1179     1.9426 H       
  56 H56            2.0448     5.2441     3.2169 H       
  57 H57            1.4278     5.8746     1.6709 H       
  58 H58            4.9137     6.8709    -0.4915 H       
  59 H59            6.9876     7.1198    -1.5032 H       
  60 H60            7.3873     5.5401    -0.7869 H       
  61 H61            6.5998     5.6208    -2.3812 H       
@<TRIPOS>BOND
   1    1    2 1
   2    1    3 2
   3    1   20 1
   4    2   16 1
   5    2    5 1
   6    3    4 1
   7    3    8 1
   8    4    5 2
   9    5    6 1
  10    6    7 ar
  11    6   15 ar
  12    7   12 ar
  13    7   30 1
  14    8    9 2
  15    8   11 am
  16   10   11 1
  17   10   22 1
  18   10   26 1
  19   10   33 1
  20   11   34 1
  21   12   13 ar
  22   12   35 1
  23   13   14 ar
  24   13   36 1
  25   14   15 ar
  26   14   31 1
  27   15   37 1
  28   16   17 1
  29   16   38 1
  30   16   39 1
  31   17   18 1
  32   17   40 1
  33   17   41 1
  34   18   19 1
  35   18   42 1
  36   18   43 1
  37   19   20 1
  38   19   21 1
  39   20   44 1
  40   20   45 1
  41   21   46 1
  42   21   47 1
  43   21   48 1
  44   22   23 1
  45   22   24 1
  46   22   25 1
  47   23   49 1
  48   23   50 1
  49   23   51 1
  50   24   52 1
  51   24   53 1
  52   24   54 1
  53   25   55 1
  54   25   56 1
  55   25   57 1
  56   26   27 2
  57   26   28 am
  58   28   29 1
  59   28   58 1
  60   29   59 1
  61   29   60 1
  62   29   61 1
  63   31   32 3

#	End of record

