#	Name: ASD01820136
#	Creating user name:	WinNT
#	Creation time:	15. 06. 2019 19:36

#	Modifying user name:	WinNT
#	Modification time:	15. 06. 2019 19:36

#	Program:	/corina/corina34_cracker 3.40 0067  02.08.2006

@<TRIPOS>MOLECULE
ASD01820136
 112  124    0    0    0
SMALL
NO_CHARGES


@<TRIPOS>ATOM
   1 N1             0.0928     1.5255     0.2367 N.3     
   2 C2            -0.2024     0.1434     0.2692 C.3     
   3 C3             0.6717    -0.8375     1.0374 C.3     
   4 C4             2.0711    -0.2882     1.3357 C.3     
   5 N5             2.8704    -0.4299     0.1231 N.3     
   6 C6             2.6376     0.2659    -1.0818 C.3     
   7 C7             2.1044     1.6905    -1.0873 C.3     
   8 C8             1.4397     2.0917     0.2343 C.3     
   9 C9             2.8434    -1.2859     2.2434 C.3     
  10 C10            3.2703    -2.3463     1.3037 C.ar    
  11 C11            3.2709    -1.7549     0.0209 C.ar    
  12 C12            3.6309    -3.6639     1.4933 C.ar    
  13 C13            4.0005    -4.3981     0.3706 C.ar    
  14 C14            4.0013    -3.8274    -0.8867 C.ar    
  15 C15            3.6385    -2.5045    -1.0920 C.ar    
  16 C16            3.2931     2.6125    -1.3720 C.3     
  17 C17            2.8583     4.0638    -1.5190 C.3     
  18 C18            2.2190     4.4934    -0.2216 C.3     
  19 C19            1.0628     3.5982     0.1811 C.3     
  20 C20           -0.1534     3.6184    -0.6613 C.ar    
  21 C21           -0.7165     2.3274    -0.5570 C.ar    
  22 C22           -0.7429     4.6032    -1.4264 C.ar    
  23 C23           -1.9306     4.2859    -2.0772 C.ar    
  24 C24           -2.4961     3.0318    -1.9667 C.ar    
  25 C25           -1.9071     2.0272    -1.2121 C.ar    
  26 C26            0.8032     4.1200     1.6170 C.3     
  27 C27            4.2071     2.5022    -0.1674 C.2     
  28 N28            3.1255     4.4991     0.9329 N.4     
  29 C29            4.0792     3.4009     1.0037 C.3     
  30 C30            2.2490     4.3226     2.1380 C.3     
  31 H31            1.8350     5.5057    -0.3489 H       
  32 H32            2.0759     1.9345     1.0930 H       
  33 H33            1.3759     1.8034    -1.9003 H       
  34 H34            3.8130     2.2934    -2.2735 H       
  35 O35            3.8121     0.1717    -1.9207 O.3     
  36 C36            5.0452     1.4966    -0.2170 C.2     
  37 C37            5.0366     0.5387    -1.3343 C.3     
  38 H38            1.8690    -0.3393    -1.6127 H       
  39 H39            2.0491     0.6690     1.8413 H       
  40 O40           -1.5834    -0.0292     0.6706 O.3     
  41 C41            2.0643    -1.7217     3.4680 C.3     
  42 C42           -0.0447    -1.1622     2.3487 C.3     
  43 C43            0.6903    -2.2442     3.1294 C.3     
  44 H44            0.7685    -1.7660     0.4575 H       
  45 C45           -0.0368     0.1108     3.1687 C.2     
  46 C46            0.9796     0.3717     4.2157 C.3     
  47 N47            2.0765    -0.5680     4.3746 N.4     
  48 C48            4.0306    -0.5385     2.8985 C.3     
  49 C49            3.3323     0.1879     4.0759 C.3     
  50 H50            2.6210    -2.5276     3.9522 H       
  51 H51           -1.0657    -1.4834     2.1535 H       
  52 C52           -0.9897     0.9563     2.8692 C.2     
  53 C53           -1.9810     0.6896     1.8154 C.3     
  54 H54           -0.1726    -0.1859    -0.7880 H       
  55 C55            3.8295     5.7840     1.0170 C.3     
  56 C56            4.7549     5.7728     2.2064 C.2     
  57 C57            6.0284     6.0355     2.0479 C.2     
  58 C58            2.1162    -1.0430     5.7691 C.3     
  59 C59            2.1288     0.1400     6.7026 C.2     
  60 C60            1.2220     0.2425     7.6424 C.2     
  61 C61           -2.6163     5.3338    -2.9159 C.3     
  62 C62           -3.7914     2.7468    -2.6844 C.3     
  63 C63            4.4118    -4.6668    -2.0699 C.3     
  64 C64            4.4096    -5.8399     0.5299 C.3     
  65 H65            3.6306    -4.1061     2.4766 H       
  66 H66            3.6434    -2.0791    -2.0830 H       
  67 H67            3.7237     4.6912    -1.7339 H       
  68 H68            2.1336     4.1519    -2.3303 H       
  69 H69           -0.3012     5.5832    -1.5119 H       
  70 H70           -2.3616     1.0523    -1.1414 H       
  71 H71            0.2642     5.0648     1.5933 H       
  72 H72            0.2777     3.3767     2.2121 H       
  73 H73            3.8443     2.7856     1.8676 H       
  74 H74            5.0639     3.8409     1.1853 H       
  75 H75            2.2920     5.2244     2.7529 H       
  76 H76            2.5551     3.4618     2.7240 H       
  77 H77            5.7600     1.3624     0.5765 H       
  78 H78            5.5230    -0.3722    -0.9879 H       
  79 H79            5.6654     0.9538    -2.1218 H       
  80 H80            0.7814    -3.1424     2.5174 H       
  81 H81            0.1443    -2.4760     4.0434 H       
  82 H82            1.3952     1.3604     4.0307 H       
  83 H83            0.4545     0.4254     5.1730 H       
  84 H84            4.7751    -1.2419     3.2653 H       
  85 H85            4.4692     0.1773     2.2079 H       
  86 H86            3.1106     1.2147     3.7941 H       
  87 H87            3.9863     0.1769     4.9507 H       
  88 H88           -1.0529     1.8851     3.4128 H       
  89 H89           -2.3793     1.6472     1.4847 H       
  90 H90           -2.8056     0.1424     2.2745 H       
  91 H91            4.4089     5.9410     0.1073 H       
  92 H92            3.1036     6.5894     1.1290 H       
  93 H93            4.3681     5.5483     3.1894 H       
  94 H94            6.4152     6.2600     1.0648 H       
  95 H95            6.6916     6.0275     2.9002 H       
  96 H96            1.2366    -1.6547     5.9697 H       
  97 H97            3.0159    -1.6383     5.9247 H       
  98 H98            2.8856     0.9032     6.5968 H       
  99 H99            0.4653    -0.5208     7.7482 H       
 100 H100           1.2311     1.0903     8.3113 H       
 101 H101          -2.3285     5.2092    -3.9598 H       
 102 H102          -3.6967     5.2250    -2.8214 H       
 103 H103          -2.3196     6.3250    -2.5730 H       
 104 H104          -3.5805     2.4597    -3.7145 H       
 105 H105          -4.3148     1.9342    -2.1806 H       
 106 H106          -4.4153     3.6406    -2.6768 H       
 107 H107           3.5559    -5.2433    -2.4208 H       
 108 H108           4.7656    -4.0175    -2.8707 H       
 109 H109           5.2107    -5.3465    -1.7735 H       
 110 H110           3.5518    -6.4844     0.3375 H       
 111 H111           5.2048    -6.0724    -0.1783 H       
 112 H112           4.7679    -6.0057     1.5459 H       
@<TRIPOS>BOND
   1    1    2 1
   2    1    8 1
   3    1   21 1
   4    2    3 1
   5    2   40 1
   6    2   54 1
   7    3    4 1
   8    3   44 1
   9    3   42 1
  10    4    5 1
  11    4    9 1
  12    4   39 1
  13    5    6 1
  14    5   11 1
  15    6    7 1
  16    6   35 1
  17    6   38 1
  18    7    8 1
  19    7   33 1
  20    7   16 1
  21    8   19 1
  22    8   32 1
  23    9   10 1
  24    9   41 1
  25    9   48 1
  26   10   11 ar
  27   10   12 ar
  28   11   15 ar
  29   12   13 ar
  30   12   65 1
  31   13   14 ar
  32   13   64 1
  33   14   15 ar
  34   14   63 1
  35   15   66 1
  36   16   17 1
  37   16   27 1
  38   16   34 1
  39   17   18 1
  40   17   67 1
  41   17   68 1
  42   18   19 1
  43   18   28 1
  44   18   31 1
  45   19   20 1
  46   19   26 1
  47   20   21 ar
  48   20   22 ar
  49   21   25 ar
  50   22   23 ar
  51   22   69 1
  52   23   24 ar
  53   23   61 1
  54   24   25 ar
  55   24   62 1
  56   25   70 1
  57   26   30 1
  58   26   71 1
  59   26   72 1
  60   27   36 2
  61   27   29 1
  62   28   29 1
  63   28   55 1
  64   28   30 1
  65   29   73 1
  66   29   74 1
  67   30   75 1
  68   30   76 1
  69   35   37 1
  70   36   37 1
  71   36   77 1
  72   37   78 1
  73   37   79 1
  74   40   53 1
  75   41   47 1
  76   41   50 1
  77   41   43 1
  78   42   43 1
  79   42   45 1
  80   42   51 1
  81   43   80 1
  82   43   81 1
  83   45   46 1
  84   45   52 2
  85   46   47 1
  86   46   82 1
  87   46   83 1
  88   47   58 1
  89   47   49 1
  90   48   49 1
  91   48   84 1
  92   48   85 1
  93   49   86 1
  94   49   87 1
  95   52   53 1
  96   52   88 1
  97   53   89 1
  98   53   90 1
  99   55   56 1
 100   55   91 1
 101   55   92 1
 102   56   57 2
 103   56   93 1
 104   57   94 1
 105   57   95 1
 106   58   59 1
 107   58   96 1
 108   58   97 1
 109   59   60 2
 110   59   98 1
 111   60   99 1
 112   60  100 1
 113   61  101 1
 114   61  102 1
 115   61  103 1
 116   62  104 1
 117   62  105 1
 118   62  106 1
 119   63  107 1
 120   63  108 1
 121   63  109 1
 122   64  110 1
 123   64  111 1
 124   64  112 1

#	End of record

