#	Name: ASD02030481
#	Creating user name:	WinNT
#	Creation time:	15. 06. 2019 20:15

#	Modifying user name:	WinNT
#	Modification time:	15. 06. 2019 20:15

#	Program:	/corina/corina34_cracker 3.40 0067  02.08.2006

@<TRIPOS>MOLECULE
ASD02030481
  21   22    0    0    0
SMALL
NO_CHARGES


@<TRIPOS>ATOM
   1 N1            -0.0154     1.2843     0.0091 N.pl3   
   2 N2             0.0021    -0.0041     0.0020 N.2     
   3 C3             1.2544    -0.4090    -0.0121 C.2     
   4 N4             2.0428     0.6819    -0.0138 N.2     
   5 C5             1.2581     1.7290    -0.0007 C.2     
   6 C6             1.7135    -1.8128    -0.0233 C.2     
   7 O7             0.9024    -2.7172    -0.0197 O.2     
   8 O8             3.0318    -2.0903    -0.0375 O.3     
   9 C9            -1.1638     2.0881     0.0191 C.ar    
  10 C10           -2.4249     1.5015     0.0226 C.ar    
  11 C11           -3.5560     2.2971     0.0325 C.ar    
  12 C12           -3.4342     3.6744     0.0383 C.ar    
  13 C13           -2.1801     4.2613     0.0344 C.ar    
  14 C14           -1.0447     3.4705     0.0313 C.ar    
  15 F15           -2.0650     5.6074     0.0397 F       
  16 F16           -2.5447     0.1559     0.0160 F       
  17 H17            1.5730     2.7620     0.0016 H       
  18 H18            3.2839    -3.0238    -0.0444 H       
  19 H19           -4.5355     1.8421     0.0352 H       
  20 H20           -4.3191     4.2936     0.0456 H       
  21 H21           -0.0668     3.9288     0.0330 H       
@<TRIPOS>BOND
   1    1    2 1
   2    1    5 1
   3    1    9 1
   4    2    3 2
   5    3    4 1
   6    3    6 1
   7    4    5 2
   8    5   17 1
   9    6    7 2
  10    6    8 1
  11    8   18 1
  12    9   10 ar
  13    9   14 ar
  14   10   11 ar
  15   10   16 1
  16   11   12 ar
  17   11   19 1
  18   12   13 ar
  19   12   20 1
  20   13   14 ar
  21   13   15 1
  22   14   21 1

#	End of record

