#	Name: ASD01151007
#	Creating user name:	WinNT
#	Creation time:	15. 06. 2019 19:05

#	Modifying user name:	WinNT
#	Modification time:	15. 06. 2019 19:05

#	Program:	/corina/corina34_cracker 3.40 0067  02.08.2006

@<TRIPOS>MOLECULE
ASD01151007
  22   21    0    0    0
SMALL
NO_CHARGES


@<TRIPOS>ATOM
   1 C1            -0.0165     1.5015     0.0210 C.3     
   2 C2            -0.0008    -0.0052    -0.0047 C.2     
   3 C3            -0.8710     2.0225    -1.1363 C.3     
   4 C4            -0.6070     1.9829     1.3478 C.3     
   5 O5            -0.9946    -0.6978     0.5788 O.3     
   6 N6             0.9778    -0.6379    -0.5936 N.2     
   7 C7            -0.9142    -2.1462     0.5153 C.3     
   8 C8            -2.1232    -2.7558     1.2278 C.3     
   9 C9             1.9201     0.0565    -1.2760 C.1     
  10 N10            2.7102     0.6388    -1.8481 N.1     
  11 H11            1.0016     1.8773    -0.0812 H       
  12 H12           -1.8646     1.5775    -1.0833 H       
  13 H13           -0.9544     3.1071    -1.0669 H       
  14 H14           -0.4027     1.7540    -2.0833 H       
  15 H15            0.0018     1.6118     2.1723 H       
  16 H16           -0.6183     3.0727     1.3664 H       
  17 H17           -1.6250     1.6072     1.4501 H       
  18 H18           -0.9083    -2.4644    -0.5272 H       
  19 H19            0.0015    -2.4810     1.0026 H       
  20 H20           -2.1291    -2.4376     2.2703 H       
  21 H21           -3.0390    -2.4210     0.7405 H       
  22 H22           -2.0629    -3.8431     1.1801 H       
@<TRIPOS>BOND
   1    1    2 1
   2    1    3 1
   3    1    4 1
   4    1   11 1
   5    2    5 1
   6    2    6 2
   7    3   12 1
   8    3   13 1
   9    3   14 1
  10    4   15 1
  11    4   16 1
  12    4   17 1
  13    5    7 1
  14    6    9 1
  15    7    8 1
  16    7   18 1
  17    7   19 1
  18    8   20 1
  19    8   21 1
  20    8   22 1
  21    9   10 3

#	End of record

