#	Name: ASD08170073
#	Creating user name:	WinNT
#	Creation time:	15. 06. 2019 21:17

#	Modifying user name:	WinNT
#	Modification time:	15. 06. 2019 21:17

#	Program:	/corina/corina34_cracker 3.40 0067  02.08.2006

@<TRIPOS>MOLECULE
ASD08170073
  60   63    0    0    0
SMALL
NO_CHARGES


@<TRIPOS>ATOM
   1 N1            -0.0150     1.2583     0.0090 N.2     
   2 N2             0.0021    -0.0041     0.0020 N.2     
   3 C3             1.1271     1.8769     0.0014 C.2     
   4 S4             2.3826     0.7116    -0.0169 S.3     
   5 C5             1.1681    -0.5677    -0.0121 C.2     
   6 C6             1.4387    -2.0502    -0.0227 C.3     
   7 C7             1.5165    -2.5442    -1.4687 C.3     
   8 C8             1.8690    -4.5432    -2.9254 C.3     
   9 C9             2.1395    -6.0257    -2.9359 C.2     
  10 N10            1.2478    -6.9651    -2.9329 N.2     
  11 S11            3.7275    -6.7933    -2.9623 S.3     
  12 C12            2.9647    -8.3272    -2.9581 C.2     
  13 N13            1.6777    -8.1521    -2.9433 N.2     
  14 N14            3.6154    -9.5562    -2.9730 N.am    
  15 C15            2.8993   -10.6980    -2.9678 C.2     
  16 O16            1.6874   -10.6536    -2.9501 O.2     
  17 C17            3.6044   -12.0297    -2.9839 C.3     
  18 N18            1.3017     3.2566     0.0067 N.am    
  19 C19            0.2284     4.0717     0.0214 C.2     
  20 C20            0.4176     5.5667     0.0272 C.3     
  21 O21           -0.8897     3.6019     0.0299 O.2     
  22 C22            1.7912    -4.0493    -1.4794 C.3     
  23 C23            2.6802   -13.1047    -3.5879 C.3     
  24 C24           -0.8135     6.2483     0.6552 C.3     
  25 C25           -0.2377     7.0433     1.8523 C.3     
  26 C26            1.2571     7.1765     1.4647 C.3     
  27 O27            1.5556     5.9123     0.8345 O.3     
  28 O28            4.7732   -11.9539    -3.8172 O.3     
  29 C29            4.9270   -13.2444    -4.4461 C.3     
  30 C30            3.4735   -13.6494    -4.8005 C.3     
  31 C31            0.6183     6.0710    -1.4033 C.3     
  32 C32            4.0015   -12.4252    -1.5602 C.3     
  33 H33            2.3843    -2.2506     0.4811 H       
  34 H34            0.6334    -2.5702     0.4961 H       
  35 H35            0.5709    -2.3438    -1.9724 H       
  36 H36            2.3218    -2.0242    -1.9874 H       
  37 H37            2.6743    -4.0232    -3.4441 H       
  38 H38            0.9234    -4.3429    -3.4291 H       
  39 H39            4.5846    -9.5917    -2.9871 H       
  40 H40            2.1959     3.6323    -0.0001 H       
  41 H41            2.7368    -4.2496    -0.9756 H       
  42 H42            0.9858    -4.5693    -0.9606 H       
  43 H43            2.4956   -13.8992    -2.8648 H       
  44 H44            1.7406   -12.6598    -3.9154 H       
  45 H45           -1.2826     6.9232    -0.0607 H       
  46 H46           -1.5279     5.5014     1.0014 H       
  47 H47           -0.7081     8.0234     1.9307 H       
  48 H48           -0.3504     6.4838     2.7810 H       
  49 H49            1.3999     7.9983     0.7631 H       
  50 H50            1.8728     7.3174     2.3530 H       
  51 H51            5.5333   -13.1620    -5.3481 H       
  52 H52            5.3663   -13.9601    -3.7511 H       
  53 H53            3.3782   -14.7329    -4.8728 H       
  54 H54            3.1502   -13.1694    -5.7242 H       
  55 H55           -0.2625     5.8326    -1.9996 H       
  56 H56            0.7668     7.1508    -1.3904 H       
  57 H57            1.4934     5.5891    -1.8391 H       
  58 H58            3.1065   -12.5111    -0.9440 H       
  59 H59            4.5217   -13.3829    -1.5808 H       
  60 H60            4.6591   -11.6634    -1.1415 H       
@<TRIPOS>BOND
   1    1    2 1
   2    1    3 2
   3    2    5 2
   4    3    4 1
   5    3   18 1
   6    4    5 1
   7    5    6 1
   8    6    7 1
   9    6   33 1
  10    6   34 1
  11    7   22 1
  12    7   35 1
  13    7   36 1
  14    8    9 1
  15    8   22 1
  16    8   37 1
  17    8   38 1
  18    9   10 2
  19    9   11 1
  20   10   13 1
  21   11   12 1
  22   12   13 2
  23   12   14 1
  24   14   15 am
  25   14   39 1
  26   15   16 2
  27   15   17 1
  28   17   23 1
  29   17   28 1
  30   17   32 1
  31   18   19 am
  32   18   40 1
  33   19   20 1
  34   19   21 2
  35   20   24 1
  36   20   31 1
  37   20   27 1
  38   22   41 1
  39   22   42 1
  40   23   30 1
  41   23   43 1
  42   23   44 1
  43   24   25 1
  44   24   45 1
  45   24   46 1
  46   25   26 1
  47   25   47 1
  48   25   48 1
  49   26   27 1
  50   26   49 1
  51   26   50 1
  52   28   29 1
  53   29   30 1
  54   29   51 1
  55   29   52 1
  56   30   53 1
  57   30   54 1
  58   31   55 1
  59   31   56 1
  60   31   57 1
  61   32   58 1
  62   32   59 1
  63   32   60 1

#	End of record

