#	Name: ASD01208984
#	Creating user name:	WinNT
#	Creation time:	15. 06. 2019 19:10

#	Modifying user name:	WinNT
#	Modification time:	15. 06. 2019 19:10

#	Program:	/corina/corina34_cracker 3.40 0067  02.08.2006

@<TRIPOS>MOLECULE
ASD01208984
  54   56    0    0    0
SMALL
NO_CHARGES


@<TRIPOS>ATOM
   1 C1            -0.0187     1.5275     0.0104 C.3     
   2 C2             0.0021    -0.0041     0.0020 C.3     
   3 C3            -1.4312    -0.5350    -0.0664 C.3     
   4 C4            -1.4162    -2.0604     0.0508 C.3     
   5 C5            -2.8132    -2.5927    -0.1394 C.2     
   6 N6            -3.4713    -2.3612    -1.2925 N.am    
   7 C7            -4.7608    -2.8525    -1.4680 C.2     
   8 N8            -0.9239    -2.4435     1.3763 N.pl3   
   9 C9            -1.6638    -2.5399     2.5007 C.2     
  10 C10           -0.8404    -2.9196     3.5051 C.2     
  11 C11            0.4469    -3.0601     2.9764 C.2     
  12 N12            0.3970    -2.7803     1.6992 N.2     
  13 O13           -3.3452    -3.2293     0.7453 O.2     
  14 S14           -5.7488    -2.6359    -2.9103 S.3     
  15 C15           -7.0486    -3.5544    -2.1536 C.2     
  16 C16           -6.6439    -3.9267    -0.9373 C.2     
  17 N17           -5.4258    -3.5482    -0.5976 N.2     
  18 F18           -8.2483    -3.8333    -2.7087 F       
  19 C19            0.7862    -0.4864    -1.2223 C.3     
  20 C20            2.1942     0.1136    -1.1856 C.3     
  21 O21            2.1023     1.5392    -1.1479 O.3     
  22 C22            1.4204     2.0497    -0.0005 C.3     
  23 S23           -1.3073    -3.1895     5.1825 S.o2    
  24 O24           -0.1158    -2.9537     5.9202 O.2     
  25 O25           -2.4547    -2.3708     5.3629 O.2     
  26 C26           -1.7606    -4.9446     5.2495 C.3     
  27 C27           -0.5562    -5.7982     4.8475 C.3     
  28 C28           -2.1899    -5.3065     6.6727 C.3     
  29 C29           -2.9182    -5.2095     4.2847 C.3     
  30 H30           -0.5443     1.8896    -0.8732 H       
  31 H31           -0.5273     1.8800     0.9078 H       
  32 H32            0.4824    -0.3672     0.9106 H       
  33 H33           -2.0143    -0.1134     0.7523 H       
  34 H34           -1.8799    -0.2481    -1.0175 H       
  35 H35           -0.7613    -2.4772    -0.7145 H       
  36 H36           -3.0458    -1.8520    -2.0000 H       
  37 H37           -2.7234    -2.3480     2.5841 H       
  38 H38            1.3289    -3.3533     3.5264 H       
  39 H39           -7.2715    -4.5045    -0.2749 H       
  40 H40            0.8533    -1.5742    -1.2065 H       
  41 H41            0.2769    -0.1650    -2.1308 H       
  42 H42            2.7172    -0.2406    -0.2973 H       
  43 H43            2.7428    -0.1919    -2.0766 H       
  44 H44            1.4115     3.1390    -0.0377 H       
  45 H45            1.9333     1.7209     0.9033 H       
  46 H46            0.2685    -5.6095     5.5348 H       
  47 H47           -0.8286    -6.8528     4.8877 H       
  48 H48           -0.2503    -5.5403     3.8335 H       
  49 H49           -3.0480    -4.6984     6.9591 H       
  50 H50           -2.4623    -6.3612     6.7129 H       
  51 H51           -1.3653    -5.1178     7.3600 H       
  52 H52           -2.6124    -4.9517     3.2708 H       
  53 H53           -3.1906    -6.2641     4.3249 H       
  54 H54           -3.7763    -4.6014     4.5711 H       
@<TRIPOS>BOND
   1    1    2 1
   2    1   22 1
   3    1   30 1
   4    1   31 1
   5    2    3 1
   6    2   19 1
   7    2   32 1
   8    3    4 1
   9    3   33 1
  10    3   34 1
  11    4    5 1
  12    4    8 1
  13    4   35 1
  14    5    6 am
  15    5   13 2
  16    6    7 1
  17    6   36 1
  18    7   14 1
  19    7   17 2
  20    8    9 1
  21    8   12 1
  22    9   10 2
  23    9   37 1
  24   10   11 1
  25   10   23 1
  26   11   12 2
  27   11   38 1
  28   14   15 1
  29   15   16 2
  30   15   18 1
  31   16   17 1
  32   16   39 1
  33   19   20 1
  34   19   40 1
  35   19   41 1
  36   20   21 1
  37   20   42 1
  38   20   43 1
  39   21   22 1
  40   22   44 1
  41   22   45 1
  42   23   24 2
  43   23   25 2
  44   23   26 1
  45   26   27 1
  46   26   29 1
  47   26   28 1
  48   27   46 1
  49   27   47 1
  50   27   48 1
  51   28   49 1
  52   28   50 1
  53   28   51 1
  54   29   52 1
  55   29   53 1
  56   29   54 1

#	End of record

