#	Name: ASD00960021
#	Creating user name:	WinNT
#	Creation time:	15. 06. 2019 18:53

#	Modifying user name:	WinNT
#	Modification time:	15. 06. 2019 18:53

#	Program:	/corina/corina34_cracker 3.40 0067  02.08.2006

@<TRIPOS>MOLECULE
ASD00960021
  38   40    0    0    0
SMALL
NO_CHARGES


@<TRIPOS>ATOM
   1 C1            -0.0292     1.4559     0.1506 C.3     
   2 C2            -0.0584    -0.0889     0.1597 C.3     
   3 C3            -0.8390    -0.4421     1.4451 C.3     
   4 O4            -1.6480     0.7230     1.7173 O.3     
   5 C5            -0.7956     1.8533     1.4316 C.3     
   6 C6            -1.6380     3.1058     1.1814 C.3     
   7 F7             1.2889     1.9216     0.2036 F       
   8 C8            -0.7908    -0.6185    -1.0748 C.3     
   9 C9            -1.7148    -1.6463     1.2129 C.2     
  10 C10           -1.3179    -2.9420     1.3196 C.2     
  11 N11           -3.0164    -1.6108     0.8724 N.pl3   
  12 C12           -3.4736    -2.9089     0.7495 C.2     
  13 C13           -2.4159    -3.7527     1.0279 C.2     
  14 N14           -3.9188    -0.5634     0.6397 N.2     
  15 C15           -5.1550    -0.8259     0.3162 C.2     
  16 N16           -5.6097    -2.0719     0.1941 N.2     
  17 C17           -4.8262    -3.1184     0.3950 C.2     
  18 O18           -2.3044     3.4807     2.3886 O.3     
  19 N19           -5.3232    -4.3992     0.2617 N.pl3   
  20 C20           -2.4423    -5.2594     1.0175 C.3     
  21 O21            1.2692    -0.6145     0.2165 O.3     
  22 *22            2.0738    -0.2605    -0.8859 Du      
  23 H23           -0.5344     1.8422    -0.7346 H       
  24 H24           -0.1497    -0.6263     2.2691 H       
  25 H25           -0.0997     2.0211     2.2536 H       
  26 H26           -0.9906     3.9200     0.8559 H       
  27 H27           -2.3772     2.8979     0.4078 H       
  28 H28           -0.2632    -0.3011    -1.9743 H       
  29 H29           -0.8239    -1.7074    -1.0383 H       
  30 H30           -1.8069    -0.2244    -1.0914 H       
  31 H31           -0.3279    -3.2837     1.5834 H       
  32 H32           -5.8337    -0.0041     0.1417 H       
  33 H33           -2.8581     4.2689     2.3037 H       
  34 H34           -6.2733    -4.5389     0.1246 H       
  35 H35           -4.7225    -5.1595     0.3050 H       
  36 H36           -2.2879    -5.6185    -0.0000 H       
  37 H37           -1.6501    -5.6411     1.6616 H       
  38 H38           -3.4079    -5.6084     1.3834 H       
@<TRIPOS>BOND
   1    1    2 1
   2    1    7 1
   3    1    5 1
   4    1   23 1
   5    2    8 1
   6    2   21 1
   7    2    3 1
   8    3    4 1
   9    3    9 1
  10    3   24 1
  11    4    5 1
  12    5    6 1
  13    5   25 1
  14    6   18 1
  15    6   26 1
  16    6   27 1
  17    8   28 1
  18    8   29 1
  19    8   30 1
  20    9   10 2
  21    9   11 1
  22   10   13 1
  23   10   31 1
  24   11   12 1
  25   11   14 1
  26   12   13 2
  27   12   17 1
  28   13   20 1
  29   14   15 2
  30   15   16 1
  31   15   32 1
  32   16   17 2
  33   17   19 1
  34   18   33 1
  35   19   34 1
  36   19   35 1
  37   20   36 1
  38   20   37 1
  39   20   38 1
  40   21   22 1

#	End of record

