#	Name: ASD01881601
#	Creating user name:	WinNT
#	Creation time:	15. 06. 2019 19:43

#	Modifying user name:	WinNT
#	Modification time:	15. 06. 2019 19:43

#	Program:	/corina/corina34_cracker 3.40 0067  02.08.2006

@<TRIPOS>MOLECULE
ASD01881601
  56   59    0    0    0
SMALL
NO_CHARGES


@<TRIPOS>ATOM
   1 C1            -0.0170     1.4011     0.0097 C.ar    
   2 C2             0.0021    -0.0041     0.0020 C.ar    
   3 C3             1.2352    -0.6605    -0.0133 C.ar    
   4 C4             2.3882     0.1049    -0.0203 C.ar    
   5 C5             2.2901     1.4874    -0.0119 C.ar    
   6 N6             1.1193     2.0873     0.0026 N.ar    
   7 C7            -1.2688     2.0963     0.0195 C.1     
   8 N8            -2.2619     2.6479     0.0272 N.1     
   9 C9             3.7406    -0.5600    -0.0363 C.3     
  10 C10           -1.2631    -0.7756     0.0105 C.ar    
  11 C11           -2.2551    -0.4831     0.9460 C.ar    
  12 C12           -3.4312    -1.2046     0.9487 C.ar    
  13 C13           -3.6273    -2.2166     0.0257 C.ar    
  14 C14           -2.6468    -2.5115    -0.9042 C.ar    
  15 C15           -1.4686    -1.7929    -0.9204 C.ar    
  16 C16           -4.5040    -0.8902     1.9592 C.3     
  17 O17           -5.3889     0.0957     1.4233 O.3     
  18 N18           -9.6259     1.8716     4.4064 N.pl3   
  19 N19          -10.1208     2.7717     3.4511 N.2     
  20 N20           -9.3752     2.7371     2.4035 N.2     
  21 C21           -8.3721     1.8524     2.5713 C.ar    
  22 C22           -8.5125     1.2846     3.8495 C.ar    
  23 C23           -7.3097     1.4434     1.7536 C.ar    
  24 C24           -6.4208     0.4942     2.2143 C.ar    
  25 C25           -6.5729    -0.0591     3.4833 C.ar    
  26 C26           -7.6045     0.3289     4.2910 C.ar    
  27 C27          -10.1809     1.6121     5.7371 C.3     
  28 C28          -11.2061     0.4797     5.6501 C.3     
  29 C29          -10.5246    -0.7860     5.1262 C.3     
  30 C30          -11.7858     0.2088     7.0399 C.3     
  31 C31          -12.3330     0.8839     4.6975 C.3     
  32 Br32          -7.0955     2.1890     0.0290 Br      
  33 H33            1.2875    -1.7393    -0.0193 H       
  34 H34            3.1910     2.0830    -0.0173 H       
  35 H35            4.0570    -0.7151    -1.0678 H       
  36 H36            4.4641     0.0758     0.4740 H       
  37 H37            3.6788    -1.5215     0.4733 H       
  38 H38           -2.1030     0.3063     1.6671 H       
  39 H39           -4.5495    -2.7786     0.0316 H       
  40 H40           -2.8054    -3.3028    -1.6220 H       
  41 H41           -0.7056    -2.0211    -1.6499 H       
  42 H42           -5.0651    -1.7964     2.1874 H       
  43 H43           -4.0440    -0.5085     2.8707 H       
  44 H44           -5.8701    -0.8016     3.8316 H       
  45 H45           -7.7139    -0.1063     5.2734 H       
  46 H46           -9.3781     1.3242     6.4158 H       
  47 H47          -10.6664     2.5138     6.1104 H       
  48 H48           -9.7218    -1.0740     5.8049 H       
  49 H49          -11.2550    -1.5928     5.0642 H       
  50 H50          -10.1117    -0.5930     4.1361 H       
  51 H51          -12.2712     1.1105     7.4132 H       
  52 H52          -12.5161    -0.5980     6.9780 H       
  53 H53          -10.9829    -0.0792     7.7186 H       
  54 H54          -11.9200     1.0770     3.7074 H       
  55 H55          -13.0633     0.0772     4.6355 H       
  56 H56          -12.8184     1.7856     5.0708 H       
@<TRIPOS>BOND
   1    1    2 ar
   2    1    6 ar
   3    1    7 1
   4    2    3 ar
   5    2   10 1
   6    3    4 ar
   7    3   33 1
   8    4    5 ar
   9    4    9 1
  10    5    6 ar
  11    5   34 1
  12    7    8 3
  13    9   35 1
  14    9   36 1
  15    9   37 1
  16   10   11 ar
  17   10   15 ar
  18   11   12 ar
  19   11   38 1
  20   12   13 ar
  21   12   16 1
  22   13   14 ar
  23   13   39 1
  24   14   15 ar
  25   14   40 1
  26   15   41 1
  27   16   17 1
  28   16   42 1
  29   16   43 1
  30   17   24 1
  31   18   19 1
  32   18   22 1
  33   18   27 1
  34   19   20 2
  35   20   21 1
  36   21   22 ar
  37   21   23 ar
  38   22   26 ar
  39   23   24 ar
  40   23   32 1
  41   24   25 ar
  42   25   26 ar
  43   25   44 1
  44   26   45 1
  45   27   28 1
  46   27   46 1
  47   27   47 1
  48   28   29 1
  49   28   30 1
  50   28   31 1
  51   29   48 1
  52   29   49 1
  53   29   50 1
  54   30   51 1
  55   30   52 1
  56   30   53 1
  57   31   54 1
  58   31   55 1
  59   31   56 1

#	End of record

