#	Name: ASD02500598
#	Creating user name:	WinNT
#	Creation time:	15. 06. 2019 20:23

#	Modifying user name:	WinNT
#	Modification time:	15. 06. 2019 20:23

#	Program:	/corina/corina34_cracker 3.40 0067  02.08.2006

@<TRIPOS>MOLECULE
ASD02500598
  66   70    0    0    0
SMALL
NO_CHARGES


@<TRIPOS>ATOM
   1 N1            -3.5229     5.5737     0.0036 N.ar    
   2 C2            -4.6500     6.2117    -0.1986 C.ar    
   3 C3            -5.7652     6.0047     0.6108 C.ar    
   4 C4            -5.7002     5.1170     1.6467 C.ar    
   5 C5            -4.4883     4.4334     1.8606 C.ar    
   6 C6            -4.3462     3.5066     2.9054 C.ar    
   7 C7            -3.1572     2.8660     3.0796 C.ar    
   8 C8            -2.0787     3.1184     2.2346 C.ar    
   9 C9            -2.1816     4.0105     1.2118 C.ar    
  10 C10           -3.3927     4.6917     0.9997 C.ar    
  11 S11           -0.8016     4.3111     0.1584 S.o2    
  12 O12           -0.6455     5.7221     0.0943 O.2     
  13 O13            0.2302     3.4338     0.5885 O.2     
  14 N14           -1.2301     3.8184    -1.3635 N.am    
  15 C15           -1.4382     2.4686    -1.6244 C.ar    
  16 C16           -1.1105     1.9436    -2.8717 C.ar    
  17 C17           -1.3153     0.6083    -3.1330 C.ar    
  18 C18           -1.8529    -0.2215    -2.1445 C.ar    
  19 C19           -2.1808     0.3086    -0.8934 C.ar    
  20 C20           -1.9683     1.6439    -0.6363 C.ar    
  21 C21           -2.0741    -1.6535    -2.4215 C.2     
  22 O22           -2.5058    -2.0039    -3.5029 O.2     
  23 N23           -1.7977    -2.5733    -1.4760 N.am    
  24 C24           -1.9232    -4.0106    -1.7616 C.3     
  25 C25           -0.6215    -4.7048    -1.3470 C.3     
  26 N26           -0.3176    -4.3735     0.0516 N.3     
  27 C27           -0.0830    -2.9331     0.2191 C.3     
  28 C28           -1.3568    -2.1665    -0.1331 C.3     
  29 C29            0.8270    -5.1537     0.5406 C.3     
  30 C30            1.2635    -4.6195     1.8804 C.ar    
  31 C31            0.7090    -5.1374     3.0359 C.ar    
  32 C32            1.1177    -4.6392     4.2633 C.ar    
  33 C33            2.0731    -3.6343     4.2828 C.ar    
  34 C34            2.5824    -3.1662     3.0866 C.ar    
  35 N35            2.1737    -3.6672     1.9372 N.ar    
  36 C36           -0.3270    -6.2293     2.9622 C.3     
  37 F37           -0.7286    -6.5791     4.2558 F       
  38 F38           -1.4336    -5.7740     2.2374 F       
  39 F39            0.2196    -7.3484     2.3250 F       
  40 C40           -0.5315     2.8388    -3.9367 C.3     
  41 H41           -4.7160     6.9168    -1.0140 H       
  42 H42           -6.6799     6.5461     0.4195 H       
  43 H43           -6.5548     4.9446     2.2842 H       
  44 H44           -5.1749     3.3031     3.5674 H       
  45 H45           -3.0488     2.1532     3.8837 H       
  46 H46           -1.1459     2.5980     2.3939 H       
  47 H47           -1.3359     4.4715    -2.0728 H       
  48 H48           -1.0612     0.2017    -4.1007 H       
  49 H49           -2.5963    -0.3299    -0.1278 H       
  50 H50           -2.2171     2.0531     0.3317 H       
  51 H51           -2.7562    -4.4254    -1.1939 H       
  52 H52           -2.0935    -4.1586    -2.8280 H       
  53 H53           -0.7364    -5.7839    -1.4485 H       
  54 H54            0.1924    -4.3635    -1.9867 H       
  55 H55            0.1926    -2.7274     1.2535 H       
  56 H56            0.7234    -2.6165    -0.4424 H       
  57 H57           -1.1527    -1.0958    -0.1234 H       
  58 H58           -2.1342    -2.4006     0.5941 H       
  59 H59            0.5367    -6.1993     0.6434 H       
  60 H60            1.6510    -5.0735    -0.1685 H       
  61 H61            0.7017    -5.0244     5.1825 H       
  62 H62            2.4146    -3.2226     5.2210 H       
  63 H63            3.3268    -2.3837     3.0932 H       
  64 H64            0.5555     2.8437    -3.8558 H       
  65 H65           -0.8210     2.4679    -4.9200 H       
  66 H66           -0.9102     3.8524    -3.8048 H       
@<TRIPOS>BOND
   1    1    2 ar
   2    1   10 ar
   3    2    3 ar
   4    2   41 1
   5    3    4 ar
   6    3   42 1
   7    4    5 ar
   8    4   43 1
   9    5    6 ar
  10    5   10 ar
  11    6    7 ar
  12    6   44 1
  13    7    8 ar
  14    7   45 1
  15    8    9 ar
  16    8   46 1
  17    9   10 ar
  18    9   11 1
  19   11   12 2
  20   11   13 2
  21   11   14 am
  22   14   15 1
  23   14   47 1
  24   15   16 ar
  25   15   20 ar
  26   16   17 ar
  27   16   40 1
  28   17   18 ar
  29   17   48 1
  30   18   19 ar
  31   18   21 1
  32   19   20 ar
  33   19   49 1
  34   20   50 1
  35   21   22 2
  36   21   23 am
  37   23   24 1
  38   23   28 1
  39   24   25 1
  40   24   51 1
  41   24   52 1
  42   25   26 1
  43   25   53 1
  44   25   54 1
  45   26   27 1
  46   26   29 1
  47   27   28 1
  48   27   55 1
  49   27   56 1
  50   28   57 1
  51   28   58 1
  52   29   30 1
  53   29   59 1
  54   29   60 1
  55   30   31 ar
  56   30   35 ar
  57   31   32 ar
  58   31   36 1
  59   32   33 ar
  60   32   61 1
  61   33   34 ar
  62   33   62 1
  63   34   35 ar
  64   34   63 1
  65   36   37 1
  66   36   38 1
  67   36   39 1
  68   40   64 1
  69   40   65 1
  70   40   66 1

#	End of record

