#	Name: ASD00530003
#	Creating user name:	WinNT
#	Creation time:	15. 06. 2019 18:36

#	Modifying user name:	WinNT
#	Modification time:	15. 06. 2019 18:36

#	Program:	/corina/corina34_cracker 3.40 0067  02.08.2006

@<TRIPOS>MOLECULE
ASD00530003
  78   81    0    0    0
SMALL
NO_CHARGES


@<TRIPOS>ATOM
   1 C1             0.8559     1.1160    -0.6054 C.3     
   2 C2             0.6387    -0.3531    -0.8618 C.2     
   3 O3             1.1456    -1.1742    -0.1359 O.2     
   4 C4            -0.2112    -0.7974    -2.0243 C.3     
   5 C5             0.6124    -0.7334    -3.3121 C.3     
   6 C6            -0.2701    -1.0591    -4.4895 C.2     
   7 O7            -1.4380    -1.3161    -4.3163 O.2     
   8 O8             0.2413    -1.0638    -5.7305 O.3     
   9 N9            -0.6629    -2.1731    -1.8013 N.am    
  10 C10           -1.7695    -2.4087    -1.0690 C.2     
  11 O11           -2.3915    -1.4819    -0.5946 O.2     
  12 C12           -2.2341    -3.8239    -0.8396 C.3     
  13 C13           -1.6452    -4.3561     0.4486 C.2     
  14 C14           -2.2129    -5.3587     1.1019 C.2     
  15 C15           -1.5586    -5.7904     2.3878 C.3     
  16 C16           -2.2050    -7.0708     2.9150 C.3     
  17 C17           -3.7267    -6.8524     2.9142 C.3     
  18 C18           -4.2011    -6.9298     1.4644 C.3     
  19 C19           -3.4698    -5.9709     0.5720 C.3     
  20 N20           -4.3102    -4.9253     0.0057 N.am    
  21 N21           -3.6939    -3.8529    -0.6993 N.am    
  22 C22           -4.6633    -3.0440    -1.1090 C.2     
  23 O23           -4.5152    -2.0195    -1.7460 O.2     
  24 N24           -5.8443    -3.5572    -0.6959 N.am    
  25 C25           -7.1601    -2.9630    -0.9448 C.3     
  26 C26           -7.7230    -3.5032    -2.2609 C.3     
  27 C27           -9.0381    -2.7910    -2.5836 C.3     
  28 C28           -9.6638    -3.4166    -3.8318 C.3     
  29 C29          -10.9592    -2.7151    -4.1497 C.2     
  30 O30          -11.3425    -1.8079    -3.4498 O.2     
  31 O31          -11.6871    -3.0981    -5.2105 O.3     
  32 N32           -6.7603    -3.2632    -3.3388 N.am    
  33 C33           -6.7664    -4.0477    -4.4347 C.2     
  34 O34           -7.5688    -4.9523    -4.5286 O.2     
  35 C35           -5.7762    -3.8008    -5.5436 C.3     
  36 C36           -5.9925    -4.8078    -6.6437 C.ar    
  37 C37           -6.8679    -4.5264    -7.6759 C.ar    
  38 C38           -7.0664    -5.4501    -8.6850 C.ar    
  39 C39           -6.3892    -6.6550    -8.6621 C.ar    
  40 C40           -5.5131    -6.9360    -7.6304 C.ar    
  41 C41           -5.3114    -6.0105    -6.6236 C.ar    
  42 C42           -5.6200    -4.7052    -0.0177 C.2     
  43 O43           -6.4704    -5.4135     0.4847 O.2     
  44 H44            1.7410     1.4521    -1.1455 H       
  45 H45           -0.0136     1.6770    -0.9478 H       
  46 H46            0.9974     1.2813     0.4627 H       
  47 H47           -1.0767    -0.1408    -2.1135 H       
  48 H48            1.0223     0.2694    -3.4317 H       
  49 H49            1.4274    -1.4551    -3.2583 H       
  50 H50           -0.3636    -1.2786    -6.4538 H       
  51 H51           -0.1654    -2.9144    -2.1807 H       
  52 H52           -1.9285    -4.4540    -1.6749 H       
  53 H53           -0.7441    -3.9101     0.8428 H       
  54 H54           -0.4984    -5.9699     2.2092 H       
  55 H55           -1.6687    -4.9999     3.1303 H       
  56 H56           -1.9507    -7.9086     2.2657 H       
  57 H57           -1.8598    -7.2694     3.9296 H       
  58 H58           -4.2124    -7.6293     3.5046 H       
  59 H59           -3.9600    -5.8715     3.3282 H       
  60 H60           -4.0458    -7.9438     1.0958 H       
  61 H61           -5.2666    -6.7025     1.4290 H       
  62 H62           -3.1587    -6.5588    -0.2916 H       
  63 H63           -7.8350    -3.2198    -0.1283 H       
  64 H64           -7.0631    -1.8792    -1.0088 H       
  65 H65           -7.9033    -4.5741    -2.1665 H       
  66 H66           -9.7235    -2.8950    -1.7425 H       
  67 H67           -8.8437    -1.7340    -2.7654 H       
  68 H68           -8.9784    -3.3126    -4.6729 H       
  69 H69           -9.8582    -4.4736    -3.6500 H       
  70 H70          -12.5105    -2.6183    -5.3742 H       
  71 H71           -6.1186    -2.5398    -3.2638 H       
  72 H72           -5.9168    -2.7949    -5.9390 H       
  73 H73           -4.7628    -3.8999    -5.1545 H       
  74 H74           -7.3970    -3.5851    -7.6938 H       
  75 H75           -7.7508    -5.2306    -9.4911 H       
  76 H76           -6.5448    -7.3770    -9.4501 H       
  77 H77           -4.9843    -7.8775    -7.6123 H       
  78 H78           -4.6241    -6.2285    -5.8195 H       
@<TRIPOS>BOND
   1    1    2 1
   2    1   44 1
   3    1   45 1
   4    1   46 1
   5    2    3 2
   6    2    4 1
   7    4    5 1
   8    4    9 1
   9    4   47 1
  10    5    6 1
  11    5   48 1
  12    5   49 1
  13    6    7 2
  14    6    8 1
  15    8   50 1
  16    9   10 am
  17    9   51 1
  18   10   11 2
  19   10   12 1
  20   12   13 1
  21   12   21 1
  22   12   52 1
  23   13   14 2
  24   13   53 1
  25   14   15 1
  26   14   19 1
  27   15   16 1
  28   15   54 1
  29   15   55 1
  30   16   17 1
  31   16   56 1
  32   16   57 1
  33   17   18 1
  34   17   58 1
  35   17   59 1
  36   18   19 1
  37   18   60 1
  38   18   61 1
  39   19   20 1
  40   19   62 1
  41   20   21 1
  42   20   42 am
  43   21   22 am
  44   22   23 2
  45   22   24 am
  46   24   25 1
  47   24   42 am
  48   25   26 1
  49   25   63 1
  50   25   64 1
  51   26   27 1
  52   26   32 1
  53   26   65 1
  54   27   28 1
  55   27   66 1
  56   27   67 1
  57   28   29 1
  58   28   68 1
  59   28   69 1
  60   29   30 2
  61   29   31 1
  62   31   70 1
  63   32   33 am
  64   32   71 1
  65   33   34 2
  66   33   35 1
  67   35   36 1
  68   35   72 1
  69   35   73 1
  70   36   37 ar
  71   36   41 ar
  72   37   38 ar
  73   37   74 1
  74   38   39 ar
  75   38   75 1
  76   39   40 ar
  77   39   76 1
  78   40   41 ar
  79   40   77 1
  80   41   78 1
  81   42   43 2

#	End of record

