#	Name: ASD01152532
#	Creating user name:	WinNT
#	Creation time:	15. 06. 2019 19:06

#	Modifying user name:	WinNT
#	Modification time:	15. 06. 2019 19:06

#	Program:	/corina/corina34_cracker 3.40 0067  02.08.2006

@<TRIPOS>MOLECULE
ASD01152532
  53   55    0    0    0
SMALL
NO_CHARGES


@<TRIPOS>ATOM
   1 C1             0.1167     1.1519    -0.7093 C.2     
   2 N2             0.0222    -0.1484    -0.6273 N.2     
   3 N3            -1.1175    -0.7676    -0.1147 N.am    
   4 C4            -2.2571    -0.0984     0.1261 C.2     
   5 C5            -2.3864     1.3536    -0.2700 C.3     
   6 C6            -1.0009     1.9717    -0.2169 C.2     
   7 C7            -2.9513     1.4554    -1.6882 C.3     
   8 O8            -0.8261     3.0958     0.2061 O.2     
   9 C9            -1.0723    -2.1395     0.1590 C.ar    
  10 O10           -3.1863    -0.6624     0.6636 O.2     
  11 C11           -3.1924     2.9031    -2.0302 C.ar    
  12 C12           -0.0092    -2.6698     0.8764 C.ar    
  13 C13           -2.0947    -2.9707    -0.2823 C.ar    
  14 C14           -2.0513    -4.3247    -0.0123 C.ar    
  15 C15           -0.9912    -4.8572     0.6981 C.ar    
  16 C16            0.0321    -4.0300     1.1463 C.ar    
  17 C17           -2.1919     3.6588    -2.6267 C.ar    
  18 C18           -4.4123     3.4899    -1.7588 C.ar    
  19 N19           -4.6345     4.7566    -2.0539 N.ar    
  20 C20           -3.7042     5.5116    -2.6180 C.ar    
  21 C21           -2.4541     4.9841    -2.9243 C.ar    
  22 Cl22          -0.9411    -6.5594     1.0355 Cl      
  23 N23           -3.9815     6.8416    -2.9123 N.pl3   
  24 C24           -2.9982     7.6524    -3.6347 C.3     
  25 C25           -5.2571     7.4324    -2.5000 C.3     
  26 O26            1.2266     1.7351    -1.2333 O.3     
  27 C27            2.2667     0.8640    -1.6820 C.3     
  28 N28            1.1024    -4.5686     1.8699 N.am    
  29 C29            1.7658    -3.8050     2.7606 C.2     
  30 O30            1.4963    -2.6275     2.8695 O.2     
  31 C31            2.8423    -4.4144     3.6214 C.3     
  32 H32           -3.0453     1.8695     0.4284 H       
  33 H33           -2.2389     1.0290    -2.3945 H       
  34 H34           -3.8917     0.9072    -1.7450 H       
  35 H35            0.7846    -2.0250     1.2236 H       
  36 H36           -2.9243    -2.5575    -0.8367 H       
  37 H37           -2.8471    -4.9686    -0.3564 H       
  38 H38           -1.2305     3.2219    -2.8528 H       
  39 H39           -5.1949     2.9045    -1.2993 H       
  40 H40           -1.6970     5.6020    -3.3841 H       
  41 H41           -3.1751     7.5682    -4.7069 H       
  42 H42           -3.0938     8.6950    -3.3314 H       
  43 H43           -1.9940     7.2973    -3.4031 H       
  44 H44           -5.8534     6.6829    -1.9796 H       
  45 H45           -5.0691     8.2741    -1.8334 H       
  46 H46           -5.7980     7.7799    -3.3803 H       
  47 H47            3.0921     1.4568    -2.0764 H       
  48 H48            2.6201     0.2596    -0.8466 H       
  49 H49            1.8814     0.2113    -2.4653 H       
  50 H50            1.3668    -5.4914     1.7302 H       
  51 H51            3.8029    -4.3346     3.1125 H       
  52 H52            2.8900    -3.8846     4.5728 H       
  53 H53            2.6126    -5.4646     3.8014 H       
@<TRIPOS>BOND
   1    1    2 2
   2    1   26 1
   3    1    6 1
   4    2    3 1
   5    3    4 am
   6    3    9 1
   7    4    5 1
   8    4   10 2
   9    5    6 1
  10    5    7 1
  11    5   32 1
  12    6    8 2
  13    7   11 1
  14    7   33 1
  15    7   34 1
  16    9   12 ar
  17    9   13 ar
  18   11   17 ar
  19   11   18 ar
  20   12   16 ar
  21   12   35 1
  22   13   14 ar
  23   13   36 1
  24   14   15 ar
  25   14   37 1
  26   15   16 ar
  27   15   22 1
  28   16   28 1
  29   17   21 ar
  30   17   38 1
  31   18   19 ar
  32   18   39 1
  33   19   20 ar
  34   20   21 ar
  35   20   23 1
  36   21   40 1
  37   23   24 1
  38   23   25 1
  39   24   41 1
  40   24   42 1
  41   24   43 1
  42   25   44 1
  43   25   45 1
  44   25   46 1
  45   26   27 1
  46   27   47 1
  47   27   48 1
  48   27   49 1
  49   28   29 am
  50   28   50 1
  51   29   30 2
  52   29   31 1
  53   31   51 1
  54   31   52 1
  55   31   53 1

#	End of record

