#	Name: ASD08150573
#	Creating user name:	WinNT
#	Creation time:	15. 06. 2019 21:16

#	Modifying user name:	WinNT
#	Modification time:	15. 06. 2019 21:16

#	Program:	/corina/corina34_cracker 3.40 0067  02.08.2006

@<TRIPOS>MOLECULE
ASD08150573
  46   50    0    0    0
SMALL
NO_CHARGES


@<TRIPOS>ATOM
   1 N1            -0.1007     1.0786     1.9830 N.am    
   2 C2            -0.0029    -0.1787     2.4569 C.2     
   3 C3             1.2207    -0.8770     2.4091 C.2     
   4 C4             2.3236    -0.2872     1.8816 C.2     
   5 C5             2.2244     1.0354     1.3821 C.ar    
   6 C6             3.3378     1.6928     0.8245 C.ar    
   7 N7             3.2435     2.9129     0.3644 N.ar    
   8 C8             2.0941     3.6045     0.3948 C.ar    
   9 C9             0.9228     3.0214     0.9377 C.ar    
  10 C10            0.9913     1.7025     1.4444 C.ar    
  11 C11           -0.2924     5.0404     0.4600 C.ar    
  12 C12            0.8700     5.6103    -0.0766 C.ar    
  13 C13            2.0377     4.9137    -0.1103 C.ar    
  14 O14           -0.9859    -0.7197     2.9340 O.2     
  15 C15           -1.3291     1.7490     2.0367 C.ar    
  16 C16           -2.2334     1.6282     0.9900 C.ar    
  17 C17           -3.4443     2.2903     1.0449 C.ar    
  18 C18           -3.7568     3.0739     2.1429 C.ar    
  19 C19           -2.8562     3.1957     3.1881 C.ar    
  20 C20           -1.6469     2.5309     3.1398 C.ar    
  21 C21           -0.2699     3.7513     0.9654 C.ar    
  22 C22           -1.5543     5.8219     0.4855 C.2     
  23 C23           -1.6678     7.1631     0.7097 C.2     
  24 F24           -4.9416     3.7210     2.1945 F       
  25 C25           -1.8936     0.7759    -0.2055 C.3     
  26 N26           -2.9777     7.4772     0.6495 N.pl3   
  27 N27           -3.6967     6.3060     0.3819 N.2     
  28 C28           -2.8518     5.3148     0.2768 C.2     
  29 C29           -3.5498     8.8133     0.8332 C.3     
  30 H30            1.2809    -1.8844     2.7937 H       
  31 H31            3.2633    -0.8181     1.8435 H       
  32 H32            4.2870     1.1799     0.7763 H       
  33 H33            0.8381     6.6161    -0.4689 H       
  34 H34            2.9244     5.3689    -0.5264 H       
  35 H35           -4.1478     2.1969     0.2308 H       
  36 H36           -3.1017     3.8077     4.0435 H       
  37 H37           -0.9451     2.6259     3.9551 H       
  38 H38           -1.1666     3.3127     1.3776 H       
  39 H39           -0.8555     7.8488     0.9008 H       
  40 H40           -2.2359    -0.2445    -0.0332 H       
  41 H41           -2.3849     1.1794    -1.0908 H       
  42 H42           -0.8142     0.7763    -0.3570 H       
  43 H43           -3.1048     4.2848     0.0731 H       
  44 H44           -3.6030     9.3213    -0.1297 H       
  45 H45           -4.5518     8.7248     1.2532 H       
  46 H46           -2.9204     9.3878     1.5129 H       
@<TRIPOS>BOND
   1    1    2 am
   2    1   10 1
   3    1   15 1
   4    2    3 1
   5    2   14 2
   6    3    4 2
   7    3   30 1
   8    4    5 1
   9    4   31 1
  10    5    6 ar
  11    5   10 ar
  12    6    7 ar
  13    6   32 1
  14    7    8 ar
  15    8    9 ar
  16    8   13 ar
  17    9   10 ar
  18    9   21 ar
  19   11   12 ar
  20   11   22 1
  21   11   21 ar
  22   12   13 ar
  23   12   33 1
  24   13   34 1
  25   15   16 ar
  26   15   20 ar
  27   16   17 ar
  28   16   25 1
  29   17   18 ar
  30   17   35 1
  31   18   19 ar
  32   18   24 1
  33   19   20 ar
  34   19   36 1
  35   20   37 1
  36   21   38 1
  37   22   23 2
  38   22   28 1
  39   23   26 1
  40   23   39 1
  41   25   40 1
  42   25   41 1
  43   25   42 1
  44   26   27 1
  45   26   29 1
  46   27   28 2
  47   28   43 1
  48   29   44 1
  49   29   45 1
  50   29   46 1

#	End of record

