#	Name: ASD03731544
#	Creating user name:	WinNT
#	Creation time:	15. 06. 2019 20:45

#	Modifying user name:	WinNT
#	Modification time:	15. 06. 2019 20:45

#	Program:	/corina/corina34_cracker 3.40 0067  02.08.2006

@<TRIPOS>MOLECULE
ASD03731544
  40   41    0    0    0
SMALL
NO_CHARGES


@<TRIPOS>ATOM
   1 C1            -0.4035     1.1035    -1.9610 C.2     
   2 C2            -0.2822    -0.2745    -1.4506 C.ar    
   3 C3             0.9015    -0.9953    -1.6492 C.ar    
   4 C4             1.0098    -2.2847    -1.1689 C.ar    
   5 C5            -0.0530    -2.8661    -0.4900 C.ar    
   6 C6            -1.2313    -2.1526    -0.2912 C.ar    
   7 C7            -1.3467    -0.8633    -0.7617 C.ar    
   8 O8             0.5254     1.6157    -2.5555 O.2     
   9 N9            -1.5460     1.7935    -1.7735 N.am    
  10 S10           -1.6822     3.3411    -2.3467 S.o2    
  11 O11           -2.9842     3.7487    -1.9493 O.2     
  12 O12           -0.5251     4.0012    -1.8521 O.2     
  13 C13           -1.5929     3.1654    -4.1500 C.3     
  14 F14            1.9354    -0.4300    -2.3101 F       
  15 O15            0.0575    -4.1342    -0.0193 O.3     
  16 C16            1.2595    -4.7565    -0.1387 C.ar    
  17 C17            2.2103    -4.6276     0.8626 C.ar    
  18 C18            3.4354    -5.2636     0.7378 C.ar    
  19 C19            3.7079    -6.0278    -0.3885 C.ar    
  20 C20            2.7592    -6.1544    -1.3849 C.ar    
  21 C21            1.5346    -5.5263    -1.2601 C.ar    
  22 O22            4.3694    -5.1388     1.7171 O.3     
  23 C23            5.6094    -5.8216     1.5218 C.3     
  24 C24            6.5268    -5.5654     2.7192 C.3     
  25 Cl25          -2.5558    -2.8867     0.5575 Cl      
  26 H26            1.9220    -2.8423    -1.3215 H       
  27 H27           -2.2601    -0.3095    -0.6027 H       
  28 H28           -2.2884     1.3836    -1.3027 H       
  29 H29           -2.4095     2.5307    -4.4940 H       
  30 H30           -1.6754     4.1476    -4.6153 H       
  31 H31           -0.6402     2.7123    -4.4241 H       
  32 H32            1.9966    -4.0323     1.7380 H       
  33 H33            4.6624    -6.5235    -0.4861 H       
  34 H34            2.9733    -6.7491    -2.2606 H       
  35 H35            0.7927    -5.6310    -2.0379 H       
  36 H36            5.4241    -6.8917     1.4284 H       
  37 H37            6.0870    -5.4549     0.6132 H       
  38 H38            6.7120    -4.4954     2.8125 H       
  39 H39            6.0492    -5.9321     3.6278 H       
  40 H40            7.4726    -6.0863     2.5702 H       
@<TRIPOS>BOND
   1    1    2 1
   2    1    8 2
   3    1    9 am
   4    2    3 ar
   5    2    7 ar
   6    3    4 ar
   7    3   14 1
   8    4    5 ar
   9    4   26 1
  10    5    6 ar
  11    5   15 1
  12    6    7 ar
  13    6   25 1
  14    7   27 1
  15    9   10 am
  16    9   28 1
  17   10   11 2
  18   10   12 2
  19   10   13 1
  20   13   29 1
  21   13   30 1
  22   13   31 1
  23   15   16 1
  24   16   17 ar
  25   16   21 ar
  26   17   18 ar
  27   17   32 1
  28   18   19 ar
  29   18   22 1
  30   19   20 ar
  31   19   33 1
  32   20   21 ar
  33   20   34 1
  34   21   35 1
  35   22   23 1
  36   23   24 1
  37   23   36 1
  38   23   37 1
  39   24   38 1
  40   24   39 1
  41   24   40 1

#	End of record

