#	Name: ASD03240290
#	Creating user name:	WinNT
#	Creation time:	15. 06. 2019 20:34

#	Modifying user name:	WinNT
#	Modification time:	15. 06. 2019 20:34

#	Program:	/corina/corina34_cracker 3.40 0067  02.08.2006

@<TRIPOS>MOLECULE
ASD03240290
  90   96    0    0    0
SMALL
NO_CHARGES


@<TRIPOS>ATOM
   1 C1            -0.9152     0.3886    -1.9537 C.2     
   2 N2            -0.5339    -0.5872    -1.0634 N.pl3   
   3 O3            -4.1181     2.6969    -1.3358 O.2     
   4 C4            -3.9585     1.9030    -0.4330 C.2     
   5 C5            -2.8022     0.9374    -0.4743 C.3     
   6 N6            -2.0255     1.1577    -1.6967 N.pl3   
   7 N7            -0.2210     0.5882    -3.0387 N.2     
   8 N8            -4.8153     1.8842     0.6072 N.am    
   9 C9            -5.8167     2.8476     0.7021 C.ar    
  10 C10           -7.0627     2.5116     1.2498 C.ar    
  11 C11           -8.0584     3.4746     1.3428 C.ar    
  12 C12           -7.8130     4.7719     0.8905 C.ar    
  13 C13           -6.5673     5.0978     0.3459 C.ar    
  14 C14           -5.5783     4.1429     0.2593 C.ar    
  15 C15           -8.8683     5.7993     0.9867 C.2     
  16 N16           -8.6309     7.0520     0.5498 N.am    
  17 O17           -9.9518     5.5155     1.4601 O.2     
  18 C18           -9.6675     7.9940     0.5269 C.ar    
  19 C19           -9.3762     9.3491     0.6119 C.ar    
  20 C20          -10.9859     7.5729     0.4136 C.ar    
  21 C21          -12.0076     8.5011     0.3911 C.ar    
  22 C22          -11.7168     9.8562     0.4818 C.ar    
  23 C23          -10.3977    10.2776     0.5894 C.ar    
  24 N24          -12.7520    10.7969     0.4585 N.pl3   
  25 C25          -12.4452    12.2262     0.5541 C.3     
  26 C26          -14.1429    10.3527     0.3384 C.3     
  27 C27           -7.3168     1.1307     1.7281 C.ar    
  28 C28           -7.8500     0.9174     2.9979 C.ar    
  29 C29           -8.0848    -0.3696     3.4375 C.ar    
  30 C30           -7.7919    -1.4466     2.6204 C.ar    
  31 C31           -7.2621    -1.2408     1.3593 C.ar    
  32 C32           -7.0286     0.0421     0.9071 C.ar    
  33 C33          -14.7185    10.1269     1.7127 C.ar    
  34 C34          -12.2412    12.7899    -0.8285 C.ar    
  35 C35          -15.3373    11.1535     2.3571 C.ar    
  36 C36          -15.8756    10.9462     3.6387 C.ar    
  37 C37          -15.7649     9.6678     4.2403 C.ar    
  38 C38          -15.1184     8.6323     3.5440 C.ar    
  39 C39          -14.6142     8.8683     2.3022 C.ar    
  40 C40          -13.3058    13.2931    -1.5109 C.ar    
  41 C41          -13.1191    13.8199    -2.8004 C.ar    
  42 C42          -11.8216    13.8185    -3.3703 C.ar    
  43 C43          -10.7467    13.2898    -2.6352 C.ar    
  44 C44          -10.9643    12.7932    -1.3869 C.ar    
  45 C45          -14.1940    14.3477    -3.5360 C.ar    
  46 C46          -13.9755    14.8491    -4.7822 C.ar    
  47 C47          -12.6995    14.8473    -5.3428 C.ar    
  48 C48          -11.6348    14.3453    -4.6597 C.ar    
  49 C49          -16.5212    11.9819     4.3355 C.ar    
  50 C50          -17.0301    11.7444     5.5752 C.ar    
  51 C51          -16.9209    10.4873     6.1670 C.ar    
  52 C52          -16.3032     9.4604     5.5218 C.ar    
  53 H53            0.2518    -1.1271    -1.2427 H       
  54 H54           -1.0505    -0.7357    -0.2560 H       
  55 H55           -2.1644     1.0969     0.3951 H       
  56 H56           -3.1816    -0.0844    -0.4640 H       
  57 H57           -2.2945     1.8462    -2.3248 H       
  58 H58            0.5646     0.0483    -3.2180 H       
  59 H59           -4.7347     1.1996     1.2897 H       
  60 H60           -9.0201     3.2206     1.7636 H       
  61 H61           -6.3784     6.1020    -0.0039 H       
  62 H62           -4.6177     4.3995    -0.1622 H       
  63 H63           -7.7424     7.3014     0.2512 H       
  64 H64           -8.3505     9.6767     0.6960 H       
  65 H65          -11.2120     6.5192     0.3427 H       
  66 H66          -13.0330     8.1736     0.3025 H       
  67 H67          -10.1715    11.3312     0.6603 H       
  68 H68          -13.2728    12.7438     1.0391 H       
  69 H69          -11.5367    12.3644     1.1404 H       
  70 H70          -14.7247    11.1160    -0.1783 H       
  71 H71          -14.1795     9.4223    -0.2283 H       
  72 H72           -8.0787     1.7575     3.6368 H       
  73 H73           -8.4977    -0.5361     4.4215 H       
  74 H74           -7.9772    -2.4520     2.9685 H       
  75 H75           -7.0350    -2.0854     0.7257 H       
  76 H76           -6.6149     0.2017    -0.0777 H       
  77 H77          -15.4140    12.1224     1.8863 H       
  78 H78          -15.0266     7.6530     3.9901 H       
  79 H79          -14.1182     8.0706     1.7691 H       
  80 H80          -14.2890    13.2872    -1.0640 H       
  81 H81           -9.7524    13.2821    -3.0569 H       
  82 H82          -10.1365    12.3879    -0.8240 H       
  83 H83          -15.1884    14.3551    -3.1147 H       
  84 H84          -14.8033    15.2541    -5.3453 H       
  85 H85          -12.5533    15.2507    -6.3339 H       
  86 H86          -10.6516    14.3509    -5.1066 H       
  87 H87          -16.6127    12.9614     3.8898 H       
  88 H88          -17.5258    12.5420     6.1085 H       
  89 H89          -17.3328    10.3255     7.1521 H       
  90 H90          -16.2263     8.4915     5.9926 H       
@<TRIPOS>BOND
   1    1    2 1
   2    1    7 2
   3    1    6 1
   4    2   53 1
   5    2   54 1
   6    3    4 2
   7    4    5 1
   8    4    8 am
   9    5    6 1
  10    5   55 1
  11    5   56 1
  12    6   57 1
  13    7   58 1
  14    8    9 1
  15    8   59 1
  16    9   10 ar
  17    9   14 ar
  18   10   11 ar
  19   10   27 1
  20   11   12 ar
  21   11   60 1
  22   12   13 ar
  23   12   15 1
  24   13   14 ar
  25   13   61 1
  26   14   62 1
  27   15   16 am
  28   15   17 2
  29   16   18 1
  30   16   63 1
  31   18   19 ar
  32   18   20 ar
  33   19   23 ar
  34   19   64 1
  35   20   21 ar
  36   20   65 1
  37   21   22 ar
  38   21   66 1
  39   22   23 ar
  40   22   24 1
  41   23   67 1
  42   24   25 1
  43   24   26 1
  44   25   34 1
  45   25   68 1
  46   25   69 1
  47   26   33 1
  48   26   70 1
  49   26   71 1
  50   27   28 ar
  51   27   32 ar
  52   28   29 ar
  53   28   72 1
  54   29   30 ar
  55   29   73 1
  56   30   31 ar
  57   30   74 1
  58   31   32 ar
  59   31   75 1
  60   32   76 1
  61   33   35 ar
  62   33   39 ar
  63   34   40 ar
  64   34   44 ar
  65   35   36 ar
  66   35   77 1
  67   36   37 ar
  68   36   49 ar
  69   37   38 ar
  70   37   52 ar
  71   38   39 ar
  72   38   78 1
  73   39   79 1
  74   40   41 ar
  75   40   80 1
  76   41   42 ar
  77   41   45 ar
  78   42   43 ar
  79   42   48 ar
  80   43   44 ar
  81   43   81 1
  82   44   82 1
  83   45   46 ar
  84   45   83 1
  85   46   47 ar
  86   46   84 1
  87   47   48 ar
  88   47   85 1
  89   48   86 1
  90   49   50 ar
  91   49   87 1
  92   50   51 ar
  93   50   88 1
  94   51   52 ar
  95   51   89 1
  96   52   90 1

#	End of record

