#	Name: ASD01320066
#	Creating user name:	WinNT
#	Creation time:	15. 06. 2019 19:15

#	Modifying user name:	WinNT
#	Modification time:	15. 06. 2019 19:15

#	Program:	/corina/corina34_cracker 3.40 0067  02.08.2006

@<TRIPOS>MOLECULE
ASD01320066
 112  118    0    0    0
SMALL
NO_CHARGES


@<TRIPOS>ATOM
   1 C1             2.9294    -0.2686     0.4684 C.3     
   2 O2             3.0251    -1.6831     0.6478 O.3     
   3 C3             3.4547    -2.1230     1.8575 C.ar    
   4 C4             3.5703    -3.4873     2.0978 C.ar    
   5 C5             4.0058    -3.9379     3.3237 C.ar    
   6 C6             4.3324    -3.0212     4.3273 C.ar    
   7 C7             4.2152    -1.6501     4.0813 C.ar    
   8 C8             3.7835    -1.2079     2.8510 C.ar    
   9 C9             4.7989    -3.4993     5.6420 C.2     
  10 O10            4.8998    -4.6914     5.8542 O.2     
  11 O11            5.1132    -2.6141     6.6081 O.3     
  12 C12            5.5653    -3.1561     7.8771 C.3     
  13 C13            5.8683    -2.0258     8.8266 C.2     
  14 N14            6.3074    -2.1340    10.0856 N.2     
  15 N15            6.4511    -0.9549    10.5792 N.2     
  16 N16            6.1278    -0.0657     9.7065 N.pl3   
  17 C17            5.7553    -0.7014     8.5715 C.2     
  18 C18            6.1624     1.3852     9.9059 C.3     
  19 C19            5.3419     1.7455    11.1175 C.2     
  20 O20            4.7852     0.8791    11.7496 O.2     
  21 O21            5.2294     3.0288    11.4945 O.3     
  22 C22            4.4212     3.3028    12.6739 C.3     
  23 C23            5.3048     3.2559    13.9134 C.3     
  24 C24            4.4937     3.6042    15.1578 C.3     
  25 C25            3.9607     5.0443    15.0413 C.3     
  26 C26            3.1001     5.1381    13.7889 C.3     
  27 C27            3.7365     4.6597    12.5056 C.3     
  28 C28            4.7176     5.6695    11.9122 C.3     
  29 C29            2.6139     4.4512    11.4583 C.3     
  30 C30            2.5077     6.5431    13.6811 C.3     
  31 C31            1.5066     6.6909    14.8415 C.3     
  32 C32            2.2255     6.5716    16.1820 C.3     
  33 C33            3.0825     5.3163    16.2633 C.3     
  34 C34            3.9178     5.3516    17.5429 C.3     
  35 C35            3.0176     5.6060    18.7214 C.2     
  36 C36            1.8320     6.1314    18.6277 C.2     
  37 C37            1.2064     6.5577    17.3268 C.3     
  38 C38            0.1355     5.5025    17.0090 C.3     
  39 C39            0.4934     7.8958    17.4546 C.3     
  40 C40           -0.3714     7.9703    18.7136 C.3     
  41 C41            0.4736     7.7081    19.9626 C.3     
  42 C42            1.0028     6.2771    19.8905 C.3     
  43 C43            1.8199     5.9358    21.1260 C.3     
  44 C44            0.9959     6.1237    22.3989 C.3     
  45 C45           -0.1183     5.0765    22.4617 C.3     
  46 C46            1.9177     5.9229    23.6127 C.3     
  47 C47            0.3980     7.5246    22.4680 C.3     
  48 C48           -0.3925     7.8684    21.2113 C.3     
  49 C49            1.6110     8.6923    20.0122 C.2     
  50 O50            2.7527     8.2969    20.0073 O.2     
  51 O51            1.3571    10.0095    20.0618 O.3     
  52 C52            3.1033     7.8203    16.3698 C.3     
  53 C53            5.1612     5.9833    14.9997 C.3     
  54 H54            3.9109     0.1831     0.6127 H       
  55 H55            2.5750    -0.0534    -0.5396 H       
  56 H56            2.2295     0.1433     1.1954 H       
  57 H57            3.3177    -4.1948     1.3219 H       
  58 H58            4.0946    -4.9980     3.5098 H       
  59 H59            4.4662    -0.9387     4.8541 H       
  60 H60            3.6930    -0.1488     2.6600 H       
  61 H61            4.7846    -3.7876     8.3012 H       
  62 H62            6.4661    -3.7489     7.7187 H       
  63 H63            5.4267    -0.2441     7.6499 H       
  64 H64            7.1930     1.7068    10.0563 H       
  65 H65            5.7511     1.8826     9.0275 H       
  66 H66            3.6510     2.5271    12.7521 H       
  67 H67            5.6936     2.2328    14.0282 H       
  68 H68            6.1588     3.9167    13.7998 H       
  69 H69            3.6497     2.9221    15.2524 H       
  70 H70            5.1265     3.5308    16.0415 H       
  71 H71            2.2261     4.4609    13.9749 H       
  72 H72            5.5794     5.7696    12.5720 H       
  73 H73            5.0480     5.3228    10.9330 H       
  74 H74            4.2253     6.6364    11.8083 H       
  75 H75            2.0942     5.3945    11.2902 H       
  76 H76            3.0507     4.1051    10.5215 H       
  77 H77            1.9071     3.7075    11.8264 H       
  78 H78            3.2640     7.3102    13.7352 H       
  79 H79            1.9524     6.6495    12.7469 H       
  80 H80            1.0315     7.6700    14.7648 H       
  81 H81            0.7578     5.9151    14.7048 H       
  82 H82            2.4021     4.4421    16.3493 H       
  83 H83            4.3949     4.3736    17.6849 H       
  84 H84            4.6911     6.1099    17.5173 H       
  85 H85            3.3911     5.3307    19.6977 H       
  86 H86            0.6061     4.5237    16.9164 H       
  87 H87           -0.5999     5.4775    17.8132 H       
  88 H88           -0.3594     5.7578    16.0720 H       
  89 H89            1.1655     8.7460    17.4468 H       
  90 H90           -0.1754     8.0129    16.5835 H       
  91 H91           -0.8041     8.9731    18.7897 H       
  92 H92           -1.1806     7.2454    18.6636 H       
  93 H93            0.1492     5.5889    19.8211 H       
  94 H94            2.1297     4.8825    21.0677 H       
  95 H95            2.7209     6.5466    21.1762 H       
  96 H96            0.3205     4.0787    22.4630 H       
  97 H97           -0.6999     5.2188    23.3725 H       
  98 H98           -0.7692     5.1859    21.5942 H       
  99 H99            2.7247     6.6550    23.5811 H       
 100 H100           1.3441     6.0539    24.5302 H       
 101 H101           2.3380     4.9175    23.5873 H       
 102 H102          -0.2778     7.5726    23.3335 H       
 103 H103           1.1910     8.2550    22.6327 H       
 104 H104          -0.7331     8.9085    21.2722 H       
 105 H105          -1.2710     7.2270    21.1284 H       
 106 H106           2.1201    10.6028    20.0925 H       
 107 H107           2.4698     8.7061    16.4162 H       
 108 H108           3.6701     7.7300    17.2964 H       
 109 H109           3.7921     7.9098    15.5298 H       
 110 H110           5.8761     5.6264    14.2584 H       
 111 H111           4.8290     6.9860    14.7307 H       
 112 H112           5.6366     6.0089    15.9802 H       
@<TRIPOS>BOND
   1    1    2 1
   2    1   54 1
   3    1   55 1
   4    1   56 1
   5    2    3 1
   6    3    4 ar
   7    3    8 ar
   8    4    5 ar
   9    4   57 1
  10    5    6 ar
  11    5   58 1
  12    6    7 ar
  13    6    9 1
  14    7    8 ar
  15    7   59 1
  16    8   60 1
  17    9   10 2
  18    9   11 1
  19   11   12 1
  20   12   13 1
  21   12   61 1
  22   12   62 1
  23   13   14 1
  24   13   17 2
  25   14   15 2
  26   15   16 1
  27   16   17 1
  28   16   18 1
  29   17   63 1
  30   18   19 1
  31   18   64 1
  32   18   65 1
  33   19   20 2
  34   19   21 1
  35   21   22 1
  36   22   23 1
  37   22   27 1
  38   22   66 1
  39   23   24 1
  40   23   67 1
  41   23   68 1
  42   24   25 1
  43   24   69 1
  44   24   70 1
  45   25   26 1
  46   25   53 1
  47   25   33 1
  48   26   27 1
  49   26   30 1
  50   26   71 1
  51   27   28 1
  52   27   29 1
  53   28   72 1
  54   28   73 1
  55   28   74 1
  56   29   75 1
  57   29   76 1
  58   29   77 1
  59   30   31 1
  60   30   78 1
  61   30   79 1
  62   31   32 1
  63   31   80 1
  64   31   81 1
  65   32   37 1
  66   32   52 1
  67   32   33 1
  68   33   34 1
  69   33   82 1
  70   34   35 1
  71   34   83 1
  72   34   84 1
  73   35   36 2
  74   35   85 1
  75   36   37 1
  76   36   42 1
  77   37   38 1
  78   37   39 1
  79   38   86 1
  80   38   87 1
  81   38   88 1
  82   39   40 1
  83   39   89 1
  84   39   90 1
  85   40   41 1
  86   40   91 1
  87   40   92 1
  88   41   49 1
  89   41   42 1
  90   41   48 1
  91   42   43 1
  92   42   93 1
  93   43   44 1
  94   43   94 1
  95   43   95 1
  96   44   45 1
  97   44   46 1
  98   44   47 1
  99   45   96 1
 100   45   97 1
 101   45   98 1
 102   46   99 1
 103   46  100 1
 104   46  101 1
 105   47   48 1
 106   47  102 1
 107   47  103 1
 108   48  104 1
 109   48  105 1
 110   49   50 2
 111   49   51 1
 112   51  106 1
 113   52  107 1
 114   52  108 1
 115   52  109 1
 116   53  110 1
 117   53  111 1
 118   53  112 1

#	End of record

