#	Name: ASD01900220
#	Creating user name:	WinNT
#	Creation time:	15. 06. 2019 19:51

#	Modifying user name:	WinNT
#	Modification time:	15. 06. 2019 19:51

#	Program:	/corina/corina34_cracker 3.40 0067  02.08.2006

@<TRIPOS>MOLECULE
ASD01900220
  42   44    0    0    0
SMALL
NO_CHARGES


@<TRIPOS>ATOM
   1 C1            -0.0168     1.3887     0.0097 C.ar    
   2 C2             0.0021    -0.0041     0.0020 C.ar    
   3 C3            -1.2003    -0.6938     0.0103 C.ar    
   4 C4            -2.3798     0.0338     0.0259 C.ar    
   5 C5            -2.3237     1.4186     0.0328 C.ar    
   6 N6            -1.1690     2.0478     0.0297 N.ar    
   7 C7             1.2594     2.1406     0.0015 C.2     
   8 O8             2.3173     1.5421    -0.0118 O.2     
   9 N9             1.2477     3.4883     0.0089 N.am    
  10 C10            2.4592     4.2021     0.0011 C.2     
  11 C11            3.7581     3.6467    -0.0147 C.2     
  12 C12            4.6358     4.6702    -0.0179 C.2     
  13 N13            3.9336     5.8385    -0.0047 N.am    
  14 C14            2.5970     5.5485     0.0016 C.2     
  15 S15            4.5906     7.3586    -0.0025 S.o2    
  16 O16            3.6003     8.1675     0.6173 O.2     
  17 O17            5.8711     7.1860     0.5890 O.2     
  18 C18            4.7526     7.7841    -1.7584 C.3     
  19 C19            5.4693     9.1292    -1.8931 C.3     
  20 C20            5.5628     6.7008    -2.4731 C.3     
  21 C21            5.6995     7.0597    -3.9541 C.3     
  22 C22            6.4161     8.4048    -4.0888 C.3     
  23 C23            5.6059     9.4882    -3.3742 C.3     
  24 H24            0.9402    -0.5390    -0.0105 H       
  25 H25           -1.2176    -1.7736     0.0043 H       
  26 H26           -3.3333    -0.4733     0.0323 H       
  27 H27           -3.2409     1.9887     0.0446 H       
  28 H28            0.4034     3.9659     0.0195 H       
  29 H29            4.0031     2.5949    -0.0223 H       
  30 H30            5.7119     4.5797    -0.0285 H       
  31 H31            1.7920     6.2683     0.0118 H       
  32 H32            3.7623     7.8534    -2.2083 H       
  33 H33            4.8921     9.9010    -1.3840 H       
  34 H34            6.4596     9.0599    -1.4432 H       
  35 H35            6.5532     6.6315    -2.0232 H       
  36 H36            5.0523     5.7425    -2.3771 H       
  37 H37            6.2767     6.2879    -4.4633 H       
  38 H38            4.7091     7.1290    -4.4040 H       
  39 H39            7.4065     8.3355    -3.6389 H       
  40 H40            6.5135     8.6605    -5.1439 H       
  41 H41            4.6155     9.5575    -3.8241 H       
  42 H42            6.1165    10.4464    -3.4701 H       
@<TRIPOS>BOND
   1    1    2 ar
   2    1    7 1
   3    1    6 ar
   4    2    3 ar
   5    2   24 1
   6    3    4 ar
   7    3   25 1
   8    4    5 ar
   9    4   26 1
  10    5    6 ar
  11    5   27 1
  12    7    8 2
  13    7    9 am
  14    9   10 1
  15    9   28 1
  16   10   11 1
  17   10   14 2
  18   11   12 2
  19   11   29 1
  20   12   13 1
  21   12   30 1
  22   13   14 1
  23   13   15 am
  24   14   31 1
  25   15   16 2
  26   15   17 2
  27   15   18 1
  28   18   19 1
  29   18   20 1
  30   18   32 1
  31   19   23 1
  32   19   33 1
  33   19   34 1
  34   20   21 1
  35   20   35 1
  36   20   36 1
  37   21   22 1
  38   21   37 1
  39   21   38 1
  40   22   23 1
  41   22   39 1
  42   22   40 1
  43   23   41 1
  44   23   42 1

#	End of record

