#	Name: ASD03082104
#	Creating user name:	WinNT
#	Creation time:	15. 06. 2019 20:27

#	Modifying user name:	WinNT
#	Modification time:	15. 06. 2019 20:27

#	Program:	/corina/corina34_cracker 3.40 0067  02.08.2006

@<TRIPOS>MOLECULE
ASD03082104
  34   36    0    0    0
SMALL
NO_CHARGES


@<TRIPOS>ATOM
   1 C1            -0.0340     1.3895     0.1705 C.ar    
   2 C2            -0.0584     0.0149     0.4071 C.ar    
   3 C3            -1.2322    -0.6916     0.2447 C.ar    
   4 C4            -2.3904    -0.0448    -0.1527 C.ar    
   5 C5            -2.3852     1.3151    -0.3919 C.ar    
   6 C6            -1.2125     2.0464    -0.2280 C.ar    
   7 C7            -1.2025     3.5061    -0.4831 C.ar    
   8 C8            -2.0661     4.3454     0.2198 C.ar    
   9 C9            -2.0519     5.7039    -0.0217 C.ar    
  10 C10           -1.1831     6.2336    -0.9590 C.ar    
  11 C11           -0.3243     5.4058    -1.6598 C.ar    
  12 C12           -0.3254     4.0464    -1.4228 C.ar    
  13 C13            1.2184     2.1507     0.3430 C.2     
  14 N14            2.3713     1.5019     0.6008 N.am    
  15 O15            1.2103     3.3630     0.2526 O.2     
  16 C16            3.5672     2.2068     0.6589 C.ar    
  17 C17            4.7795     1.5340     0.8143 C.ar    
  18 C18            5.9418     2.2800     0.8660 C.ar    
  19 N19            5.8678     3.5993     0.7671 N.ar    
  20 C20            4.7063     4.2049     0.6210 C.ar    
  21 N21            3.5749     3.5327     0.5617 N.ar    
  22 H22            0.8413    -0.4960     0.7169 H       
  23 H23           -1.2478    -1.7558     0.4283 H       
  24 H24           -3.3036    -0.6078    -0.2767 H       
  25 H25           -3.2924     1.8121    -0.7022 H       
  26 H26           -2.7450     3.9330     0.9515 H       
  27 H27           -2.7205     6.3550     0.5218 H       
  28 H28           -1.1756     7.2975    -1.1447 H       
  29 H29            0.3512     5.8249    -2.3909 H       
  30 H30            0.3455     3.4011    -1.9705 H       
  31 H31            2.3661     0.5428     0.7458 H       
  32 H32            4.8090     0.4573     0.8926 H       
  33 H33            6.8986     1.7937     0.9859 H       
  34 H34            4.6819     5.2818     0.5435 H       
@<TRIPOS>BOND
   1    1    2 ar
   2    1   13 1
   3    1    6 ar
   4    2    3 ar
   5    2   22 1
   6    3    4 ar
   7    3   23 1
   8    4    5 ar
   9    4   24 1
  10    5    6 ar
  11    5   25 1
  12    6    7 1
  13    7    8 ar
  14    7   12 ar
  15    8    9 ar
  16    8   26 1
  17    9   10 ar
  18    9   27 1
  19   10   11 ar
  20   10   28 1
  21   11   12 ar
  22   11   29 1
  23   12   30 1
  24   13   14 am
  25   13   15 2
  26   14   16 1
  27   14   31 1
  28   16   17 ar
  29   16   21 ar
  30   17   18 ar
  31   17   32 1
  32   18   19 ar
  33   18   33 1
  34   19   20 ar
  35   20   21 ar
  36   20   34 1

#	End of record

