#	Name: ASD01915483
#	Creating user name:	WinNT
#	Creation time:	15. 06. 2019 20:05

#	Modifying user name:	WinNT
#	Modification time:	15. 06. 2019 20:05

#	Program:	/corina/corina34_cracker 3.40 0067  02.08.2006

@<TRIPOS>MOLECULE
ASD01915483
  42   45    0    0    0
SMALL
NO_CHARGES


@<TRIPOS>ATOM
   1 C1            -0.0167     1.3839     0.0097 C.ar    
   2 C2             0.0021    -0.0041     0.0020 C.ar    
   3 N3             1.1018     2.0837     0.0027 N.ar    
   4 C4             2.2836     1.5035    -0.0126 C.ar    
   5 C5             2.3861     0.1110    -0.0050 C.ar    
   6 C6             1.2261    -0.6638    -0.0050 C.ar    
   7 C7             3.5423     2.3317    -0.0608 C.3     
   8 C8             4.6580     1.6354     0.7136 C.3     
   9 N9             4.8024     0.2447     0.2893 N.am    
  10 C10            3.7227    -0.5157     0.0236 C.2     
  11 O11            3.8475    -1.7058    -0.1899 O.2     
  12 O12           -1.1602    -0.7087     0.0019 O.3     
  13 C13           -2.3751     0.0438     0.0099 C.3     
  14 C14           -3.5503    -0.8996     0.0085 C.ar    
  15 C15           -4.0855    -1.3388     1.2050 C.ar    
  16 C16           -4.0967    -1.3213    -1.1892 C.ar    
  17 C17           -5.1747    -2.1866    -1.1905 C.ar    
  18 C18           -5.7060    -2.6306     0.0059 C.ar    
  19 C19           -5.1634    -2.2041     1.2037 C.ar    
  20 C20            6.0765    -0.3033     0.1573 C.ar    
  21 N21            6.2166    -1.5294    -0.3213 N.ar    
  22 C22            7.4046    -2.0855    -0.4628 C.ar    
  23 C23            8.5524    -1.4022    -0.1130 C.ar    
  24 C24            8.4487    -0.1135     0.3931 C.ar    
  25 C25            7.1897     0.4449     0.5244 C.ar    
  26 H26           -0.9650     1.9009     0.0169 H       
  27 H27            1.2770    -1.7426    -0.0108 H       
  28 H28            3.8495     2.4623    -1.0984 H       
  29 H29            3.3495     3.3085     0.3828 H       
  30 H30            5.5966     2.1618     0.5399 H       
  31 H31            4.4254     1.6623     1.7782 H       
  32 H32           -2.4105     0.6670     0.9034 H       
  33 H33           -2.4162     0.6767    -0.8765 H       
  34 H34           -3.6612    -1.0061     2.1408 H       
  35 H35           -3.6816    -0.9744    -2.1240 H       
  36 H36           -5.6020    -2.5155    -2.1262 H       
  37 H37           -6.5485    -3.3064     0.0049 H       
  38 H38           -5.5786    -2.5510     2.1385 H       
  39 H39            7.4804    -3.0882    -0.8568 H       
  40 H40            9.5207    -1.8656    -0.2316 H       
  41 H41            9.3312     0.4421     0.6740 H       
  42 H42            7.0725     1.4451     0.9145 H       
@<TRIPOS>BOND
   1    1    2 ar
   2    1    3 ar
   3    1   26 1
   4    2   12 1
   5    2    6 ar
   6    3    4 ar
   7    4    5 ar
   8    4    7 1
   9    5    6 ar
  10    5   10 1
  11    6   27 1
  12    7    8 1
  13    7   28 1
  14    7   29 1
  15    8    9 1
  16    8   30 1
  17    8   31 1
  18    9   10 am
  19    9   20 1
  20   10   11 2
  21   12   13 1
  22   13   14 1
  23   13   32 1
  24   13   33 1
  25   14   15 ar
  26   14   16 ar
  27   15   19 ar
  28   15   34 1
  29   16   17 ar
  30   16   35 1
  31   17   18 ar
  32   17   36 1
  33   18   19 ar
  34   18   37 1
  35   19   38 1
  36   20   21 ar
  37   20   25 ar
  38   21   22 ar
  39   22   23 ar
  40   22   39 1
  41   23   24 ar
  42   23   40 1
  43   24   25 ar
  44   24   41 1
  45   25   42 1

#	End of record

