#	Name: ASD01140119
#	Creating user name:	WinNT
#	Creation time:	15. 06. 2019 19:00

#	Modifying user name:	WinNT
#	Modification time:	15. 06. 2019 19:00

#	Program:	/corina/corina34_cracker 3.40 0067  02.08.2006

@<TRIPOS>MOLECULE
ASD01140119
  40   41    0    0    0
SMALL
NO_CHARGES


@<TRIPOS>ATOM
   1 C1             2.2527     1.3397    -0.9060 C.ar    
   2 C2             2.3244    -0.0067    -0.6054 C.ar    
   3 C3             1.1667    -0.7142    -0.3158 C.ar    
   4 C4            -0.0605    -0.0672    -0.3289 C.ar    
   5 C5            -0.1268     1.2794    -0.6300 C.ar    
   6 C6             1.0285     1.9823    -0.9183 C.ar    
   7 C7             0.9532     3.4512    -1.2465 C.3     
   8 F8             1.0707     4.1986    -0.0698 F       
   9 F9             1.9937     3.7880    -2.1189 F       
  10 F10           -0.2749     3.7306    -1.8557 F       
  11 O11            1.2345    -2.0389    -0.0203 O.3     
  12 C12            2.5117    -2.6673    -0.1469 C.3     
  13 C13            3.1618    -2.7839     1.2332 C.3     
  14 C14            3.4515    -1.3848     1.7803 C.3     
  15 N15            4.0757    -1.4967     3.1054 N.3     
  16 C16            4.3688    -0.1697     3.6631 C.3     
  17 C17            2.3385    -4.0425    -0.7384 C.ar    
  18 C18            3.2953    -4.5513    -1.5966 C.ar    
  19 C19            3.1364    -5.8127    -2.1392 C.ar    
  20 C20            2.0209    -6.5656    -1.8233 C.ar    
  21 C21            1.0645    -6.0571    -0.9644 C.ar    
  22 C22            1.2256    -4.7974    -0.4184 C.ar    
  23 H23            3.1541     1.8919    -1.1271 H       
  24 H24            3.2808    -0.5083    -0.5962 H       
  25 H25           -0.9632    -0.6158    -0.1041 H       
  26 H26           -1.0819     1.7835    -0.6407 H       
  27 H27            3.1480    -2.0689    -0.7989 H       
  28 H28            2.4857    -3.3060     1.9103 H       
  29 H29            4.0945    -3.3417     1.1495 H       
  30 H30            4.1275    -0.8627     1.1032 H       
  31 H31            2.5188    -0.8270     1.8640 H       
  32 H32            3.4965    -2.0331     3.7338 H       
  33 H33            5.0512     0.3608     2.9990 H       
  34 H34            3.4424     0.3965     3.7598 H       
  35 H35            4.8303    -0.2817     4.6442 H       
  36 H36            4.1669    -3.9632    -1.8434 H       
  37 H37            3.8836    -6.2100    -2.8102 H       
  38 H38            1.8964    -7.5508    -2.2478 H       
  39 H39            0.1928    -6.6451    -0.7178 H       
  40 H40            0.4784    -4.4002     0.2527 H       
@<TRIPOS>BOND
   1    1    2 ar
   2    1    6 ar
   3    1   23 1
   4    2    3 ar
   5    2   24 1
   6    3    4 ar
   7    3   11 1
   8    4    5 ar
   9    4   25 1
  10    5    6 ar
  11    5   26 1
  12    6    7 1
  13    7    8 1
  14    7    9 1
  15    7   10 1
  16   11   12 1
  17   12   13 1
  18   12   17 1
  19   12   27 1
  20   13   14 1
  21   13   28 1
  22   13   29 1
  23   14   15 1
  24   14   30 1
  25   14   31 1
  26   15   16 1
  27   15   32 1
  28   16   33 1
  29   16   34 1
  30   16   35 1
  31   17   18 ar
  32   17   22 ar
  33   18   19 ar
  34   18   36 1
  35   19   20 ar
  36   19   37 1
  37   20   21 ar
  38   20   38 1
  39   21   22 ar
  40   21   39 1
  41   22   40 1

#	End of record

