#	Name: ASD01230263
#	Creating user name:	WinNT
#	Creation time:	15. 06. 2019 19:12

#	Modifying user name:	WinNT
#	Modification time:	15. 06. 2019 19:12

#	Program:	/corina/corina34_cracker 3.40 0067  02.08.2006

@<TRIPOS>MOLECULE
ASD01230263
  40   43    0    0    0
SMALL
NO_CHARGES


@<TRIPOS>ATOM
   1 S1            -0.0204     1.6504     0.0111 S.o2    
   2 N2             0.0021    -0.0041     0.0020 N.am    
   3 C3             1.0227    -0.6872    -0.4556 C.2     
   4 N4             2.1688    -0.1518    -0.9712 N.pl3   
   5 C5             2.3935     1.2854    -1.1473 C.3     
   6 C6             1.7501     2.0749    -0.0035 C.3     
   7 C7             0.8948    -2.1592    -0.3950 C.2     
   8 C8             1.9460    -2.9423    -0.8230 C.2     
   9 C9             3.1043    -2.3191    -1.3057 C.2     
  10 C10            3.1906    -0.9787    -1.3650 C.2     
  11 C11           -2.6667    -3.9523     1.0814 C.ar    
  12 C12           -1.4657    -4.1161     1.7719 C.ar    
  13 C13           -0.3120    -3.5359     1.2944 C.ar    
  14 C14           -0.3443    -2.7834     0.1185 C.ar    
  15 C15           -1.5469    -2.6199    -0.5721 C.ar    
  16 C16           -2.6997    -3.2007    -0.0933 C.ar    
  17 C17           -3.9076    -4.5822     1.5933 C.ar    
  18 C18           -5.1094    -4.4205     0.9057 C.ar    
  19 C19           -6.2610    -5.0095     1.3865 C.ar    
  20 C20           -6.2245    -5.7587     2.5488 C.ar    
  21 C21           -5.0349    -5.9222     3.2357 C.ar    
  22 C22           -3.8758    -5.3431     2.7609 C.ar    
  23 O23           -0.6346     2.0064    -1.2198 O.2     
  24 O24           -0.6110     1.9931     1.2573 O.2     
  25 H25            3.4654     1.4826    -1.1617 H       
  26 H26            1.9572     1.6041    -2.0939 H       
  27 H27            1.8743     3.1443    -0.1744 H       
  28 H28            2.2074     1.7939     0.9452 H       
  29 H29            1.8776    -4.0195    -0.7864 H       
  30 H30            3.9376    -2.9226    -1.6341 H       
  31 H31            4.1017    -0.5345    -1.7378 H       
  32 H32           -1.4409    -4.6981     2.6813 H       
  33 H33            0.6176    -3.6621     1.8295 H       
  34 H34           -1.5726    -2.0383    -1.4818 H       
  35 H35           -3.6298    -3.0747    -0.6276 H       
  36 H36           -5.1392    -3.8352    -0.0015 H       
  37 H37           -7.1927    -4.8849     0.8546 H       
  38 H38           -7.1284    -6.2175     2.9217 H       
  39 H39           -5.0124    -6.5079     4.1427 H       
  40 H40           -2.9466    -5.4754     3.2953 H       
@<TRIPOS>BOND
   1    1    2 am
   2    1    6 1
   3    1   23 2
   4    1   24 2
   5    2    3 2
   6    3    4 1
   7    3    7 1
   8    4    5 1
   9    4   10 1
  10    5    6 1
  11    5   25 1
  12    5   26 1
  13    6   27 1
  14    6   28 1
  15    7    8 2
  16    7   14 1
  17    8    9 1
  18    8   29 1
  19    9   10 2
  20    9   30 1
  21   10   31 1
  22   11   12 ar
  23   11   16 ar
  24   11   17 1
  25   12   13 ar
  26   12   32 1
  27   13   14 ar
  28   13   33 1
  29   14   15 ar
  30   15   16 ar
  31   15   34 1
  32   16   35 1
  33   17   18 ar
  34   17   22 ar
  35   18   19 ar
  36   18   36 1
  37   19   20 ar
  38   19   37 1
  39   20   21 ar
  40   20   38 1
  41   21   22 ar
  42   21   39 1
  43   22   40 1

#	End of record

