#	Name: ASD01915315
#	Creating user name:	WinNT
#	Creation time:	15. 06. 2019 20:05

#	Modifying user name:	WinNT
#	Modification time:	15. 06. 2019 20:05

#	Program:	/corina/corina34_cracker 3.40 0067  02.08.2006

@<TRIPOS>MOLECULE
ASD01915315
  44   47    0    0    0
SMALL
NO_CHARGES


@<TRIPOS>ATOM
   1 N1             0.0552     1.3617     0.2920 N.2     
   2 N2             0.0657    -0.0344     0.1372 N.pl3   
   3 N3             1.2526    -0.3612    -0.2471 N.2     
   4 N4             1.9782     0.6958    -0.3454 N.2     
   5 C5             1.2637     1.7686    -0.0188 C.2     
   6 C6             1.7530     3.1939    -0.0076 C.3     
   7 C7            -1.0098    -0.9069     0.3588 C.ar    
   8 C8            -0.8496    -2.2716     0.1632 C.ar    
   9 C9            -1.9117    -3.1291     0.3825 C.ar    
  10 C10           -3.1332    -2.6273     0.7959 C.ar    
  11 C11           -3.2948    -1.2679     0.9908 C.ar    
  12 C12           -2.2352    -0.4076     0.7796 C.ar    
  13 Cl13          -1.7129    -4.8363     0.1383 Cl      
  14 N14            2.7539     3.3627     1.0547 N.am    
  15 C15            3.4734     4.6401     1.1508 C.3     
  16 C16            4.1044     4.9543    -0.2093 C.3     
  17 C17            3.0206     4.9231    -1.2894 C.3     
  18 C18            2.4033     3.5242    -1.3548 C.3     
  19 C19            3.0069     2.3649     1.9246 C.2     
  20 O20            2.3350     1.3555     1.9017 O.2     
  21 C21            4.1248     2.5035     2.9258 C.3     
  22 C22            4.2837     1.2807     3.8448 C.3     
  23 C23            5.8032     1.4661     3.6975 C.3     
  24 C24            5.5097     2.1559     2.3548 C.3     
  25 H25            0.9142     3.8668     0.1704 H       
  26 H26            0.1036    -2.6631    -0.1601 H       
  27 H27           -3.9619    -3.2986     0.9663 H       
  28 H28           -4.2494    -0.8790     1.3132 H       
  29 H29           -2.3624     0.6540     0.9324 H       
  30 H30            2.7760     5.4328     1.4219 H       
  31 H31            4.2546     4.5635     1.9071 H       
  32 H32            4.5596     5.9442    -0.1792 H       
  33 H33            4.8668     4.2094    -0.4374 H       
  34 H34            2.2460     5.6509    -1.0476 H       
  35 H35            3.4625     5.1705    -2.2545 H       
  36 H36            3.1817     2.7929    -1.5721 H       
  37 H37            1.6478     3.4963    -2.1400 H       
  38 H38            4.0976     3.4521     3.4619 H       
  39 H39            3.9198     1.4464     4.8588 H       
  40 H40            3.9124     0.3542     3.4069 H       
  41 H41            6.2363     2.1312     4.4446 H       
  42 H42            6.3497     0.5284     3.5965 H       
  43 H43            5.4735     1.4686     1.5096 H       
  44 H44            6.1356     3.0280     2.1660 H       
@<TRIPOS>BOND
   1    1    2 1
   2    1    5 2
   3    2    3 1
   4    2    7 1
   5    3    4 2
   6    4    5 1
   7    5    6 1
   8    6   14 1
   9    6   18 1
  10    6   25 1
  11    7    8 ar
  12    7   12 ar
  13    8    9 ar
  14    8   26 1
  15    9   10 ar
  16    9   13 1
  17   10   11 ar
  18   10   27 1
  19   11   12 ar
  20   11   28 1
  21   12   29 1
  22   14   15 1
  23   14   19 am
  24   15   16 1
  25   15   30 1
  26   15   31 1
  27   16   17 1
  28   16   32 1
  29   16   33 1
  30   17   18 1
  31   17   34 1
  32   17   35 1
  33   18   36 1
  34   18   37 1
  35   19   20 2
  36   19   21 1
  37   21   22 1
  38   21   24 1
  39   21   38 1
  40   22   23 1
  41   22   39 1
  42   22   40 1
  43   23   24 1
  44   23   41 1
  45   23   42 1
  46   24   43 1
  47   24   44 1

#	End of record

