#	Name: ASD02500181
#	Creating user name:	WinNT
#	Creation time:	15. 06. 2019 20:22

#	Modifying user name:	WinNT
#	Modification time:	15. 06. 2019 20:22

#	Program:	/corina/corina34_cracker 3.40 0067  02.08.2006

@<TRIPOS>MOLECULE
ASD02500181
  65   69    0    0    0
SMALL
NO_CHARGES


@<TRIPOS>ATOM
   1 N1            -3.0091     5.5657    -0.6347 N.ar    
   2 C2            -4.1044     6.1946    -0.9857 C.ar    
   3 C3            -5.2880     6.0654    -0.2620 C.ar    
   4 C4            -5.3264     5.2661     0.8448 C.ar    
   5 C5            -4.1484     4.5919     1.2184 C.ar    
   6 C6            -4.1113     3.7538     2.3441 C.ar    
   7 C7            -2.9520     3.1194     2.6728 C.ar    
   8 C8            -1.8011     3.2913     1.9068 C.ar    
   9 C9            -1.8016     4.0964     0.8094 C.ar    
  10 C10           -2.9789     4.7683     0.4378 C.ar    
  11 S11           -0.3316     4.2964    -0.1413 S.o2    
  12 O12           -0.0992     5.6954    -0.2314 O.2     
  13 O13            0.6182     3.3836     0.3916 O.2     
  14 N14           -0.6672     3.7782    -1.6779 N.am    
  15 C15           -0.9305     2.4339    -1.9162 C.ar    
  16 C16           -0.4993     1.8407    -3.0998 C.ar    
  17 C17           -0.7583     0.5107    -3.3386 C.ar    
  18 C18           -1.4553    -0.2453    -2.3913 C.ar    
  19 C19           -1.8869     0.3530    -1.2041 C.ar    
  20 C20           -1.6197     1.6825    -0.9686 C.ar    
  21 C21           -1.7351    -1.6715    -2.6444 C.2     
  22 O22           -2.1296    -2.0290    -3.7376 O.2     
  23 N23           -1.5534    -2.5782    -1.6640 N.am    
  24 C24           -1.6918    -4.0152    -1.9391 C.3     
  25 C25           -0.4006    -4.7229    -1.5097 C.3     
  26 N26           -0.0601    -4.2923    -0.1464 N.am    
  27 C27            0.0782    -2.8553     0.1287 C.3     
  28 C28           -1.2075    -2.1479    -0.3020 C.3     
  29 C29            0.6644    -4.7735     2.1454 C.ar    
  30 C30            0.7137    -5.6821     3.2002 C.ar    
  31 C31            1.2295    -5.2710     4.4191 C.ar    
  32 C32            1.6783    -3.9651     4.5406 C.ar    
  33 C33            1.5989    -3.1153     3.4491 C.ar    
  34 N34            1.1048    -3.5316     2.3035 N.ar    
  35 C35            0.1215    -5.1991     0.8340 C.2     
  36 O36           -0.1599    -6.3656     0.6426 O.2     
  37 C37            0.2127    -7.0917     3.0187 C.3     
  38 F38            0.3697    -7.8001     4.2148 F       
  39 F39           -1.1412    -7.0639     2.6675 F       
  40 F40            0.9445    -7.7198     2.0052 F       
  41 C41            0.2515     2.6564    -4.1206 C.3     
  42 H42           -4.0888     6.8301    -1.8587 H       
  43 H43           -6.1742     6.5970    -0.5758 H       
  44 H44           -6.2352     5.1547     1.4177 H       
  45 H45           -4.9969     3.6132     2.9460 H       
  46 H46           -2.9244     2.4749     3.5389 H       
  47 H47           -0.8938     2.7778     2.1886 H       
  48 H48           -0.6801     4.4125    -2.4116 H       
  49 H49           -0.4239     0.0512    -4.2570 H       
  50 H50           -2.4255    -0.2283    -0.4704 H       
  51 H51           -1.9487     2.1442    -0.0494 H       
  52 H52           -2.5338    -4.4163    -1.3749 H       
  53 H53           -1.8561    -4.1694    -3.0055 H       
  54 H54           -0.5525    -5.8022    -1.5253 H       
  55 H55            0.4073    -4.4548    -2.1905 H       
  56 H56            0.2426    -2.7012     1.1951 H       
  57 H57            0.9202    -2.4542    -0.4355 H       
  58 H58           -1.0521    -1.0691    -0.2875 H       
  59 H59           -2.0142    -2.4130     0.3814 H       
  60 H60            1.2803    -5.9525     5.2554 H       
  61 H61            2.0854    -3.6133     5.4771 H       
  62 H62            1.9476    -2.0972     3.5402 H       
  63 H63            1.3206     2.5996    -3.9161 H       
  64 H64            0.0510     2.2644    -5.1177 H       
  65 H65           -0.0741     3.6952    -4.0663 H       
@<TRIPOS>BOND
   1    1    2 ar
   2    1   10 ar
   3    2    3 ar
   4    2   42 1
   5    3    4 ar
   6    3   43 1
   7    4    5 ar
   8    4   44 1
   9    5    6 ar
  10    5   10 ar
  11    6    7 ar
  12    6   45 1
  13    7    8 ar
  14    7   46 1
  15    8    9 ar
  16    8   47 1
  17    9   10 ar
  18    9   11 1
  19   11   12 2
  20   11   13 2
  21   11   14 am
  22   14   15 1
  23   14   48 1
  24   15   16 ar
  25   15   20 ar
  26   16   17 ar
  27   16   41 1
  28   17   18 ar
  29   17   49 1
  30   18   19 ar
  31   18   21 1
  32   19   20 ar
  33   19   50 1
  34   20   51 1
  35   21   22 2
  36   21   23 am
  37   23   24 1
  38   23   28 1
  39   24   25 1
  40   24   52 1
  41   24   53 1
  42   25   26 1
  43   25   54 1
  44   25   55 1
  45   26   27 1
  46   26   35 am
  47   27   28 1
  48   27   56 1
  49   27   57 1
  50   28   58 1
  51   28   59 1
  52   29   30 ar
  53   29   34 ar
  54   29   35 1
  55   30   31 ar
  56   30   37 1
  57   31   32 ar
  58   31   60 1
  59   32   33 ar
  60   32   61 1
  61   33   34 ar
  62   33   62 1
  63   35   36 2
  64   37   38 1
  65   37   39 1
  66   37   40 1
  67   41   63 1
  68   41   64 1
  69   41   65 1

#	End of record

