#	Name: ASD03081177
#	Creating user name:	WinNT
#	Creation time:	15. 06. 2019 20:27

#	Modifying user name:	WinNT
#	Modification time:	15. 06. 2019 20:27

#	Program:	/corina/corina34_cracker 3.40 0067  02.08.2006

@<TRIPOS>MOLECULE
ASD03081177
  48   50    0    0    0
SMALL
NO_CHARGES


@<TRIPOS>ATOM
   1 C1            -0.1511     1.7324    -0.3414 C.3     
   2 C2            -0.1220     0.2095    -0.1784 C.3     
   3 N3             0.7470    -0.3607    -1.2169 N.am    
   4 C4             2.1184     0.1498    -1.3486 C.3     
   5 C5             2.0651     1.6734    -1.4988 C.3     
   6 C6             1.2809     2.2710    -0.3290 C.3     
   7 C7             1.2534     3.7961    -0.4589 C.3     
   8 C8             0.5215     4.3926     0.7455 C.3     
   9 N9             1.2105     4.0002     1.9816 N.3     
  10 C10            1.2070     2.5416     2.1517 C.3     
  11 C11            1.9589     1.8893     0.9891 C.3     
  12 C12            0.6187     4.6677     3.1488 C.3     
  13 C13            0.2949    -1.3336    -2.0327 C.2     
  14 C14           -1.0375    -1.9269    -1.8061 C.ar    
  15 C15           -1.8778    -2.1958    -2.8896 C.ar    
  16 C16           -3.1213    -2.7498    -2.6742 C.ar    
  17 C17           -3.5401    -3.0407    -1.3805 C.ar    
  18 C18           -2.7065    -2.7745    -0.2999 C.ar    
  19 C19           -1.4592    -2.2264    -0.5081 C.ar    
  20 O20            0.9847    -1.7226    -2.9554 O.2     
  21 O21           -4.7659    -3.5855    -1.1720 O.3     
  22 C22           -4.8504    -5.0120    -1.1724 C.3     
  23 Cl23          -3.2346    -3.1398     1.3130 Cl      
  24 Cl24          -4.1662    -3.0843    -4.0195 Cl      
  25 H25           -0.6275     1.9878    -1.2880 H       
  26 H26           -0.7134     2.1755     0.4804 H       
  27 H27            0.2700    -0.0451     0.8063 H       
  28 H28           -1.1307    -0.1890    -0.2866 H       
  29 H29            2.6920    -0.1097    -0.4587 H       
  30 H30            2.5883    -0.2880    -2.2292 H       
  31 H31            3.0786     2.0745    -1.4999 H       
  32 H32            1.5713     1.9294    -2.4362 H       
  33 H33            2.2741     4.1771    -0.4898 H       
  34 H34            0.7327     4.0739    -1.3753 H       
  35 H35            0.5132     5.4795     0.6637 H       
  36 H36           -0.5034     4.0223     0.7677 H       
  37 H37            1.6967     2.2843     3.0908 H       
  38 H38            0.1788     2.1803     2.1675 H       
  39 H39            1.9415     0.8058     1.1069 H       
  40 H40            2.9913     2.2386     0.9818 H       
  41 H41           -0.4323     4.3909     3.2315 H       
  42 H42            1.1477     4.3594     4.0506 H       
  43 H43            0.7016     5.7481     3.0303 H       
  44 H44           -1.5535    -1.9694    -3.8946 H       
  45 H45           -0.8105    -2.0241     0.3313 H       
  46 H46           -4.5199    -5.3954    -2.1377 H       
  47 H47           -4.2135    -5.4139    -0.3844 H       
  48 H48           -5.8824    -5.3149    -0.9952 H       
@<TRIPOS>BOND
   1    1    2 1
   2    1    6 1
   3    1   25 1
   4    1   26 1
   5    2    3 1
   6    2   27 1
   7    2   28 1
   8    3    4 1
   9    3   13 am
  10    4    5 1
  11    4   29 1
  12    4   30 1
  13    5    6 1
  14    5   31 1
  15    5   32 1
  16    6    7 1
  17    6   11 1
  18    7    8 1
  19    7   33 1
  20    7   34 1
  21    8    9 1
  22    8   35 1
  23    8   36 1
  24    9   10 1
  25    9   12 1
  26   10   11 1
  27   10   37 1
  28   10   38 1
  29   11   39 1
  30   11   40 1
  31   12   41 1
  32   12   42 1
  33   12   43 1
  34   13   14 1
  35   13   20 2
  36   14   15 ar
  37   14   19 ar
  38   15   16 ar
  39   15   44 1
  40   16   17 ar
  41   16   24 1
  42   17   18 ar
  43   17   21 1
  44   18   19 ar
  45   18   23 1
  46   19   45 1
  47   21   22 1
  48   22   46 1
  49   22   47 1
  50   22   48 1

#	End of record

