#	Name: ASD06660017
#	Creating user name:	WinNT
#	Creation time:	15. 06. 2019 21:07

#	Modifying user name:	WinNT
#	Modification time:	15. 06. 2019 21:07

#	Program:	/corina/corina34_cracker 3.40 0067  02.08.2006

@<TRIPOS>MOLECULE
ASD06660017
  69   72    0    0    0
SMALL
NO_CHARGES


@<TRIPOS>ATOM
   1 C1            -0.5052     1.5083     1.0491 C.2     
   2 C2            -0.3294     0.0660     0.6492 C.3     
   3 C3            -1.3331    -0.2841    -0.4512 C.3     
   4 O4             0.4132     2.2844     0.9303 O.2     
   5 O5            -1.6837     1.9320     1.5321 O.3     
   6 C6            -1.2567    -1.7592    -0.7500 C.ar    
   7 C7            -2.0289    -2.6496    -0.0256 C.ar    
   8 C8            -1.9631    -4.0014    -0.2941 C.ar    
   9 C9            -1.1161    -4.4696    -1.2987 C.ar    
  10 C10           -0.3404    -3.5666    -2.0260 C.ar    
  11 C11           -0.4190    -2.2167    -1.7514 C.ar    
  12 O12           -0.2090    -6.3257    -2.5701 O.3     
  13 C13           -1.0404    -5.9183    -1.5915 C.2     
  14 N14           -1.7726    -6.7170    -0.8960 N.2     
  15 C15           -1.7789    -8.1661    -1.0802 C.3     
  16 C16           -1.1806    -8.5173    -2.4462 C.3     
  17 C17            0.1193    -7.7180    -2.6178 C.3     
  18 C18           -0.8776   -10.0157    -2.5077 C.3     
  19 N19           -0.4183   -10.3662    -3.8540 N.pl3   
  20 C20           -0.0811   -11.6811    -4.1529 C.ar    
  21 C21           -0.1820   -12.6596    -3.1688 C.ar    
  22 C22            0.1568   -13.9638    -3.4800 C.ar    
  23 C23            0.5869   -14.2472    -4.7698 C.ar    
  24 C24            0.6632   -13.2272    -5.6965 C.ar    
  25 N25            0.3282   -11.9924    -5.3730 N.ar    
  26 C26            2.0575    -0.2547     1.0191 C.2     
  27 C27            3.4418    -0.3706     0.5165 C.ar    
  28 C28            4.0375    -1.6273     0.3871 C.ar    
  29 C29            5.3290    -1.7297    -0.0827 C.ar    
  30 C30            6.0372    -0.5879    -0.4263 C.ar    
  31 C31            5.4507     0.6618    -0.2998 C.ar    
  32 C32            4.1573     0.7753     0.1637 C.ar    
  33 O33            1.8426    -0.2627     2.2156 O.2     
  34 N34            1.0329    -0.1401     0.1511 N.am    
  35 C35            3.5189     2.1341     0.2948 C.3     
  36 F36            7.3033    -0.6939    -0.8855 F       
  37 C37            3.2696    -2.8688     0.7611 C.3     
  38 C38            2.4464    -3.3403    -0.4393 C.3     
  39 H39           -0.5007    -0.5744     1.5144 H       
  40 H40           -2.3400    -0.0325    -0.1181 H       
  41 H41           -1.0965     0.2819    -1.3523 H       
  42 H42           -1.7485     2.8657     1.7751 H       
  43 H43           -2.6842    -2.2859     0.7520 H       
  44 H44           -2.5658    -4.6956     0.2726 H       
  45 H45            0.3175    -3.9230    -2.8048 H       
  46 H46            0.1780    -1.5162    -2.3165 H       
  47 H47           -1.1864    -8.6340    -0.2939 H       
  48 H48           -2.8037    -8.5337    -1.0280 H       
  49 H49           -1.8835    -8.2506    -3.2354 H       
  50 H50            0.5750    -7.9565    -3.5788 H       
  51 H51            0.8104    -7.9616    -1.8109 H       
  52 H52           -0.1001   -10.2592    -1.7837 H       
  53 H53           -1.7811   -10.5789    -2.2739 H       
  54 H54           -0.3496    -9.6806    -4.5368 H       
  55 H55           -0.5199   -12.4040    -2.1754 H       
  56 H56            0.0888   -14.7443    -2.7366 H       
  57 H57            0.8592   -15.2555    -5.0447 H       
  58 H58            0.9971   -13.4432    -6.7006 H       
  59 H59            5.7906    -2.7009    -0.1831 H       
  60 H60            6.0066     1.5479    -0.5688 H       
  61 H61            1.1974    -0.1941    -0.8033 H       
  62 H62            3.7202     2.5359     1.2878 H       
  63 H63            3.9324     2.8041    -0.4590 H       
  64 H64            2.4422     2.0451     0.1503 H       
  65 H65            3.9674    -3.6534     1.0537 H       
  66 H66            2.6027    -2.6465     1.5941 H       
  67 H67            1.8151    -4.1772    -0.1408 H       
  68 H68            1.8206    -2.5217    -0.7947 H       
  69 H69            3.1172    -3.6578    -1.2377 H       
@<TRIPOS>BOND
   1    1    2 1
   2    1    4 2
   3    1    5 1
   4    2    3 1
   5    2   34 1
   6    2   39 1
   7    3    6 1
   8    3   40 1
   9    3   41 1
  10    5   42 1
  11    6    7 ar
  12    6   11 ar
  13    7    8 ar
  14    7   43 1
  15    8    9 ar
  16    8   44 1
  17    9   10 ar
  18    9   13 1
  19   10   11 ar
  20   10   45 1
  21   11   46 1
  22   12   13 1
  23   12   17 1
  24   13   14 2
  25   14   15 1
  26   15   16 1
  27   15   47 1
  28   15   48 1
  29   16   17 1
  30   16   18 1
  31   16   49 1
  32   17   50 1
  33   17   51 1
  34   18   19 1
  35   18   52 1
  36   18   53 1
  37   19   20 1
  38   19   54 1
  39   20   21 ar
  40   20   25 ar
  41   21   22 ar
  42   21   55 1
  43   22   23 ar
  44   22   56 1
  45   23   24 ar
  46   23   57 1
  47   24   25 ar
  48   24   58 1
  49   26   27 1
  50   26   33 2
  51   26   34 am
  52   27   28 ar
  53   27   32 ar
  54   28   29 ar
  55   28   37 1
  56   29   30 ar
  57   29   59 1
  58   30   31 ar
  59   30   36 1
  60   31   32 ar
  61   31   60 1
  62   32   35 1
  63   34   61 1
  64   35   62 1
  65   35   63 1
  66   35   64 1
  67   37   38 1
  68   37   65 1
  69   37   66 1
  70   38   67 1
  71   38   68 1
  72   38   69 1

#	End of record

