#	Name: ASD00172008
#	Creating user name:	WinNT
#	Creation time:	15. 06. 2019 18:33

#	Modifying user name:	WinNT
#	Modification time:	15. 06. 2019 18:33

#	Program:	/corina/corina34_cracker 3.40 0067  02.08.2006

@<TRIPOS>MOLECULE
ASD00172008
  31   32    0    0    0
SMALL
NO_CHARGES


@<TRIPOS>ATOM
   1 C1            -0.0160     1.3307     0.0094 C.2     
   2 C2             0.0021    -0.0041     0.0020 C.2     
   3 C3            -1.3368    -0.5758     0.0006 C.2     
   4 C4            -2.3284     0.3646     0.0141 C.2     
   5 S5            -1.6685     1.9329     0.0207 S.3     
   6 N6            -3.6809     0.0808     0.0166 N.pl3   
   7 C7            -1.5957    -2.0171    -0.0147 C.2     
   8 N8            -1.7192    -2.6672    -1.1888 N.am    
   9 O9            -1.6993    -2.6280     1.0332 O.2     
  10 C10            1.2104     2.2194     0.0024 C.3     
  11 C11            2.2113     1.7377     1.0514 C.3     
  12 C12            3.1560     0.7217     0.4155 C.3     
  13 C13            2.4110    -0.0856    -0.6453 C.3     
  14 C14            1.2633    -0.8508     0.0063 C.3     
  15 C15            3.0178     2.9287     1.5730 C.3     
  16 H16           -3.9831    -0.8409     0.0085 H       
  17 H17           -4.3281     0.8033     0.0265 H       
  18 H18           -1.6366    -2.1804    -2.0237 H       
  19 H19           -1.8906    -3.6219    -1.1989 H       
  20 H20            1.6753     2.1867    -0.9829 H       
  21 H21            0.9157     3.2444     0.2276 H       
  22 H22            1.6760     1.2698     1.8775 H       
  23 H23            3.9920     1.2452    -0.0485 H       
  24 H24            3.5339     0.0478     1.1844 H       
  25 H25            2.0131     0.5901    -1.4024 H       
  26 H26            3.0978    -0.7907    -1.1135 H       
  27 H27            1.5302    -1.0965     1.0342 H       
  28 H28            1.0822    -1.7717    -0.5480 H       
  29 H29            2.3420     3.6559     2.0231 H       
  30 H30            3.7316     2.5843     2.3213 H       
  31 H31            3.5543     3.3943     0.7463 H       
@<TRIPOS>BOND
   1    1    2 2
   2    1   10 1
   3    1    5 1
   4    2    3 1
   5    2   14 1
   6    3    4 2
   7    3    7 1
   8    4    5 1
   9    4    6 1
  10    6   16 1
  11    6   17 1
  12    7    8 am
  13    7    9 2
  14    8   18 1
  15    8   19 1
  16   10   11 1
  17   10   20 1
  18   10   21 1
  19   11   12 1
  20   11   15 1
  21   11   22 1
  22   12   13 1
  23   12   23 1
  24   12   24 1
  25   13   14 1
  26   13   25 1
  27   13   26 1
  28   14   27 1
  29   14   28 1
  30   15   29 1
  31   15   30 1
  32   15   31 1

#	End of record

