#	Name: ASD03092440
#	Creating user name:	WinNT
#	Creation time:	15. 06. 2019 20:32

#	Modifying user name:	WinNT
#	Modification time:	15. 06. 2019 20:32

#	Program:	/corina/corina34_cracker 3.40 0067  02.08.2006

@<TRIPOS>MOLECULE
ASD03092440
  62   65    0    0    0
SMALL
NO_CHARGES


@<TRIPOS>ATOM
   1 O1            -0.5741     0.4626     0.3452 O.3     
   2 C2            -0.3842    -0.8574     0.2563 C.2     
   3 C3             0.9579    -1.0969     0.2070 C.2     
   4 C4             1.5985     0.2247     0.2749 C.2     
   5 C5             0.5985     1.1155     0.3570 C.2     
   6 C6             1.6260    -2.4067     0.1067 C.2     
   7 O7             0.9633    -3.4252     0.0586 O.2     
   8 N8             2.9715    -2.4756     0.0682 N.am    
   9 C9             0.7653     2.6105     0.4475 C.3     
  10 C10           -1.4683    -1.9033     0.2171 C.3     
  11 C11            3.6356    -3.7776    -0.0316 C.3     
  12 S12            7.5334    -3.2794    -0.7778 S.3     
  13 C13            7.1298    -3.2843     0.8833 C.2     
  14 N14            5.8504    -3.4506     1.0357 N.2     
  15 C15            5.1293    -3.5790    -0.0568 C.2     
  16 C16            5.8402    -3.5179    -1.2022 C.2     
  17 C17            5.3446    -4.5558    -4.7772 C.ar    
  18 C18            5.8870    -4.4811    -3.5126 C.ar    
  19 C19            5.2954    -3.6304    -2.5692 C.ar    
  20 C20            4.1717    -2.8900    -2.9600 C.ar    
  21 C21            3.6965    -3.0264    -4.2463 C.ar    
  22 N22            4.2843    -3.8402    -5.1038 N.ar    
  23 C23            2.4889    -2.2362    -4.6801 C.3     
  24 C24            5.9745    -5.4618    -5.8036 C.3     
  25 N25            8.0359    -3.1333     1.9172 N.3     
  26 C26            9.4020    -2.9661     1.4004 C.3     
  27 C27           10.3774    -2.8626     2.5758 C.3     
  28 O28            9.9825    -1.7798     3.4226 O.3     
  29 C29            8.6573    -1.9106     3.9442 C.3     
  30 C30            7.6645    -2.0044     2.7826 C.3     
  31 C31            8.3239    -0.6897     4.8039 C.3     
  32 C32           11.7902    -2.6082     2.0465 C.3     
  33 H33            2.6577     0.4354     0.2620 H       
  34 H34            3.5001    -1.6632     0.1065 H       
  35 H35           -0.2155     3.0829     0.5026 H       
  36 H36            1.3387     2.8587     1.3407 H       
  37 H37            1.2932     2.9713    -0.4351 H       
  38 H38           -2.4431    -1.4186     0.2723 H       
  39 H39           -1.3953    -2.4677    -0.7125 H       
  40 H40           -1.3508    -2.5803     1.0633 H       
  41 H41            3.3650    -4.3904     0.8283 H       
  42 H42            3.3200    -4.2773    -0.9475 H       
  43 H43            6.7543    -5.0697    -3.2524 H       
  44 H44            3.6854    -2.2229    -2.2637 H       
  45 H45            2.8096    -1.2793    -5.0920 H       
  46 H46            1.9433    -2.7946    -5.4407 H       
  47 H47            1.8403    -2.0630    -3.8213 H       
  48 H48            5.5182    -6.4499    -5.7448 H       
  49 H49            5.8169    -5.0475    -6.7995 H       
  50 H50            7.0439    -5.5432    -5.6090 H       
  51 H51            9.6654    -3.8251     0.7833 H       
  52 H52            9.4558    -2.0569     0.8016 H       
  53 H53           10.3629    -3.7928     3.1438 H       
  54 H54            8.5928    -2.8131     4.5519 H       
  55 H55            7.6905    -1.0798     2.2059 H       
  56 H56            6.6596    -2.1614     3.1745 H       
  57 H57            8.3869     0.2119     4.1946 H       
  58 H58            7.3138    -0.7899     5.2011 H       
  59 H59            9.0335    -0.6212     5.6285 H       
  60 H60           11.8038    -1.6769     1.4803 H       
  61 H61           12.4842    -2.5347     2.8838 H       
  62 H62           12.0891    -3.4319     1.3981 H       
@<TRIPOS>BOND
   1    1    2 1
   2    1    5 1
   3    2    3 2
   4    2   10 1
   5    3    4 1
   6    3    6 1
   7    4    5 2
   8    4   33 1
   9    5    9 1
  10    6    7 2
  11    6    8 am
  12    8   11 1
  13    8   34 1
  14    9   35 1
  15    9   36 1
  16    9   37 1
  17   10   38 1
  18   10   39 1
  19   10   40 1
  20   11   15 1
  21   11   41 1
  22   11   42 1
  23   12   13 1
  24   12   16 1
  25   13   14 2
  26   13   25 1
  27   14   15 1
  28   15   16 2
  29   16   19 1
  30   17   18 ar
  31   17   22 ar
  32   17   24 1
  33   18   19 ar
  34   18   43 1
  35   19   20 ar
  36   20   21 ar
  37   20   44 1
  38   21   22 ar
  39   21   23 1
  40   23   45 1
  41   23   46 1
  42   23   47 1
  43   24   48 1
  44   24   49 1
  45   24   50 1
  46   25   26 1
  47   25   30 1
  48   26   27 1
  49   26   51 1
  50   26   52 1
  51   27   28 1
  52   27   32 1
  53   27   53 1
  54   28   29 1
  55   29   30 1
  56   29   31 1
  57   29   54 1
  58   30   55 1
  59   30   56 1
  60   31   57 1
  61   31   58 1
  62   31   59 1
  63   32   60 1
  64   32   61 1
  65   32   62 1

#	End of record

