#	Name: ASD01910733
#	Creating user name:	WinNT
#	Creation time:	15. 06. 2019 19:56

#	Modifying user name:	WinNT
#	Modification time:	15. 06. 2019 19:56

#	Program:	/corina/corina34_cracker 3.40 0067  02.08.2006

@<TRIPOS>MOLECULE
ASD01910733
  55   58    0    0    0
SMALL
NO_CHARGES


@<TRIPOS>ATOM
   1 C1            12.4098    -2.3112     4.1835 C.ar    
   2 N2            12.9562    -2.4722     2.9901 N.ar    
   3 C3            12.2827    -2.1429     1.9043 C.ar    
   4 C4            10.9945    -1.6251     2.0167 C.ar    
   5 N5            10.4502    -1.4652     3.2161 N.ar    
   6 C6            11.1319    -1.7976     4.2991 C.ar    
   7 N7            10.2815    -1.2764     0.8756 N.3     
   8 C8             8.9532    -0.7544     1.2238 C.3     
   9 C9             8.2727    -0.2154    -0.0390 C.3     
  10 N10            8.2768    -1.2740    -1.0600 N.am    
  11 C11            9.5515    -1.9413    -1.3654 C.3     
  12 C12           10.1816    -2.4124    -0.0504 C.3     
  13 C13            7.1426    -1.6236    -1.6985 C.2     
  14 C14            7.1893    -2.5995    -2.8054 C.ar    
  15 O15            6.0809    -1.1353    -1.3631 O.2     
  16 C16            6.1812    -3.5599    -2.9340 C.ar    
  17 C17            6.2202    -4.4736    -3.9650 C.ar    
  18 C18            7.2598    -4.4477    -4.8831 C.ar    
  19 C19            8.2781    -3.4877    -4.7643 C.ar    
  20 C20            8.2359    -2.5602    -3.7261 C.ar    
  21 C21            9.3526    -3.4590    -5.7104 C.1     
  22 C22           10.2335    -3.4354    -6.4861 C.1     
  23 C23           11.3081    -3.4067    -7.4322 C.ar    
  24 O24            7.2930    -5.3497    -5.8955 O.3     
  25 C25            6.2252    -6.2975    -5.9553 C.3     
  26 C26           12.3215    -2.4521    -7.3147 C.ar    
  27 C27           13.3534    -2.4305    -8.2299 C.ar    
  28 C28           13.3861    -3.3508    -9.2625 C.ar    
  29 C29           12.3857    -4.2993    -9.3853 C.ar    
  30 C30           11.3512    -4.3370    -8.4743 C.ar    
  31 C31           12.4305    -5.2973   -10.5136 C.3     
  32 F32           13.5669    -5.0659   -11.2960 F       
  33 F33           12.4819    -6.5930    -9.9884 F       
  34 F34           11.2843    -5.1596   -11.3038 F       
  35 H35           12.9620    -2.5859     5.0701 H       
  36 H36           12.7297    -2.2744     0.9299 H       
  37 H37           10.6894    -1.6677     5.2757 H       
  38 H38            8.3481    -1.5547     1.6497 H       
  39 H39            9.0579     0.0498     1.9521 H       
  40 H40            7.2455     0.0675     0.1910 H       
  41 H41            8.8204     0.6517    -0.4083 H       
  42 H42            9.3697    -2.7995    -2.0124 H       
  43 H43           10.2220    -1.2401    -1.8623 H       
  44 H44           11.1772    -2.8106    -0.2463 H       
  45 H45            9.5594    -3.1896     0.3932 H       
  46 H46            5.3691    -3.5860    -2.2224 H       
  47 H47            5.4385    -5.2130    -4.0584 H       
  48 H48            9.0157    -1.8194    -3.6290 H       
  49 H49            6.3733    -6.9582    -6.8094 H       
  50 H50            6.2106    -6.8867    -5.0384 H       
  51 H51            5.2773    -5.7705    -6.0636 H       
  52 H52           12.2969    -1.7327    -6.5096 H       
  53 H53           14.1375    -1.6932    -8.1404 H       
  54 H54           14.1961    -3.3287    -9.9765 H       
  55 H55           10.5712    -5.0777    -8.5713 H       
@<TRIPOS>BOND
   1    1    2 ar
   2    1    6 ar
   3    1   35 1
   4    2    3 ar
   5    3    4 ar
   6    3   36 1
   7    4    5 ar
   8    4    7 1
   9    5    6 ar
  10    6   37 1
  11    7    8 1
  12    7   12 1
  13    8    9 1
  14    8   38 1
  15    8   39 1
  16    9   10 1
  17    9   40 1
  18    9   41 1
  19   10   11 1
  20   10   13 am
  21   11   12 1
  22   11   42 1
  23   11   43 1
  24   12   44 1
  25   12   45 1
  26   13   14 1
  27   13   15 2
  28   14   16 ar
  29   14   20 ar
  30   16   17 ar
  31   16   46 1
  32   17   18 ar
  33   17   47 1
  34   18   19 ar
  35   18   24 1
  36   19   20 ar
  37   19   21 1
  38   20   48 1
  39   21   22 3
  40   22   23 1
  41   23   26 ar
  42   23   30 ar
  43   24   25 1
  44   25   49 1
  45   25   50 1
  46   25   51 1
  47   26   27 ar
  48   26   52 1
  49   27   28 ar
  50   27   53 1
  51   28   29 ar
  52   28   54 1
  53   29   30 ar
  54   29   31 1
  55   30   55 1
  56   31   32 1
  57   31   33 1
  58   31   34 1

#	End of record

