#	Name: ASD01208569
#	Creating user name:	WinNT
#	Creation time:	15. 06. 2019 19:10

#	Modifying user name:	WinNT
#	Modification time:	15. 06. 2019 19:10

#	Program:	/corina/corina34_cracker 3.40 0067  02.08.2006

@<TRIPOS>MOLECULE
ASD01208569
  95   98    0    0    0
SMALL
NO_CHARGES


@<TRIPOS>ATOM
   1 C1             0.6605    -2.7998    -5.5786 C.ar    
   2 C2             1.7525    -1.9519    -5.5833 C.ar    
   3 C3             2.4244    -1.7078    -4.3966 C.ar    
   4 C4             1.9691    -2.3311    -3.2387 C.ar    
   5 C5             0.8659    -3.1690    -3.3138 C.ar    
   6 N6             0.2546    -3.3748    -4.4636 N.ar    
   7 S7            -0.2050    -3.1106    -7.0816 S.o2    
   8 O8            -1.5202    -3.4509    -6.6648 O.2     
   9 O9             0.0372    -1.9541    -7.8710 O.2     
  10 C10            0.6303    -4.5544    -7.7947 C.3     
  11 O11            2.5963    -2.1223    -2.0513 O.3     
  12 C12            3.6814    -1.3044    -2.0382 C.ar    
  13 C13            3.5136     0.0709    -2.1217 C.ar    
  14 C14            4.6179     0.9104    -2.1083 C.ar    
  15 C15            5.8934     0.3789    -2.0114 C.ar    
  16 C16            6.0667    -1.0030    -1.9273 C.ar    
  17 C17            4.9529    -1.8438    -1.9358 C.ar    
  18 N18            7.7308    -2.9035    -1.7355 N.pl3   
  19 C19            7.4260    -1.5745    -1.8238 C.2     
  20 C20            8.6018    -0.8591    -1.8002 C.2     
  21 C21            9.6506    -1.7739    -1.6950 C.2     
  22 C22            9.0970    -3.0353    -1.6559 C.2     
  23 O23            9.2350    -5.5084    -1.5139 O.3     
  24 C24            9.8376    -4.3003    -1.5475 C.2     
  25 N25           11.1354    -4.3612    -1.4757 N.2     
  26 C26           11.5312    -5.7806    -1.3936 C.3     
  27 C27           10.2317    -6.5040    -1.8229 C.3     
  28 C28           12.6729    -6.0863    -2.3651 C.3     
  29 O29           13.8495    -5.3883    -1.9522 O.3     
  30 Si30          15.0946    -5.5099    -2.9987 Si      
  31 C31           15.7835    -7.2400    -2.9459 C.3     
  32 C32           16.0287    -7.6472    -1.4916 C.3     
  33 C33           14.7842    -8.2066    -3.5845 C.3     
  34 C34           14.4965    -5.1319    -4.7221 C.3     
  35 C35           14.2405    -3.6294    -4.8550 C.3     
  36 C36           15.5593    -5.5599    -5.7361 C.3     
  37 C37           16.4261    -4.2966    -2.5233 C.3     
  38 C38           17.3625    -4.0751    -3.7128 C.3     
  39 C39           15.7847    -2.9660    -2.1245 C.3     
  40 C40           10.2475    -6.8192    -3.3200 C.3     
  41 O41            4.4481     2.2563    -2.1907 O.3     
  42 C42            5.6146     3.0678    -2.0399 C.3     
  43 C43            5.2127     4.4446    -1.5072 C.3     
  44 C44            6.3039     3.2271    -3.3965 C.3     
  45 O45            4.4086     5.1154    -2.4795 O.3     
  46 C46            3.9775     6.4176    -2.0789 C.3     
  47 H47            2.0782    -1.4856    -6.5014 H       
  48 H48            3.2807    -1.0503    -4.3709 H       
  49 H49            0.5045    -3.6580    -2.4213 H       
  50 H50            0.5590    -5.3938    -7.1030 H       
  51 H51            0.1544    -4.8200    -8.7387 H       
  52 H52            1.6795    -4.3169    -7.9708 H       
  53 H53            2.5205     0.4886    -2.1977 H       
  54 H54            6.7525     1.0332    -2.0014 H       
  55 H55            5.0825    -2.9137    -1.8667 H       
  56 H56            7.0902    -3.6319    -1.7263 H       
  57 H57            8.6957     0.2155    -1.8539 H       
  58 H58           10.7034    -1.5367    -1.6520 H       
  59 H59           11.8074    -6.0491    -0.3739 H       
  60 H60           10.0756    -7.4091    -1.2359 H       
  61 H61           12.8692    -7.1585    -2.3693 H       
  62 H62           12.3926    -5.7643    -3.3680 H       
  63 H63           16.7239    -7.2736    -3.4961 H       
  64 H64           15.0884    -7.6136    -0.9414 H       
  65 H65           16.4318    -8.6595    -1.4607 H       
  66 H66           16.7407    -6.9586    -1.0366 H       
  67 H67           13.9306    -8.3385    -2.9196 H       
  68 H68           14.4435    -7.8002    -4.5369 H       
  69 H69           15.2664    -9.1696    -3.7522 H       
  70 H70           13.5718    -5.6764    -4.9133 H       
  71 H71           15.1914    -3.0966    -4.8463 H       
  72 H72           13.7214    -3.4308    -5.7926 H       
  73 H73           13.6263    -3.2902    -4.0208 H       
  74 H74           16.4419    -4.9299    -5.6250 H       
  75 H75           15.8312    -6.6006    -5.5601 H       
  76 H76           15.1619    -5.4539    -6.7455 H       
  77 H77           16.9948    -4.6924    -1.6819 H       
  78 H78           16.8424    -3.5066    -4.4838 H       
  79 H79           18.2423    -3.5216    -3.3845 H       
  80 H80           17.6700    -5.0393    -4.1176 H       
  81 H81           15.1703    -2.5980    -2.9462 H       
  82 H82           15.1615    -3.1129    -1.2424 H       
  83 H83           16.5654    -2.2389    -1.9008 H       
  84 H84           10.4494    -5.9068    -3.8812 H       
  85 H85           11.0255    -7.5536    -3.5285 H       
  86 H86            9.2790    -7.2215    -3.6168 H       
  87 H87            6.2996     2.5923    -1.3379 H       
  88 H88            4.6439     4.3255    -0.5850 H       
  89 H89            6.1085     5.0328    -1.3082 H       
  90 H90            6.5902     2.2463    -3.7761 H       
  91 H91            5.6188     3.7025    -4.0985 H       
  92 H92            7.1936     3.8461    -3.2815 H       
  93 H93            4.8477     7.0468    -1.8917 H       
  94 H94            3.3730     6.8598    -2.8707 H       
  95 H95            3.3831     6.3394    -1.1686 H       
@<TRIPOS>BOND
   1    1    2 ar
   2    1    6 ar
   3    1    7 1
   4    2    3 ar
   5    2   47 1
   6    3    4 ar
   7    3   48 1
   8    4    5 ar
   9    4   11 1
  10    5    6 ar
  11    5   49 1
  12    7    8 2
  13    7    9 2
  14    7   10 1
  15   10   50 1
  16   10   51 1
  17   10   52 1
  18   11   12 1
  19   12   13 ar
  20   12   17 ar
  21   13   14 ar
  22   13   53 1
  23   14   15 ar
  24   14   41 1
  25   15   16 ar
  26   15   54 1
  27   16   17 ar
  28   16   19 1
  29   17   55 1
  30   18   19 1
  31   18   22 1
  32   18   56 1
  33   19   20 2
  34   20   21 1
  35   20   57 1
  36   21   22 2
  37   21   58 1
  38   22   24 1
  39   23   24 1
  40   23   27 1
  41   24   25 2
  42   25   26 1
  43   26   27 1
  44   26   28 1
  45   26   59 1
  46   27   40 1
  47   27   60 1
  48   28   29 1
  49   28   61 1
  50   28   62 1
  51   29   30 1
  52   30   31 1
  53   30   34 1
  54   30   37 1
  55   31   32 1
  56   31   33 1
  57   31   63 1
  58   32   64 1
  59   32   65 1
  60   32   66 1
  61   33   67 1
  62   33   68 1
  63   33   69 1
  64   34   35 1
  65   34   36 1
  66   34   70 1
  67   35   71 1
  68   35   72 1
  69   35   73 1
  70   36   74 1
  71   36   75 1
  72   36   76 1
  73   37   38 1
  74   37   39 1
  75   37   77 1
  76   38   78 1
  77   38   79 1
  78   38   80 1
  79   39   81 1
  80   39   82 1
  81   39   83 1
  82   40   84 1
  83   40   85 1
  84   40   86 1
  85   41   42 1
  86   42   43 1
  87   42   44 1
  88   42   87 1
  89   43   45 1
  90   43   88 1
  91   43   89 1
  92   44   90 1
  93   44   91 1
  94   44   92 1
  95   45   46 1
  96   46   93 1
  97   46   94 1
  98   46   95 1

#	End of record

