#	Name: ASD01812760
#	Creating user name:	WinNT
#	Creation time:	15. 06. 2019 19:29

#	Modifying user name:	WinNT
#	Modification time:	15. 06. 2019 19:29

#	Program:	/corina/corina34_cracker 3.40 0067  02.08.2006

@<TRIPOS>MOLECULE
ASD01812760
  44   47    0    0    0
SMALL
NO_CHARGES


@<TRIPOS>ATOM
   1 N1            -0.0158     1.3147     0.0093 N.ar    
   2 C2             0.0021    -0.0041     0.0020 C.ar    
   3 C3             1.1989    -0.7033    -0.0127 C.ar    
   4 C4             2.3829    -0.0013    -0.0202 C.ar    
   5 C5             2.3448     1.3978    -0.0128 C.ar    
   6 C6             1.0955     2.0332     0.0025 C.ar    
   7 C7             3.8373    -0.3889    -0.0363 C.3     
   8 N8             4.5955     0.8684    -0.0373 N.am    
   9 C9             3.7280     1.8961    -0.0237 C.2     
  10 C10            6.0558     0.9844    -0.0504 C.3     
  11 C11            6.5432     1.0311    -1.4757 C.ar    
  12 C12            6.6720     2.2460    -2.1225 C.ar    
  13 C13            7.1194     2.2894    -3.4295 C.ar    
  14 C14            7.4384     1.1168    -4.0903 C.ar    
  15 C15            7.3094    -0.0987    -3.4427 C.ar    
  16 C16            6.8669    -0.1406    -2.1340 C.ar    
  17 O17            1.0255     3.3856     0.0100 O.3     
  18 O18            4.0429     3.0706    -0.0212 O.2     
  19 C19           -0.2795     3.9677     0.0251 C.3     
  20 Br20           8.0500     1.1753    -5.8787 Br      
  21 C21           -0.1576     5.4928     0.0317 C.3     
  22 C22           -1.5627     6.1448    -0.0068 C.3     
  23 O23            0.4301     5.9407     1.2635 O.3     
  24 C24           -0.1730     7.1736     1.6734 C.3     
  25 C25           -1.2652     7.5248     0.6404 C.3     
  26 H26           -0.9309    -0.5480     0.0080 H       
  27 H27            1.2023    -1.7833    -0.0178 H       
  28 H28            4.0797    -0.9721     0.8522 H       
  29 H29            4.0624    -0.9631    -0.9351 H       
  30 H30            6.3524     1.8979     0.4651 H       
  31 H31            6.4932     0.1235     0.4552 H       
  32 H32            6.4225     3.1615    -1.6066 H       
  33 H33            7.2196     3.2385    -3.9349 H       
  34 H34            7.5580    -1.0145    -3.9584 H       
  35 H35            6.7701    -1.0893    -1.6269 H       
  36 H36           -0.8289     3.6509    -0.8614 H       
  37 H37           -0.8123     3.6419     0.9185 H       
  38 H38            0.4398     5.8277    -0.8163 H       
  39 H39           -1.9146     6.2594    -1.0321 H       
  40 H40           -2.2760     5.5765     0.5902 H       
  41 H41           -0.6213     7.0559     2.6600 H       
  42 H42            0.5788     7.9624     1.6994 H       
  43 H43           -0.8858     8.2275    -0.1015 H       
  44 H44           -2.1526     7.9213     1.1337 H       
@<TRIPOS>BOND
   1    1    2 ar
   2    1    6 ar
   3    2    3 ar
   4    2   26 1
   5    3    4 ar
   6    3   27 1
   7    4    7 1
   8    4    5 ar
   9    5    6 ar
  10    5    9 1
  11    6   17 1
  12    7    8 1
  13    7   28 1
  14    7   29 1
  15    8    9 am
  16    8   10 1
  17    9   18 2
  18   10   11 1
  19   10   30 1
  20   10   31 1
  21   11   12 ar
  22   11   16 ar
  23   12   13 ar
  24   12   32 1
  25   13   14 ar
  26   13   33 1
  27   14   15 ar
  28   14   20 1
  29   15   16 ar
  30   15   34 1
  31   16   35 1
  32   17   19 1
  33   19   21 1
  34   19   36 1
  35   19   37 1
  36   21   23 1
  37   21   22 1
  38   21   38 1
  39   22   25 1
  40   22   39 1
  41   22   40 1
  42   23   24 1
  43   24   25 1
  44   24   41 1
  45   24   42 1
  46   25   43 1
  47   25   44 1

#	End of record

