#	Name: ASD01148876
#	Creating user name:	WinNT
#	Creation time:	15. 06. 2019 19:03

#	Modifying user name:	WinNT
#	Modification time:	15. 06. 2019 19:03

#	Program:	/corina/corina34_cracker 3.40 0067  02.08.2006

@<TRIPOS>MOLECULE
ASD01148876
  39   41    0    0    0
SMALL
NO_CHARGES


@<TRIPOS>ATOM
   1 N1            -0.0137     1.3588     0.0873 N.pl3   
   2 C2            -0.0001     0.0072    -0.1040 C.2     
   3 C3             1.2852    -0.4046    -0.1570 C.2     
   4 C4             2.1036     0.7253     0.0063 C.2     
   5 C5             1.2840     1.8035     0.1556 C.2     
   6 C6             1.7150     3.2035     0.3551 C.ar    
   7 C7             3.0001     3.6010    -0.0170 C.ar    
   8 C8             3.3959     4.9091     0.1715 C.ar    
   9 C9             2.5221     5.8260     0.7284 C.ar    
  10 C10            1.2468     5.4384     1.0995 C.ar    
  11 C11            0.8365     4.1348     0.9111 C.ar    
  12 C12           -1.2140    -0.8763    -0.2337 C.3     
  13 C13           -1.1594     2.1591     0.1906 C.ar    
  14 C14           -1.9979     2.0350     1.2905 C.ar    
  15 C15           -3.1259     2.8254     1.3897 C.ar    
  16 C16           -3.4210     3.7398     0.3950 C.ar    
  17 C17           -2.5881     3.8656    -0.7014 C.ar    
  18 C18           -1.4554     3.0815    -0.8037 C.ar    
  19 S19           -4.1908     2.6683     2.7848 S.o2    
  20 O20           -5.4590     3.0964     2.3076 O.2     
  21 O21           -3.9882     1.3347     3.2318 O.2     
  22 C22           -3.5325     3.8513     3.9921 C.3     
  23 H23            1.6231    -1.4204    -0.2994 H       
  24 H24            3.1835     0.7373     0.0125 H       
  25 H25            3.6834     2.8861    -0.4512 H       
  26 H26            4.3900     5.2180    -0.1160 H       
  27 H27            2.8371     6.8487     0.8745 H       
  28 H28            0.5696     6.1590     1.5337 H       
  29 H29           -0.1607     3.8346     1.1971 H       
  30 H30           -1.5029    -0.9453    -1.2824 H       
  31 H31           -0.9813    -1.8715     0.1453 H       
  32 H32           -2.0360    -0.4512     0.3424 H       
  33 H33           -1.7682     1.3209     2.0675 H       
  34 H34           -4.3040     4.3566     0.4746 H       
  35 H35           -2.8213     4.5803    -1.4768 H       
  36 H36           -0.8030     3.1832    -1.6584 H       
  37 H37           -3.5610     4.8556     3.5695 H       
  38 H38           -4.1381     3.8210     4.8979 H       
  39 H39           -2.5028     3.5882     4.2345 H       
@<TRIPOS>BOND
   1    1    2 1
   2    1    5 1
   3    1   13 1
   4    2    3 2
   5    2   12 1
   6    3    4 1
   7    3   23 1
   8    4    5 2
   9    4   24 1
  10    5    6 1
  11    6    7 ar
  12    6   11 ar
  13    7    8 ar
  14    7   25 1
  15    8    9 ar
  16    8   26 1
  17    9   10 ar
  18    9   27 1
  19   10   11 ar
  20   10   28 1
  21   11   29 1
  22   12   30 1
  23   12   31 1
  24   12   32 1
  25   13   14 ar
  26   13   18 ar
  27   14   15 ar
  28   14   33 1
  29   15   16 ar
  30   15   19 1
  31   16   17 ar
  32   16   34 1
  33   17   18 ar
  34   17   35 1
  35   18   36 1
  36   19   20 2
  37   19   21 2
  38   19   22 1
  39   22   37 1
  40   22   38 1
  41   22   39 1

#	End of record

