#	Name: ASD03092034
#	Creating user name:	WinNT
#	Creation time:	15. 06. 2019 20:31

#	Modifying user name:	WinNT
#	Modification time:	15. 06. 2019 20:31

#	Program:	/corina/corina34_cracker 3.40 0067  02.08.2006

@<TRIPOS>MOLECULE
ASD03092034
  49   51    0    0    0
SMALL
NO_CHARGES


@<TRIPOS>ATOM
   1 N1            -0.0836     1.2884     1.2667 N.pl3   
   2 C2             0.0104    -0.0474     1.0103 C.2     
   3 C3            -1.2151    -0.4684     0.5785 C.2     
   4 C4            -2.0713     0.6399     0.5737 C.2     
   5 N5            -1.3973     1.6873     0.9894 N.2     
   6 C6             0.9959     2.1517     1.7521 C.3     
   7 C7             1.7965     2.6612     0.5814 C.2     
   8 N8            -3.4193     0.6313     0.1949 N.pl3   
   9 C9            -4.1327     1.8303     0.1247 C.ar    
  10 C10           -5.4980     1.8438     0.3813 C.ar    
  11 C11           -6.2015     3.0305     0.3119 C.ar    
  12 C12           -5.5491     4.2052    -0.0126 C.ar    
  13 C13           -4.1877     4.1966    -0.2693 C.ar    
  14 C14           -3.4772     3.0123    -0.1961 C.ar    
  15 C15            1.2181    -0.8865     1.1700 C.ar    
  16 C16            1.9105    -0.9264     2.3854 C.ar    
  17 C17            3.0320    -1.7226     2.4903 C.ar    
  18 N18            3.4528    -2.4387     1.4652 N.ar    
  19 C19            2.8296    -2.4299     0.3020 C.ar    
  20 C20            1.6967    -1.6672     0.1114 C.ar    
  21 N21            2.8475     3.4790     0.7886 N.am    
  22 C22            0.9921    -1.6639    -1.2208 C.3     
  23 F23           -3.5531     5.3462    -0.5867 F       
  24 C24            3.6258     3.9743    -0.3494 C.3     
  25 O25            1.4951     2.3352    -0.5472 O.2     
  26 C26            3.2116     3.8728     2.1519 C.3     
  27 C27           -7.6826     3.0445     0.5898 C.3     
  28 F28           -7.8989     3.2670     1.9540 F       
  29 F29           -8.2865     4.0662    -0.1509 F       
  30 F30           -8.2372     1.8132     0.2245 F       
  31 H31           -1.4770    -1.4762     0.2917 H       
  32 H32            0.5700     2.9951     2.2956 H       
  33 H33            1.6458     1.5822     2.4164 H       
  34 H34           -3.8577    -0.2071    -0.0188 H       
  35 H35           -6.0091     0.9268     0.6346 H       
  36 H36           -6.1019     5.1315    -0.0665 H       
  37 H37           -2.4159     3.0051    -0.3962 H       
  38 H38            1.5721    -0.3423     3.2284 H       
  39 H39            3.5732    -1.7601     3.4242 H       
  40 H40            3.2096    -3.0316    -0.5104 H       
  41 H41            0.1776    -2.3879    -1.2028 H       
  42 H42            0.5903    -0.6698    -1.4168 H       
  43 H43            1.6989    -1.9315    -2.0063 H       
  44 H44            3.1978     4.9129    -0.7014 H       
  45 H45            4.6578     4.1391    -0.0396 H       
  46 H46            3.6010     3.2393    -1.1540 H       
  47 H47            3.9230     3.1547     2.5598 H       
  48 H48            3.6650     4.8639     2.1350 H       
  49 H49            2.3177     3.8928     2.7753 H       
@<TRIPOS>BOND
   1    1    2 1
   2    1    6 1
   3    1    5 1
   4    2    3 2
   5    2   15 1
   6    3    4 1
   7    3   31 1
   8    4    5 2
   9    4    8 1
  10    6    7 1
  11    6   32 1
  12    6   33 1
  13    7   21 am
  14    7   25 2
  15    8    9 1
  16    8   34 1
  17    9   10 ar
  18    9   14 ar
  19   10   11 ar
  20   10   35 1
  21   11   12 ar
  22   11   27 1
  23   12   13 ar
  24   12   36 1
  25   13   14 ar
  26   13   23 1
  27   14   37 1
  28   15   16 ar
  29   15   20 ar
  30   16   17 ar
  31   16   38 1
  32   17   18 ar
  33   17   39 1
  34   18   19 ar
  35   19   20 ar
  36   19   40 1
  37   20   22 1
  38   21   24 1
  39   21   26 1
  40   22   41 1
  41   22   42 1
  42   22   43 1
  43   24   44 1
  44   24   45 1
  45   24   46 1
  46   26   47 1
  47   26   48 1
  48   26   49 1
  49   27   28 1
  50   27   29 1
  51   27   30 1

#	End of record

