#	Name: ASD04590001
#	Creating user name:	WinNT
#	Creation time:	15. 06. 2019 20:50

#	Modifying user name:	WinNT
#	Modification time:	15. 06. 2019 20:50

#	Program:	/corina/corina34_cracker 3.40 0067  02.08.2006

@<TRIPOS>MOLECULE
ASD04590001
  55   58    0    0    0
SMALL
NO_CHARGES


@<TRIPOS>ATOM
   1 C1             0.4649     1.5635    -0.4434 C.ar    
   2 C2             0.3146     0.2237    -0.0899 C.ar    
   3 C3             1.4410    -0.5544     0.2551 C.ar    
   4 C4             2.6936     0.0603     0.2534 C.ar    
   5 C5             2.8247     1.3851    -0.1039 C.ar    
   6 C6             1.7164     2.1391    -0.4528 C.ar    
   7 N7             1.2264    -1.8892     0.5531 N.3     
   8 C8             2.3872    -2.6490     1.0416 C.3     
   9 C9             3.5874    -2.2088     0.2297 C.3     
  10 C10            3.8739    -0.7435     0.6672 C.3     
  11 C11            4.9301    -2.8755     0.5289 C.3     
  12 C12            5.9540    -1.8263     0.0079 C.3     
  13 C13            5.2262    -0.4560     0.0377 C.3     
  14 C14            2.6215    -2.3464     2.5230 C.3     
  15 C15            1.4503    -2.8875     3.3454 C.3     
  16 C16            1.6846    -2.5849     4.8268 C.3     
  17 Cl17           5.0159     0.1785    -1.6368 Cl      
  18 S18            7.4082    -1.7833     1.0915 S.3     
  19 C19            8.4884    -0.6661     0.2611 C.ar    
  20 C20            9.7345    -0.3713     0.8009 C.ar    
  21 C21           10.5785     0.5048     0.1472 C.ar    
  22 C22           10.1849     1.0885    -1.0430 C.ar    
  23 C23            8.9453     0.7974    -1.5833 C.ar    
  24 C24            8.0985    -0.0820    -0.9384 C.ar    
  25 N25            4.1665     2.0099    -0.1142 N.pl3   
  26 O26            4.9045     1.8837     0.8465 O.2     
  27 O27            4.5326     2.6503    -1.0834 O.2     
  28 C28           -1.0271    -0.3837    -0.0757 C.2     
  29 O29           -1.1622    -1.5516     0.2320 O.2     
  30 O30           -2.1050     0.3556    -0.4040 O.3     
  31 N31           10.1564    -0.9951     2.0750 N.pl3   
  32 O32           11.2487    -0.7361     2.5474 O.2     
  33 O33            9.4113    -1.7674     2.6511 O.2     
  34 H34           -0.4005     2.1500    -0.7147 H       
  35 H35            1.8333     3.1758    -0.7321 H       
  36 H36            0.4362    -1.9993     1.1708 H       
  37 H37            2.2168    -3.7166     0.9026 H       
  38 H38            3.3601    -2.2511    -0.8355 H       
  39 H39            3.9741    -0.7056     1.7519 H       
  40 H40            5.0519    -3.0359     1.6001 H       
  41 H41            5.0261    -3.8139    -0.0172 H       
  42 H42            6.2532    -2.0693    -1.0116 H       
  43 H43            5.7838     0.2560     0.6463 H       
  44 H44            3.5457    -2.8232     2.8495 H       
  45 H45            2.6985    -1.2686     2.6659 H       
  46 H46            0.5261    -2.4107     3.0190 H       
  47 H47            1.3732    -3.9653     3.2025 H       
  48 H48            2.6088    -3.0618     5.1533 H       
  49 H49            1.7616    -1.5071     4.9698 H       
  50 H50            0.8502    -2.9704     5.4128 H       
  51 H51           11.5469     0.7347     0.5663 H       
  52 H52           10.8469     1.7736    -1.5518 H       
  53 H53            8.6412     1.2550    -2.5131 H       
  54 H54            7.1309    -0.3091    -1.3610 H       
  55 H55           -2.9646    -0.0868    -0.3802 H       
@<TRIPOS>BOND
   1    1    2 ar
   2    1    6 ar
   3    1   34 1
   4    2    3 ar
   5    2   28 1
   6    3    4 ar
   7    3    7 1
   8    4    5 ar
   9    4   10 1
  10    5    6 ar
  11    5   25 1
  12    6   35 1
  13    7    8 1
  14    7   36 1
  15    8    9 1
  16    8   14 1
  17    8   37 1
  18    9   10 1
  19    9   11 1
  20    9   38 1
  21   10   13 1
  22   10   39 1
  23   11   12 1
  24   11   40 1
  25   11   41 1
  26   12   13 1
  27   12   18 1
  28   12   42 1
  29   13   17 1
  30   13   43 1
  31   14   15 1
  32   14   44 1
  33   14   45 1
  34   15   16 1
  35   15   46 1
  36   15   47 1
  37   16   48 1
  38   16   49 1
  39   16   50 1
  40   18   19 1
  41   19   20 ar
  42   19   24 ar
  43   20   21 ar
  44   20   31 1
  45   21   22 ar
  46   21   51 1
  47   22   23 ar
  48   22   52 1
  49   23   24 ar
  50   23   53 1
  51   24   54 1
  52   25   26 2
  53   25   27 2
  54   28   29 2
  55   28   30 1
  56   30   55 1
  57   31   32 2
  58   31   33 2

#	End of record

