#	Name: ASD01410264
#	Creating user name:	WinNT
#	Creation time:	15. 06. 2019 19:17

#	Modifying user name:	WinNT
#	Modification time:	15. 06. 2019 19:17

#	Program:	/corina/corina34_cracker 3.40 0067  02.08.2006

@<TRIPOS>MOLECULE
ASD01410264
  30   31    0    0    0
SMALL
NO_CHARGES


@<TRIPOS>ATOM
   1 C1            -0.3495     1.4659    -1.7380 C.ar    
   2 C2            -0.0693     0.2339    -1.1806 C.ar    
   3 C3            -0.9972    -0.3935    -0.3644 C.ar    
   4 C4            -2.2097     0.2068    -0.1008 C.ar    
   5 C5            -2.5057     1.4535    -0.6580 C.ar    
   6 C6            -1.5626     2.0872    -1.4781 C.ar    
   7 O7            -1.8390     3.2978    -2.0247 O.3     
   8 I8             1.0625     2.4021    -2.9705 I       
   9 C9            -3.8016     2.1012    -0.3803 C.2     
  10 N10           -4.8719     1.3522    -0.0487 N.am    
  11 C11           -7.2238     1.2021     0.4778 C.ar    
  12 C12           -6.0848     1.9700     0.2746 C.ar    
  13 C13           -6.1515     3.3521     0.3932 C.ar    
  14 C14           -7.3508     3.9596     0.7131 C.ar    
  15 C15           -8.4851     3.1907     0.9156 C.ar    
  16 C16           -8.4203     1.8139     0.7978 C.ar    
  17 I17           -0.5553    -2.2628     0.4720 I       
  18 Cl18          -9.9903     3.9561     1.3185 Cl      
  19 O19           -3.9042     3.3108    -0.4507 O.2     
  20 Cl20          -7.4358     5.6871     0.8618 Cl      
  21 C21           -4.7652    -0.1087    -0.0268 C.3     
  22 H22            0.8782    -0.2437    -1.3822 H       
  23 H23           -2.9301    -0.2860     0.5353 H       
  24 H24           -1.5717     4.0476    -1.4755 H       
  25 H25           -7.1752     0.1275     0.3816 H       
  26 H26           -5.2669     3.9515     0.2360 H       
  27 H27           -9.3062     1.2167     0.9559 H       
  28 H28           -4.5418    -0.4415     0.9868 H       
  29 H29           -5.7083    -0.5468    -0.3535 H       
  30 H30           -3.9662    -0.4248    -0.6974 H       
@<TRIPOS>BOND
   1    1    2 ar
   2    1    8 1
   3    1    6 ar
   4    2    3 ar
   5    2   22 1
   6    3    4 ar
   7    3   17 1
   8    4    5 ar
   9    4   23 1
  10    5    6 ar
  11    5    9 1
  12    6    7 1
  13    7   24 1
  14    9   10 am
  15    9   19 2
  16   10   21 1
  17   10   12 1
  18   11   12 ar
  19   11   16 ar
  20   11   25 1
  21   12   13 ar
  22   13   14 ar
  23   13   26 1
  24   14   15 ar
  25   14   20 1
  26   15   16 ar
  27   15   18 1
  28   16   27 1
  29   21   28 1
  30   21   29 1
  31   21   30 1

#	End of record

