#	Name: ASD05130061
#	Creating user name:	WinNT
#	Creation time:	15. 06. 2019 20:56

#	Modifying user name:	WinNT
#	Modification time:	15. 06. 2019 20:56

#	Program:	/corina/corina34_cracker 3.40 0067  02.08.2006

@<TRIPOS>MOLECULE
ASD05130061
  64   67    0    0    0
SMALL
NO_CHARGES


@<TRIPOS>ATOM
   1 N1            -0.1618     1.5507     0.1047 N.am    
   2 C2             0.0498     0.4225     0.8111 C.2     
   3 O3             1.1167     0.2440     1.3664 O.2     
   4 N4            -0.9211    -0.5078     0.9019 N.am    
   5 C5            -0.6666    -1.7244     1.5448 C.ar    
   6 C6            -1.6778    -2.3637     2.2499 C.ar    
   7 C7            -1.4235    -3.5646     2.8829 C.ar    
   8 C8            -0.1634    -4.1301     2.8156 C.ar    
   9 C9             0.8459    -3.4957     2.1148 C.ar    
  10 C10            0.5963    -2.2977     1.4743 C.ar    
  11 C11            0.8127     2.5568     0.0834 C.ar    
  12 C12            0.4373     3.8859    -0.0883 C.ar    
  13 C13            1.3973     4.8821    -0.1099 C.ar    
  14 C14            2.7322     4.5629     0.0392 C.ar    
  15 C15            3.1166     3.2337     0.2121 C.ar    
  16 C16            2.1497     2.2297     0.2388 C.ar    
  17 C17            3.7743     5.6513     0.0145 C.3     
  18 F18           -0.8675     4.2042    -0.2347 F       
  19 N19            6.3805     2.2157     1.8348 N.am    
  20 C20            5.0782     2.5291     1.6889 C.2     
  21 C21            4.5490     2.8896     0.3717 C.2     
  22 C22            5.3859     2.9062    -0.7107 C.2     
  23 C23            6.7495     2.5732    -0.5318 C.ar    
  24 C24            7.6414     2.5776    -1.6114 C.ar    
  25 N25            8.9058     2.2655    -1.4279 N.ar    
  26 C26            9.3883     1.9381    -0.2339 C.ar    
  27 C27            8.5738     1.9091     0.8893 C.ar    
  28 C28            7.2285     2.2300     0.7515 C.ar    
  29 O29            4.3380     2.5126     2.6563 O.2     
  30 N30           10.7323     1.6187    -0.1077 N.pl3   
  31 C31           11.2792     1.2557     1.2020 C.3     
  32 C32           12.7724     0.9521     1.0648 C.3     
  33 O33           13.4669     2.1407     0.6815 O.3     
  34 C34           14.8765     1.9656     0.5252 C.3     
  35 C35            6.8989     1.8622     3.1587 C.3     
  36 C36            6.7736     0.3519     3.3689 C.3     
  37 H37           -0.9871     1.6642    -0.3920 H       
  38 H38           -1.7964    -0.3341     0.5216 H       
  39 H39           -2.6620    -1.9222     2.3034 H       
  40 H40           -2.2095    -4.0623     3.4314 H       
  41 H41            0.0331    -5.0690     3.3118 H       
  42 H42            1.8292    -3.9395     2.0647 H       
  43 H43            1.3837    -1.8050     0.9234 H       
  44 H44            1.1016     5.9122    -0.2441 H       
  45 H45            2.4427     1.1994     0.3766 H       
  46 H46            3.9375     6.0211     1.0268 H       
  47 H47            4.7079     5.2515    -0.3812 H       
  48 H48            3.4312     6.4685    -0.6199 H       
  49 H49            5.0106     3.1696    -1.6886 H       
  50 H50            7.2895     2.8379    -2.5987 H       
  51 H51            8.9783     1.6409     1.8541 H       
  52 H52           11.3100     1.6357    -0.8867 H       
  53 H53           11.1391     2.0840     1.8965 H       
  54 H54           10.7622     0.3735     1.5797 H       
  55 H55           13.1602     0.5967     2.0195 H       
  56 H56           12.9189     0.1846     0.3048 H       
  57 H57           15.3302     2.9128     0.2337 H       
  58 H58           15.3079     1.6312     1.4687 H       
  59 H59           15.0666     1.2191    -0.2460 H       
  60 H60            7.9471     2.1530     3.2280 H       
  61 H61            6.3256     2.3844     3.9247 H       
  62 H62            5.7254     0.0612     3.2996 H       
  63 H63            7.3469    -0.1703     2.6029 H       
  64 H64            7.1593     0.0889     4.3538 H       
@<TRIPOS>BOND
   1    1    2 am
   2    1   11 1
   3    1   37 1
   4    2    3 2
   5    2    4 am
   6    4    5 1
   7    4   38 1
   8    5    6 ar
   9    5   10 ar
  10    6    7 ar
  11    6   39 1
  12    7    8 ar
  13    7   40 1
  14    8    9 ar
  15    8   41 1
  16    9   10 ar
  17    9   42 1
  18   10   43 1
  19   11   12 ar
  20   11   16 ar
  21   12   13 ar
  22   12   18 1
  23   13   14 ar
  24   13   44 1
  25   14   15 ar
  26   14   17 1
  27   15   16 ar
  28   15   21 1
  29   16   45 1
  30   17   46 1
  31   17   47 1
  32   17   48 1
  33   19   20 am
  34   19   28 1
  35   19   35 1
  36   20   21 1
  37   20   29 2
  38   21   22 2
  39   22   23 1
  40   22   49 1
  41   23   24 ar
  42   23   28 ar
  43   24   25 ar
  44   24   50 1
  45   25   26 ar
  46   26   27 ar
  47   26   30 1
  48   27   28 ar
  49   27   51 1
  50   30   31 1
  51   30   52 1
  52   31   32 1
  53   31   53 1
  54   31   54 1
  55   32   33 1
  56   32   55 1
  57   32   56 1
  58   33   34 1
  59   34   57 1
  60   34   58 1
  61   34   59 1
  62   35   36 1
  63   35   60 1
  64   35   61 1
  65   36   62 1
  66   36   63 1
  67   36   64 1

#	End of record

