#	Name: ASD03490118
#	Creating user name:	WinNT
#	Creation time:	15. 06. 2019 20:42

#	Modifying user name:	WinNT
#	Modification time:	15. 06. 2019 20:42

#	Program:	/corina/corina34_cracker 3.40 0067  02.08.2006

@<TRIPOS>MOLECULE
ASD03490118
  77   81    0    0    0
SMALL
NO_CHARGES


@<TRIPOS>ATOM
   1 C1            -1.0400     2.1703    -0.6075 C.3     
   2 N2            -1.0342     0.7260    -0.8819 N.3     
   3 C3            -1.1800     0.4687    -2.3220 C.3     
   4 C4            -0.0348     1.1507    -3.0752 C.3     
   5 O5            -0.0370     2.5483    -2.7719 O.3     
   6 C6             0.1038     2.8352    -1.3780 C.3     
   7 C7            -2.0272     0.0772    -0.1569 C.ar    
   8 N8            -2.8149     0.7759     0.6446 N.ar    
   9 C9            -3.7715     0.2071     1.3529 C.ar    
  10 C10           -3.9916    -1.1530     1.2867 C.ar    
  11 C11           -3.1838    -1.9355     0.4524 C.ar    
  12 C12           -2.1858    -1.2988    -0.2861 C.ar    
  13 C13           -3.3869    -3.3993     0.3524 C.2     
  14 O14           -2.6764    -4.0629    -0.3767 O.2     
  15 N15           -4.3597    -3.9952     1.0701 N.am    
  16 C16           -4.6136    -5.3604     0.9053 C.ar    
  17 C17           -3.5642    -6.2391     0.6667 C.ar    
  18 C18           -3.8143    -7.5883     0.5039 C.ar    
  19 C19           -5.1076    -8.0680     0.5781 C.ar    
  20 C20           -6.1617    -7.1945     0.8169 C.ar    
  21 C21           -5.9135    -5.8399     0.9857 C.ar    
  22 C22           -5.3757    -9.5401     0.3993 C.3     
  23 N23           -7.4708    -7.6809     0.8914 N.am    
  24 C24           -8.5107    -6.8545     0.6634 C.2     
  25 O25           -8.3107    -5.7114     0.2999 O.2     
  26 C26           -9.8916    -7.3366     0.8547 C.ar    
  27 C27          -10.9818    -6.4848     0.6202 C.ar    
  28 C28          -12.2459    -6.9746     0.8100 C.ar    
  29 C29          -12.4125    -8.2938     1.2271 C.ar    
  30 N30          -11.3649    -9.0782     1.4422 N.ar    
  31 C31          -10.1329    -8.6487     1.2661 C.ar    
  32 N32          -13.6898    -8.7925     1.4201 N.pl3   
  33 C33          -14.8542    -7.9349     1.1859 C.3     
  34 C34          -16.1340    -8.7238     1.4697 C.3     
  35 C35          -17.3502    -7.8757     1.0922 C.3     
  36 C36          -18.6385    -8.7027     1.2586 C.3     
  37 C37          -19.4872    -7.9248     2.2904 C.3     
  38 C38          -18.9130    -6.4887     2.1991 C.3     
  39 N39          -17.4583    -6.7160     2.0038 N.3     
  40 C40          -16.8130    -5.5298     1.4255 C.3     
  41 H41           -1.9906     2.5976    -0.9267 H       
  42 H42           -0.9052     2.3384     0.4610 H       
  43 H43           -1.1473    -0.6053    -2.5050 H       
  44 H44           -2.1328     0.8688    -2.6686 H       
  45 H45            0.9149     0.7130    -2.7675 H       
  46 H46           -0.1702     1.0108    -4.1477 H       
  47 H47            0.0685     3.9136    -1.2229 H       
  48 H48            1.0575     2.4465    -1.0209 H       
  49 H49           -4.3915     0.8155     1.9946 H       
  50 H50           -4.7770    -1.6088     1.8713 H       
  51 H51           -1.5443    -1.8657    -0.9445 H       
  52 H52           -4.8837    -3.4771     1.7009 H       
  53 H53           -2.5520    -5.8672     0.6082 H       
  54 H54           -2.9969    -8.2692     0.3178 H       
  55 H55           -6.7305    -5.1595     1.1751 H       
  56 H56           -5.3293   -10.0381     1.3678 H       
  57 H57           -6.3664    -9.6790    -0.0335 H       
  58 H58           -4.6255    -9.9680    -0.2656 H       
  59 H59           -7.6302    -8.6131     1.1071 H       
  60 H60          -10.8270    -5.4658     0.2977 H       
  61 H61          -13.1060    -6.3444     0.6385 H       
  62 H62           -9.3024    -9.3153     1.4455 H       
  63 H63          -13.8135    -9.7098     1.7103 H       
  64 H64          -14.8067    -7.0694     1.8469 H       
  65 H65          -14.8561    -7.6001     0.1486 H       
  66 H66          -16.1336    -9.6409     0.8806 H       
  67 H67          -16.1797    -8.9730     2.5298 H       
  68 H68          -17.2588    -7.5340     0.0612 H       
  69 H69          -19.1684    -8.7727     0.3087 H       
  70 H70          -18.4031    -9.6979     1.6357 H       
  71 H71          -20.5408    -7.9375     2.0112 H       
  72 H72          -19.3473    -8.3332     3.2913 H       
  73 H73          -19.3373    -5.9582     1.3466 H       
  74 H74          -19.0962    -5.9416     3.1239 H       
  75 H75          -17.3532    -5.2225     0.5301 H       
  76 H76          -16.8248    -4.7186     2.1534 H       
  77 H77          -15.7820    -5.7682     1.1639 H       
@<TRIPOS>BOND
   1    1    2 1
   2    1    6 1
   3    1   41 1
   4    1   42 1
   5    2    3 1
   6    2    7 1
   7    3    4 1
   8    3   43 1
   9    3   44 1
  10    4    5 1
  11    4   45 1
  12    4   46 1
  13    5    6 1
  14    6   47 1
  15    6   48 1
  16    7    8 ar
  17    7   12 ar
  18    8    9 ar
  19    9   10 ar
  20    9   49 1
  21   10   11 ar
  22   10   50 1
  23   11   12 ar
  24   11   13 1
  25   12   51 1
  26   13   14 2
  27   13   15 am
  28   15   16 1
  29   15   52 1
  30   16   17 ar
  31   16   21 ar
  32   17   18 ar
  33   17   53 1
  34   18   19 ar
  35   18   54 1
  36   19   20 ar
  37   19   22 1
  38   20   21 ar
  39   20   23 1
  40   21   55 1
  41   22   56 1
  42   22   57 1
  43   22   58 1
  44   23   24 am
  45   23   59 1
  46   24   25 2
  47   24   26 1
  48   26   27 ar
  49   26   31 ar
  50   27   28 ar
  51   27   60 1
  52   28   29 ar
  53   28   61 1
  54   29   30 ar
  55   29   32 1
  56   30   31 ar
  57   31   62 1
  58   32   33 1
  59   32   63 1
  60   33   34 1
  61   33   64 1
  62   33   65 1
  63   34   35 1
  64   34   66 1
  65   34   67 1
  66   35   36 1
  67   35   39 1
  68   35   68 1
  69   36   37 1
  70   36   69 1
  71   36   70 1
  72   37   38 1
  73   37   71 1
  74   37   72 1
  75   38   39 1
  76   38   73 1
  77   38   74 1
  78   39   40 1
  79   40   75 1
  80   40   76 1
  81   40   77 1

#	End of record

