#	Name: ASD01890023
#	Creating user name:	WinNT
#	Creation time:	15. 06. 2019 19:50

#	Modifying user name:	WinNT
#	Modification time:	15. 06. 2019 19:50

#	Program:	/corina/corina34_cracker 3.40 0067  02.08.2006

@<TRIPOS>MOLECULE
ASD01890023
  36   38    0    0    0
SMALL
NO_CHARGES


@<TRIPOS>ATOM
   1 C1            -0.1462     1.4086    -0.1624 C.2     
   2 C2            -0.0262    -0.0875    -0.0266 C.3     
   3 C3             1.4446    -0.4935    -0.1401 C.3     
   4 O4             0.8487     2.0907    -0.2312 O.2     
   5 O5            -1.3584     1.9828    -0.2125 O.3     
   6 C6             1.5803    -1.9700     0.1297 C.ar    
   7 C7             1.9983    -2.4098     1.3719 C.ar    
   8 C8             2.1230    -3.7637     1.6200 C.ar    
   9 C9             1.8295    -4.6790     0.6248 C.ar    
  10 C10            1.4112    -4.2382    -0.6182 C.ar    
  11 C11            1.2815    -2.8841    -0.8633 C.ar    
  12 Cl12           1.9864    -6.3797     0.9354 Cl      
  13 N13            1.9302    -0.1971    -1.4901 N.pl3   
  14 C14            3.2706     0.0481    -1.7023 C.2     
  15 N15            3.7969     0.4135    -2.8446 N.2     
  16 C16            5.1394     0.5683    -2.7000 C.ar    
  17 C17            5.4478     0.2722    -1.3618 C.ar    
  18 N18            4.2457    -0.0483    -0.7514 N.pl3   
  19 C19            6.1626     0.9370    -3.5762 C.ar    
  20 C20            7.4616     1.0066    -3.1208 C.ar    
  21 C21            7.7601     0.7130    -1.7979 C.ar    
  22 C22            6.7596     0.3477    -0.9204 C.ar    
  23 Cl23           8.7334     1.4644    -4.2101 Cl      
  24 H24           -0.4146    -0.3965     0.9438 H       
  25 H25           -0.5988    -0.5712    -0.8180 H       
  26 H26            2.0328     0.0645     0.5884 H       
  27 H27           -1.3849     2.9455    -0.3000 H       
  28 H28            2.2277    -1.6952     2.1486 H       
  29 H29            2.4498    -4.1072     2.5903 H       
  30 H30            1.1820    -4.9522    -1.3954 H       
  31 H31            0.9508    -2.5401    -1.8321 H       
  32 H32            1.3090    -0.1733    -2.2347 H       
  33 H33            4.1205    -0.2969     0.1778 H       
  34 H34            5.9368     1.1664    -4.6071 H       
  35 H35            8.7818     0.7711    -1.4527 H       
  36 H36            6.9984     0.1202     0.1080 H       
@<TRIPOS>BOND
   1    1    2 1
   2    1    4 2
   3    1    5 1
   4    2    3 1
   5    2   24 1
   6    2   25 1
   7    3    6 1
   8    3   13 1
   9    3   26 1
  10    5   27 1
  11    6    7 ar
  12    6   11 ar
  13    7    8 ar
  14    7   28 1
  15    8    9 ar
  16    8   29 1
  17    9   10 ar
  18    9   12 1
  19   10   11 ar
  20   10   30 1
  21   11   31 1
  22   13   14 1
  23   13   32 1
  24   14   15 2
  25   14   18 1
  26   15   16 1
  27   16   17 ar
  28   16   19 ar
  29   17   18 1
  30   17   22 ar
  31   18   33 1
  32   19   20 ar
  33   19   34 1
  34   20   21 ar
  35   20   23 1
  36   21   22 ar
  37   21   35 1
  38   22   36 1

#	End of record

