#	Name: ASD01880176
#	Creating user name:	WinNT
#	Creation time:	15. 06. 2019 19:40

#	Modifying user name:	WinNT
#	Modification time:	15. 06. 2019 19:40

#	Program:	/corina/corina34_cracker 3.40 0067  02.08.2006

@<TRIPOS>MOLECULE
ASD01880176
  66   69    0    0    0
SMALL
NO_CHARGES


@<TRIPOS>ATOM
   1 C1            -0.0166     1.3765     0.0096 C.ar    
   2 C2             0.0021    -0.0041     0.0020 C.ar    
   3 C3            -1.1907    -0.7221     0.0090 C.ar    
   4 C4            -2.4029    -0.0685     0.0241 C.ar    
   5 C5            -2.4432     1.3214     0.0324 C.ar    
   6 C6            -1.2399     2.0497     0.0307 C.ar    
   7 O7             1.1904    -0.6651    -0.0128 O.3     
   8 C8             1.1383    -2.0932    -0.0200 C.3     
   9 C9             3.9632    -6.0615    -0.0682 C.ar    
  10 C10            5.2271    -6.6369    -0.0833 C.ar    
  11 C11            5.3617    -8.0087    -0.0867 C.ar    
  12 C12            4.2260    -8.8195    -0.0744 C.ar    
  13 C13            2.9576    -8.2378    -0.0588 C.ar    
  14 C14            2.8307    -6.8653    -0.0559 C.ar    
  15 C15            4.3663   -10.2922    -0.0785 C.2     
  16 N16            5.4943   -10.9711    -0.0926 N.2     
  17 N17            5.2592   -12.2335    -0.0915 N.2     
  18 N18            3.9894   -12.4541    -0.0769 N.2     
  19 N19            3.3573   -11.1984    -0.0624 N.pl3   
  20 C20            1.2754     2.1522     0.0014 C.3     
  21 C21            1.6989     2.4224    -1.4437 C.3     
  22 C22            3.0106     3.2099    -1.4520 C.3     
  23 N23           -3.4727     2.2388     0.0479 N.pl3   
  24 C24           -2.9636     3.5085     0.0509 C.2     
  25 C25           -1.6219     3.4639     0.0416 C.2     
  26 C26           -4.8988     1.9036     0.0596 C.3     
  27 C27            2.5612    -2.6553    -0.0366 C.3     
  28 O28            3.8344    -4.7093    -0.0597 O.3     
  29 C29           -5.3527     1.6556     1.4995 C.3     
  30 C30           -5.1186     2.9175     2.3325 C.3     
  31 C31           -6.8421     1.3056     1.5117 C.3     
  32 C32           -4.5513     0.4959     2.0943 C.3     
  33 C33            2.5055    -4.1843    -0.0442 C.3     
  34 H34           -1.1652    -1.8018     0.0023 H       
  35 H35           -3.3221    -0.6355     0.0290 H       
  36 H36            0.6201    -2.4423     0.8731 H       
  37 H37            0.6032    -2.4328    -0.9068 H       
  38 H38            6.1056    -6.0088    -0.0928 H       
  39 H39            6.3448    -8.4555    -0.0991 H       
  40 H40            2.0765    -8.8622    -0.0496 H       
  41 H41            1.8494    -6.4144    -0.0438 H       
  42 H42            2.4042   -11.0187    -0.0491 H       
  43 H43            1.1338     3.0995     0.5217 H       
  44 H44            2.0498     1.5734     0.5048 H       
  45 H45            1.8405     1.4752    -1.9640 H       
  46 H46            0.9244     3.0012    -1.9471 H       
  47 H47            2.8690     4.1572    -0.9317 H       
  48 H48            3.7850     2.6312    -0.9487 H       
  49 H49            3.3123     3.4025    -2.4816 H       
  50 H50           -3.5537     4.4130     0.0622 H       
  51 H51           -0.9512     4.3104     0.0418 H       
  52 H52           -5.4697     2.7298    -0.3642 H       
  53 H53           -5.0656     1.0046    -0.5338 H       
  54 H54            3.0795    -2.3062    -0.9296 H       
  55 H55            3.0964    -2.3157     0.8502 H       
  56 H56           -5.6895     3.7437     1.9087 H       
  57 H57           -5.4419     2.7408     3.3583 H       
  58 H58           -4.0575     3.1669     2.3238 H       
  59 H59           -7.0089     0.4066     0.9183 H       
  60 H60           -7.1654     1.1289     2.5375 H       
  61 H61           -7.4130     2.1318     1.0879 H       
  62 H62           -3.4903     0.7453     2.0857 H       
  63 H63           -4.8747     0.3193     3.1202 H       
  64 H64           -4.7181    -0.4030     1.5009 H       
  65 H65            1.9872    -4.5334     0.8488 H       
  66 H66            1.9703    -4.5239    -0.9310 H       
@<TRIPOS>BOND
   1    1    2 ar
   2    1   20 1
   3    1    6 ar
   4    2    3 ar
   5    2    7 1
   6    3    4 ar
   7    3   34 1
   8    4    5 ar
   9    4   35 1
  10    5    6 ar
  11    5   23 1
  12    6   25 1
  13    7    8 1
  14    8   27 1
  15    8   36 1
  16    8   37 1
  17    9   10 ar
  18    9   14 ar
  19    9   28 1
  20   10   11 ar
  21   10   38 1
  22   11   12 ar
  23   11   39 1
  24   12   13 ar
  25   12   15 1
  26   13   14 ar
  27   13   40 1
  28   14   41 1
  29   15   16 2
  30   15   19 1
  31   16   17 1
  32   17   18 2
  33   18   19 1
  34   19   42 1
  35   20   21 1
  36   20   43 1
  37   20   44 1
  38   21   22 1
  39   21   45 1
  40   21   46 1
  41   22   47 1
  42   22   48 1
  43   22   49 1
  44   23   24 1
  45   23   26 1
  46   24   25 2
  47   24   50 1
  48   25   51 1
  49   26   29 1
  50   26   52 1
  51   26   53 1
  52   27   33 1
  53   27   54 1
  54   27   55 1
  55   28   33 1
  56   29   30 1
  57   29   31 1
  58   29   32 1
  59   30   56 1
  60   30   57 1
  61   30   58 1
  62   31   59 1
  63   31   60 1
  64   31   61 1
  65   32   62 1
  66   32   63 1
  67   32   64 1
  68   33   65 1
  69   33   66 1

#	End of record

