#	Name: ASD01812231
#	Creating user name:	WinNT
#	Creation time:	15. 06. 2019 19:28

#	Modifying user name:	WinNT
#	Modification time:	15. 06. 2019 19:28

#	Program:	/corina/corina34_cracker 3.40 0067  02.08.2006

@<TRIPOS>MOLECULE
ASD01812231
  58   62    0    0    0
SMALL
NO_CHARGES


@<TRIPOS>ATOM
   1 C1            -0.0168     1.3896     0.0097 C.ar    
   2 C2             0.0021    -0.0041     0.0020 C.ar    
   3 C3             1.1949    -0.6694    -0.0129 C.ar    
   4 C4             2.3801     0.0896    -0.0201 C.ar    
   5 C5             2.2888     1.5050    -0.0117 C.ar    
   6 N6             1.0882     2.0936     0.0029 N.ar    
   7 C7             3.6422    -0.5284    -0.0349 C.ar    
   8 C8             4.7712     0.2254    -0.0412 C.ar    
   9 C9             4.7001     1.6316    -0.0331 C.ar    
  10 C10            3.4670     2.2625    -0.0189 C.ar    
  11 C11            3.7425    -2.0320    -0.0434 C.3     
  12 C12            5.7518     2.6693    -0.0373 C.2     
  13 N13            5.1985     3.8941    -0.0257 N.am    
  14 C14            3.7387     3.7458    -0.0134 C.3     
  15 O15            6.9468     2.4470    -0.0494 O.2     
  16 C16            5.9298     5.1635    -0.0250 C.3     
  17 C17            6.7997     5.2545    -1.2825 C.3     
  18 C18            7.6188     6.5469    -1.2345 C.3     
  19 O19            8.4104     6.5637    -0.0449 O.3     
  20 C20            7.6485     6.5285     1.1635 C.3     
  21 C21            6.8305     5.2353     1.2119 C.3     
  22 N22            3.5225    -2.5298    -1.4078 N.3     
  23 C23            3.8440    -3.9593    -1.5047 C.3     
  24 C24            3.4666    -4.4754    -2.8951 C.3     
  25 C25            4.2405    -3.6861    -3.9546 C.3     
  26 C26            3.9253    -2.1956    -3.8008 C.3     
  27 C27            4.2895    -1.7457    -2.3842 C.3     
  28 O28            5.9641     5.2615    -2.4417 O.3     
  29 F29            5.6133    -3.8938    -3.7822 F       
  30 F30            3.8580    -4.1158    -5.2298 F       
  31 C31            3.1333     4.3962    -1.2589 C.3     
  32 H32           -0.9672     1.9026     0.0169 H       
  33 H33           -0.9254    -0.5573     0.0082 H       
  34 H34            1.2277    -1.7489    -0.0187 H       
  35 H35            5.7361    -0.2597    -0.0523 H       
  36 H36            4.7335    -2.3319     0.2974 H       
  37 H37            2.9874    -2.4503     0.6222 H       
  38 H38            3.3233     4.2005     0.8859 H       
  39 H39            5.2228     5.9931    -0.0099 H       
  40 H40            7.4726     4.3980    -1.3226 H       
  41 H41            8.2714     6.5962    -2.1062 H       
  42 H42            6.9456     7.4042    -1.2353 H       
  43 H43            8.3225     6.5645     2.0194 H       
  44 H44            6.9757     7.3855     1.1941 H       
  45 H45            6.2152     5.2269     2.1116 H       
  46 H46            7.5041     4.3784     1.2222 H       
  47 H47            4.9121    -4.1032    -1.3415 H       
  48 H48            3.2839    -4.5096    -0.7487 H       
  49 H49            3.7198    -5.5328    -2.9719 H       
  50 H50            2.3961    -4.3445    -3.0536 H       
  51 H51            4.5062    -1.6242    -4.5248 H       
  52 H52            2.8621    -2.0288    -3.9736 H       
  53 H53            4.0529    -0.6881    -2.2669 H       
  54 H54            5.3554    -1.8999    -2.2169 H       
  55 H55            6.4495     5.3175    -3.2762 H       
  56 H56            3.5340     3.9152    -2.1512 H       
  57 H57            2.0496     4.2800    -1.2392 H       
  58 H58            3.3848     5.4567    -1.2737 H       
@<TRIPOS>BOND
   1    1    2 ar
   2    1    6 ar
   3    1   32 1
   4    2    3 ar
   5    2   33 1
   6    3    4 ar
   7    3   34 1
   8    4    5 ar
   9    4    7 ar
  10    5    6 ar
  11    5   10 ar
  12    7    8 ar
  13    7   11 1
  14    8    9 ar
  15    8   35 1
  16    9   10 ar
  17    9   12 1
  18   10   14 1
  19   11   22 1
  20   11   36 1
  21   11   37 1
  22   12   13 am
  23   12   15 2
  24   13   14 1
  25   13   16 1
  26   14   31 1
  27   14   38 1
  28   16   17 1
  29   16   21 1
  30   16   39 1
  31   17   18 1
  32   17   28 1
  33   17   40 1
  34   18   19 1
  35   18   41 1
  36   18   42 1
  37   19   20 1
  38   20   21 1
  39   20   43 1
  40   20   44 1
  41   21   45 1
  42   21   46 1
  43   22   23 1
  44   22   27 1
  45   23   24 1
  46   23   47 1
  47   23   48 1
  48   24   25 1
  49   24   49 1
  50   24   50 1
  51   25   26 1
  52   25   29 1
  53   25   30 1
  54   26   27 1
  55   26   51 1
  56   26   52 1
  57   27   53 1
  58   27   54 1
  59   28   55 1
  60   31   56 1
  61   31   57 1
  62   31   58 1

#	End of record

