#	Name: ASD01900427
#	Creating user name:	WinNT
#	Creation time:	15. 06. 2019 19:51

#	Modifying user name:	WinNT
#	Modification time:	15. 06. 2019 19:51

#	Program:	/corina/corina34_cracker 3.40 0067  02.08.2006

@<TRIPOS>MOLECULE
ASD01900427
  32   34    0    0    0
SMALL
NO_CHARGES


@<TRIPOS>ATOM
   1 C1             0.3995     3.9875     0.6059 C.ar    
   2 C2             0.8403     5.0260     1.4484 C.ar    
   3 C3             2.2071     5.2843     1.5463 C.ar    
   4 C4             3.0741     4.5040     0.8069 C.ar    
   5 C5             2.5693     3.4959    -0.0040 C.ar    
   6 N6             1.2785     3.2655    -0.0850 N.ar    
   7 N7            -1.4102     4.9111     1.5497 N.2     
   8 N8            -0.2751     5.5809     2.0179 N.pl3   
   9 C9            -1.0612     3.9701     0.7131 C.2     
  10 N10           -1.9266     3.0976     0.0457 N.pl3   
  11 C11           -3.3089     3.2652     0.1556 C.ar    
  12 C12           -3.8419     4.5299     0.3735 C.ar    
  13 C13           -5.2089     4.6919     0.4817 C.ar    
  14 C14           -6.0473     3.5972     0.3739 C.ar    
  15 C15           -5.5204     2.3373     0.1572 C.ar    
  16 C16           -4.1544     2.1688     0.0417 C.ar    
  17 C17           -5.7879     6.0630     0.7179 C.3     
  18 C18           -6.0719     6.7353    -0.6268 C.3     
  19 H19            2.5778     6.0738     2.1832 H       
  20 H20            4.1389     4.6770     0.8588 H       
  21 H21            3.2520     2.8890    -0.5802 H       
  22 H22           -0.2774     6.3202     2.6459 H       
  23 H23           -1.5669     2.3760    -0.4936 H       
  24 H24           -3.1878     5.3850     0.4584 H       
  25 H25           -7.1161     3.7267     0.4597 H       
  26 H26           -6.1780     1.4847     0.0735 H       
  27 H27           -3.7438     1.1852    -0.1323 H       
  28 H28           -6.7159     5.9732     1.2824 H       
  29 H29           -5.0762     6.6656     1.2823 H       
  30 H30           -5.1438     6.8252    -1.1913 H       
  31 H31           -6.7835     6.1327    -1.1912 H       
  32 H32           -6.4907     7.7270    -0.4559 H       
@<TRIPOS>BOND
   1    1    2 ar
   2    1    6 ar
   3    1    9 1
   4    2    3 ar
   5    2    8 1
   6    3    4 ar
   7    3   19 1
   8    4    5 ar
   9    4   20 1
  10    5    6 ar
  11    5   21 1
  12    7    8 1
  13    7    9 2
  14    8   22 1
  15    9   10 1
  16   10   11 1
  17   10   23 1
  18   11   12 ar
  19   11   16 ar
  20   12   13 ar
  21   12   24 1
  22   13   14 ar
  23   13   17 1
  24   14   15 ar
  25   14   25 1
  26   15   16 ar
  27   15   26 1
  28   16   27 1
  29   17   18 1
  30   17   28 1
  31   17   29 1
  32   18   30 1
  33   18   31 1
  34   18   32 1

#	End of record

