#	Name: ASD01914045
#	Creating user name:	WinNT
#	Creation time:	15. 06. 2019 20:02

#	Modifying user name:	WinNT
#	Modification time:	15. 06. 2019 20:02

#	Program:	/corina/corina34_cracker 3.40 0067  02.08.2006

@<TRIPOS>MOLECULE
ASD01914045
  39   41    0    0    0
SMALL
NO_CHARGES


@<TRIPOS>ATOM
   1 C1            -0.0162     1.3757    -0.0465 C.ar    
   2 C2             0.0029    -0.0068    -0.0573 C.ar    
   3 C3             1.2085    -0.6838    -0.0684 C.ar    
   4 C4             2.3807     1.4072    -0.0579 C.ar    
   5 C5             1.1698     2.0841    -0.0468 C.ar    
   6 O6             3.5488     2.1018    -0.0578 O.3     
   7 C7             4.7571     1.3390    -0.0696 C.3     
   8 C8             5.9403     2.2724    -0.0676 C.ar    
   9 N9             7.1611     1.7723    -0.0773 N.ar    
  10 C10            8.2287     2.5435    -0.0761 C.ar    
  11 C11            8.1003     3.9329    -0.0638 C.ar    
  12 C12            6.8171     4.4935    -0.0533 C.ar    
  13 C13            5.7285     3.6396    -0.0613 C.ar    
  14 C14            9.2985     4.7983    -0.0615 C.2     
  15 N15           10.5282     4.2468    -0.0712 N.am    
  16 O16            9.1748     6.0076    -0.0508 O.2     
  17 C17            2.3972     0.0200    -0.0687 C.ar    
  18 C18           11.6592     5.0617    -0.1818 C.ar    
  19 C19           12.8300     4.7209     0.4831 C.ar    
  20 C20           13.9462     5.5271     0.3727 C.ar    
  21 C21           13.9000     6.6732    -0.3987 C.ar    
  22 C22           12.7341     7.0172    -1.0633 C.ar    
  23 C23           11.6155     6.2103    -0.9612 C.ar    
  24 F24           12.6917     8.1382    -1.8163 F       
  25 H25           -0.9592     1.9022    -0.0423 H       
  26 H26           -0.9253    -0.5588    -0.0567 H       
  27 H27            1.2208    -1.7637    -0.0764 H       
  28 H28            1.1543     3.1639    -0.0387 H       
  29 H29            4.7943     0.7035     0.8152 H       
  30 H30            4.7859     0.7178    -0.9647 H       
  31 H31            9.2119     2.0967    -0.0843 H       
  32 H32            6.6807     5.5648    -0.0434 H       
  33 H33            4.7239     4.0361    -0.0539 H       
  34 H34           10.6287     3.2845    -0.0016 H       
  35 H35            3.3386    -0.5092    -0.0773 H       
  36 H36           12.8676     3.8260     1.0865 H       
  37 H37           14.8563     5.2619     0.8902 H       
  38 H38           14.7742     7.3017    -0.4833 H       
  39 H39           10.7065     6.4779    -1.4794 H       
@<TRIPOS>BOND
   1    1    2 ar
   2    1    5 ar
   3    1   25 1
   4    2    3 ar
   5    2   26 1
   6    3   17 ar
   7    3   27 1
   8    4    5 ar
   9    4    6 1
  10    4   17 ar
  11    5   28 1
  12    6    7 1
  13    7    8 1
  14    7   29 1
  15    7   30 1
  16    8    9 ar
  17    8   13 ar
  18    9   10 ar
  19   10   11 ar
  20   10   31 1
  21   11   12 ar
  22   11   14 1
  23   12   13 ar
  24   12   32 1
  25   13   33 1
  26   14   15 am
  27   14   16 2
  28   15   18 1
  29   15   34 1
  30   17   35 1
  31   18   19 ar
  32   18   23 ar
  33   19   20 ar
  34   19   36 1
  35   20   21 ar
  36   20   37 1
  37   21   22 ar
  38   21   38 1
  39   22   23 ar
  40   22   24 1
  41   23   39 1

#	End of record

