#	Name: ASD03490113
#	Creating user name:	WinNT
#	Creation time:	15. 06. 2019 20:42

#	Modifying user name:	WinNT
#	Modification time:	15. 06. 2019 20:42

#	Program:	/corina/corina34_cracker 3.40 0067  02.08.2006

@<TRIPOS>MOLECULE
ASD03490113
  50   53    0    0    0
SMALL
NO_CHARGES


@<TRIPOS>ATOM
   1 C1            -0.0318     1.3025    -0.1561 C.2     
   2 N2             1.2637    -0.6466     0.3283 N.am    
   3 O3            -0.8796    -0.8275    -0.2463 O.2     
   4 C4             0.0823    -0.1104    -0.0309 C.2     
   5 N5             2.2967     0.0766     0.5631 N.2     
   6 O6            -1.4056     3.1466    -0.5519 O.2     
   7 C7             1.1032     2.0646     0.1041 C.2     
   8 N8            -2.3518     1.1701    -0.9155 N.am    
   9 C9             2.2837     1.3876     0.4724 C.2     
  10 N10            5.7939     3.5827     1.2902 N.ar    
  11 C11           -4.9332     0.2160     0.8536 C.3     
  12 C12           -1.3031     1.9349    -0.5525 C.2     
  13 C13           -5.2580    -0.0282    -0.5976 C.ar    
  14 C14            1.3681    -2.0360     0.4492 C.ar    
  15 C15           -4.6431     0.7253    -1.5796 C.ar    
  16 C16            3.5178     2.1593     0.7596 C.ar    
  17 C17           -3.6479     1.7911    -1.1992 C.3     
  18 C18            2.4196    -2.7103    -0.1591 C.ar    
  19 C19            0.4235    -2.7435     1.1826 C.ar    
  20 C20            1.5751    -4.7857     0.6893 C.ar    
  21 C21            0.5289    -4.1150     1.3010 C.ar    
  22 C22            2.5209    -4.0819    -0.0380 C.ar    
  23 C23           -6.1667    -1.0099    -0.9468 C.ar    
  24 C24            5.8254     2.2673     1.3858 C.ar    
  25 C25            4.6986     4.2328     0.9466 C.ar    
  26 C26            4.7005     1.5113     1.1270 C.ar    
  27 C27            3.5294     3.5542     0.6705 C.ar    
  28 C28           -4.9408     0.5010    -2.9110 C.ar    
  29 C29           -6.4643    -1.2342    -2.2778 C.ar    
  30 C30           -5.8535    -0.4765    -3.2599 C.ar    
  31 F31           -5.6744    -0.6622     1.6516 F       
  32 F32           -3.5675     0.0015     1.0684 F       
  33 F33           -5.2563     1.5355     1.1881 F       
  34 F34            1.6762    -6.1278     0.8065 F       
  35 H35            1.0805     3.1416     0.0260 H       
  36 H36           -2.2483     0.2084    -0.9890 H       
  37 H37           -4.0005     2.3175    -0.3122 H       
  38 H38           -3.5400     2.4977    -2.0221 H       
  39 H39            3.1570    -2.1620    -0.7265 H       
  40 H40           -0.3922    -2.2209     1.6599 H       
  41 H41           -0.2049    -4.6652     1.8712 H       
  42 H42            3.3381    -4.6064    -0.5106 H       
  43 H43           -6.6436    -1.6019    -0.1797 H       
  44 H44            6.7440     1.7756     1.6700 H       
  45 H45            4.7173     5.3106     0.8805 H       
  46 H46            4.7335     0.4348     1.2069 H       
  47 H47            2.6363     4.0928     0.3898 H       
  48 H48           -4.4603     1.0898    -3.6784 H       
  49 H49           -7.1739    -2.0012    -2.5507 H       
  50 H50           -6.0863    -0.6515    -4.2999 H       
@<TRIPOS>BOND
   1    1    4 1
   2    1    7 2
   3    1   12 1
   4    2    4 am
   5    2    5 1
   6    2   14 1
   7    3    4 2
   8    5    9 2
   9    6   12 2
  10    7    9 1
  11    7   35 1
  12    8   12 am
  13    8   17 1
  14    8   36 1
  15    9   16 1
  16   10   24 ar
  17   10   25 ar
  18   11   13 1
  19   11   31 1
  20   11   32 1
  21   11   33 1
  22   13   15 ar
  23   13   23 ar
  24   14   18 ar
  25   14   19 ar
  26   15   17 1
  27   15   28 ar
  28   16   26 ar
  29   16   27 ar
  30   17   37 1
  31   17   38 1
  32   18   22 ar
  33   18   39 1
  34   19   21 ar
  35   19   40 1
  36   20   21 ar
  37   20   22 ar
  38   20   34 1
  39   21   41 1
  40   22   42 1
  41   23   29 ar
  42   23   43 1
  43   24   26 ar
  44   24   44 1
  45   25   27 ar
  46   25   45 1
  47   26   46 1
  48   27   47 1
  49   28   30 ar
  50   28   48 1
  51   29   30 ar
  52   29   49 1
  53   30   50 1

#	End of record

