#	Name: ASD01440129
#	Creating user name:	WinNT
#	Creation time:	15. 06. 2019 19:21

#	Modifying user name:	WinNT
#	Modification time:	15. 06. 2019 19:21

#	Program:	/corina/corina34_cracker 3.40 0067  02.08.2006

@<TRIPOS>MOLECULE
ASD01440129
  45   47    0    0    0
SMALL
NO_CHARGES


@<TRIPOS>ATOM
   1 C1             0.0633     1.2554     0.0696 C.ar    
   2 C2             0.0976    -0.1180     0.1567 C.ar    
   3 C3             1.3163    -0.7802     0.2549 C.ar    
   4 C4             2.5051    -0.0591     0.2655 C.ar    
   5 C5             2.4801     1.3145     0.1784 C.ar    
   6 C6             1.2566     1.9846     0.0795 C.ar    
   7 C7             1.2248     3.4562    -0.0141 C.2     
   8 O8             0.1693     4.0310    -0.1983 O.2     
   9 C9             2.4753     4.2318     0.1161 C.ar    
  10 O10            1.3455    -2.1341     0.3410 O.3     
  11 C11            2.6311    -2.7502     0.4394 C.3     
  12 C12            2.4661    -4.2457     0.5253 C.2     
  13 N13            3.5512    -5.0388     0.6254 N.am    
  14 O14            1.3567    -4.7357     0.5043 O.2     
  15 C15            3.0794     4.7846    -1.0158 C.ar    
  16 C16            4.2465     5.5073    -0.8872 C.ar    
  17 C17            4.8207     5.6858     0.3598 C.ar    
  18 C18            4.2290     5.1418     1.4854 C.ar    
  19 C19            3.0567     4.4209     1.3727 C.ar    
  20 Br20           2.2447     3.6844     2.9136 Br      
  21 C21            3.3956    -6.4192     0.8118 C.ar    
  22 C22            4.3153    -7.1400     1.5798 C.ar    
  23 C23            4.1159    -8.5074     1.7341 C.ar    
  24 C24            3.0257    -9.1010     1.1286 C.ar    
  25 N25            2.1777    -8.3901     0.4107 N.ar    
  26 C26            2.3251    -7.0895     0.2427 C.ar    
  27 O27            5.3760    -6.5208     2.1596 O.3     
  28 C28            6.2639    -7.3367     2.9264 C.3     
  29 H29           -0.8835     1.7687    -0.0107 H       
  30 H30           -0.8234    -0.6819     0.1491 H       
  31 H31            3.4495    -0.5774     0.3426 H       
  32 H32            3.4039     1.8738     0.1871 H       
  33 H33            3.2224    -2.5000    -0.4415 H       
  34 H34            3.1398    -2.3889     1.3331 H       
  35 H35            4.4399    -4.6542     0.5685 H       
  36 H36            2.6334     4.6458    -1.9896 H       
  37 H37            4.7142     5.9350    -1.7616 H       
  38 H38            5.7354     6.2523     0.4541 H       
  39 H39            4.6827     5.2847     2.4550 H       
  40 H40            4.8049    -9.0979     2.3196 H       
  41 H41            2.8654   -10.1628     1.2443 H       
  42 H42            1.6056    -6.5424    -0.3485 H       
  43 H43            5.7142    -7.8030     3.7440 H       
  44 H44            6.6898    -8.1102     2.2873 H       
  45 H45            7.0651    -6.7193     3.3327 H       
@<TRIPOS>BOND
   1    1    2 ar
   2    1    6 ar
   3    1   29 1
   4    2    3 ar
   5    2   30 1
   6    3    4 ar
   7    3   10 1
   8    4    5 ar
   9    4   31 1
  10    5    6 ar
  11    5   32 1
  12    6    7 1
  13    7    8 2
  14    7    9 1
  15    9   15 ar
  16    9   19 ar
  17   10   11 1
  18   11   12 1
  19   11   33 1
  20   11   34 1
  21   12   13 am
  22   12   14 2
  23   13   21 1
  24   13   35 1
  25   15   16 ar
  26   15   36 1
  27   16   17 ar
  28   16   37 1
  29   17   18 ar
  30   17   38 1
  31   18   19 ar
  32   18   39 1
  33   19   20 1
  34   21   22 ar
  35   21   26 ar
  36   22   23 ar
  37   22   27 1
  38   23   24 ar
  39   23   40 1
  40   24   25 ar
  41   24   41 1
  42   25   26 ar
  43   26   42 1
  44   27   28 1
  45   28   43 1
  46   28   44 1
  47   28   45 1

#	End of record

