#	Name: ASD00960284
#	Creating user name:	WinNT
#	Creation time:	15. 06. 2019 18:53

#	Modifying user name:	WinNT
#	Modification time:	15. 06. 2019 18:53

#	Program:	/corina/corina34_cracker 3.40 0067  02.08.2006

@<TRIPOS>MOLECULE
ASD00960284
  40   43    0    0    0
SMALL
NO_CHARGES


@<TRIPOS>ATOM
   1 C1            -0.0167     1.3781     0.0096 C.2     
   2 C2             0.0021    -0.0041     0.0020 C.2     
   3 N3             1.2773     1.8202    -0.0004 N.pl3   
   4 C4             2.1097     0.7471    -0.0004 C.2     
   5 C5             1.3588    -0.3981    -0.0066 C.2     
   6 N6             1.7768     3.1320     0.0043 N.2     
   7 C7             3.0418     3.3134    -0.2321 C.2     
   8 N8             3.8848     2.2637    -0.5244 N.pl3   
   9 C9             3.6112     0.9200     0.0172 C.3     
  10 N10            4.1140     0.8203     1.3938 N.3     
  11 C11            1.8708    -1.7838    -0.0191 C.2     
  12 O12            1.1193    -2.8985    -0.0251 O.3     
  13 C13            1.9557    -3.9569    -0.0371 C.2     
  14 C14            3.2102    -3.4750    -0.0382 C.2     
  15 N15            3.1361    -2.1338    -0.0320 N.2     
  16 C16           -1.2135     2.2217     0.0201 C.2     
  17 O17           -2.3174     1.7111     0.0233 O.2     
  18 O18           -1.0917     3.5651     0.0263 O.3     
  19 C19           -2.3206     4.3384     0.0367 C.3     
  20 C20           -1.9891     5.8084     0.0424 C.ar    
  21 C21           -1.8433     6.4887    -1.1521 C.ar    
  22 C22           -1.5392     7.8372    -1.1468 C.ar    
  23 C23           -1.3813     8.5055     0.0529 C.ar    
  24 C24           -1.5280     7.8253     1.2474 C.ar    
  25 C25           -1.8364     6.4778     1.2422 C.ar    
  26 H26           -0.8571    -0.6584     0.0029 H       
  27 H27            3.4435     4.3153    -0.1988 H       
  28 H28            4.6605     2.4092    -1.0884 H       
  29 H29            4.0814     0.1620    -0.6092 H       
  30 H30            5.1096     0.9808     1.4277 H       
  31 H31            3.6242     1.4566     2.0047 H       
  32 H32            1.6701    -4.9984    -0.0443 H       
  33 H33            4.1169    -4.0617    -0.0466 H       
  34 H34           -2.9064     4.1015    -0.8515 H       
  35 H35           -2.8972     4.0924     0.9284 H       
  36 H36           -1.9667     5.9667    -2.0894 H       
  37 H37           -1.4246     8.3686    -2.0800 H       
  38 H38           -1.1430     9.5588     0.0571 H       
  39 H39           -1.4043     8.3473     2.1848 H       
  40 H40           -1.9547     5.9473     2.1754 H       
@<TRIPOS>BOND
   1    1    2 2
   2    1    3 1
   3    1   16 1
   4    2    5 1
   5    2   26 1
   6    3    4 1
   7    3    6 1
   8    4    5 2
   9    4    9 1
  10    5   11 1
  11    6    7 2
  12    7    8 1
  13    7   27 1
  14    8    9 1
  15    8   28 1
  16    9   10 1
  17    9   29 1
  18   10   30 1
  19   10   31 1
  20   11   12 1
  21   11   15 2
  22   12   13 1
  23   13   14 2
  24   13   32 1
  25   14   15 1
  26   14   33 1
  27   16   17 2
  28   16   18 1
  29   18   19 1
  30   19   20 1
  31   19   34 1
  32   19   35 1
  33   20   21 ar
  34   20   25 ar
  35   21   22 ar
  36   21   36 1
  37   22   23 ar
  38   22   37 1
  39   23   24 ar
  40   23   38 1
  41   24   25 ar
  42   24   39 1
  43   25   40 1

#	End of record

