#	Name: ASD01410013
#	Creating user name:	WinNT
#	Creation time:	15. 06. 2019 19:16

#	Modifying user name:	WinNT
#	Modification time:	15. 06. 2019 19:16

#	Program:	/corina/corina34_cracker 3.40 0067  02.08.2006

@<TRIPOS>MOLECULE
ASD01410013
  73   77    0    0    0
SMALL
NO_CHARGES


@<TRIPOS>ATOM
   1 C1            -0.2347     1.3194    -0.2699 C.3     
   2 C2            -0.3853    -0.1360     0.1867 C.3     
   3 O3             0.1782    -0.9903    -0.8156 O.3     
   4 C4             1.4623    -0.7458    -1.1560 C.2     
   5 C5             1.9880     0.5630    -1.0431 C.2     
   6 C6             1.2098     1.5756    -0.6210 C.2     
   7 C7            -1.8681    -0.4664     0.3686 C.3     
   8 C8            -2.6393    -0.2795    -0.9616 C.3     
   9 C9            -3.8780    -1.1867    -0.8114 C.3     
  10 C10           -3.5109    -2.2639     0.2242 C.3     
  11 C11           -2.0620    -1.9738     0.6672 C.3     
  12 C12            0.3557    -0.3385     1.5099 C.3     
  13 C13           -0.2770     0.5428     2.5887 C.3     
  14 C14            0.4408     0.3293     3.8965 C.ar    
  15 C15            1.4647     1.1796     4.2694 C.ar    
  16 C16            2.1245     0.9847     5.4687 C.ar    
  17 C17            1.7609    -0.0606     6.2960 C.ar    
  18 C18            0.7349    -0.9129     5.9236 C.ar    
  19 C19            0.0712    -0.7134     4.7252 C.ar    
  20 F20            0.3785    -1.9353     6.7317 F       
  21 C21            2.4809    -0.2734     7.6026 C.3     
  22 O22            1.7206     2.8181    -0.5109 O.3     
  23 C23            3.4291     0.8241    -1.3981 C.3     
  24 O24            2.1674    -1.6516    -1.5595 O.2     
  25 C25            4.2997     0.5481    -0.1994 C.2     
  26 N26            4.9062    -0.6033     0.0557 N.2     
  27 C27            5.5921    -0.5080     1.1892 C.2     
  28 N28            5.4087     0.7590     1.6675 N.pl3   
  29 N29            4.5778     1.4120     0.7479 N.2     
  30 N30            6.3551    -1.3789     1.8602 N.2     
  31 C31            6.9395    -1.0354     2.9853 C.2     
  32 C32            6.7721     0.2548     3.5036 C.2     
  33 C33            6.0004     1.1455     2.8292 C.2     
  34 C34            5.8017     2.5415     3.3609 C.3     
  35 C35            7.7938    -2.0346     3.7221 C.3     
  36 C36            1.4793    -0.1901     8.7563 C.3     
  37 C37            3.1435    -1.6525     7.6011 C.3     
  38 C38            3.5102     0.7653     7.7705 C.1     
  39 N39            4.3046     1.5670     7.9001 N.1     
  40 H40           -0.8596     1.4936    -1.1459 H       
  41 H41           -0.5385     1.9879     0.5357 H       
  42 H42           -2.3048     0.1459     1.1576 H       
  43 H43           -2.9409     0.7607    -1.0848 H       
  44 H44           -2.0294    -0.6033    -1.8049 H       
  45 H45           -4.7277    -0.6028    -0.4577 H       
  46 H46           -4.1170    -1.6534    -1.7670 H       
  47 H47           -4.1825    -2.2029     1.0805 H       
  48 H48           -3.5718    -3.2535    -0.2288 H       
  49 H49           -1.3588    -2.5712     0.0869 H       
  50 H50           -1.9423    -2.1701     1.7327 H       
  51 H51            0.2867    -1.3845     1.8086 H       
  52 H52            1.4033    -0.0645     1.3852 H       
  53 H53           -0.1959     1.5897     2.2964 H       
  54 H54           -1.3281     0.2781     2.7038 H       
  55 H55            1.7499     1.9967     3.6233 H       
  56 H56            2.9247     1.6495     5.7589 H       
  57 H57           -0.7291    -1.3774     4.4338 H       
  58 H58            2.6689     2.9188    -0.6713 H       
  59 H59            3.7248     0.1719    -2.2198 H       
  60 H60            3.5461     1.8649    -1.7002 H       
  61 H61            7.2513     0.5380     4.4291 H       
  62 H62            6.3518     2.6563     4.2949 H       
  63 H63            6.1690     3.2637     2.6318 H       
  64 H64            4.7406     2.7142     3.5407 H       
  65 H65            7.8068    -2.9762     3.1732 H       
  66 H66            8.8101    -1.6501     3.8082 H       
  67 H67            7.3823    -2.2001     4.7178 H       
  68 H68            0.7727    -1.0170     8.6844 H       
  69 H69            2.0124    -0.2492     9.7052 H       
  70 H70            0.9393     0.7551     8.7011 H       
  71 H71            3.8570    -1.7119     6.7793 H       
  72 H72            3.6643    -1.8064     8.5462 H       
  73 H73            2.3813    -2.4217     7.4768 H       
@<TRIPOS>BOND
   1    1    2 1
   2    1    6 1
   3    1   40 1
   4    1   41 1
   5    2    3 1
   6    2    7 1
   7    2   12 1
   8    3    4 1
   9    4    5 1
  10    4   24 2
  11    5    6 2
  12    5   23 1
  13    6   22 1
  14    7    8 1
  15    7   11 1
  16    7   42 1
  17    8    9 1
  18    8   43 1
  19    8   44 1
  20    9   10 1
  21    9   45 1
  22    9   46 1
  23   10   11 1
  24   10   47 1
  25   10   48 1
  26   11   49 1
  27   11   50 1
  28   12   13 1
  29   12   51 1
  30   12   52 1
  31   13   14 1
  32   13   53 1
  33   13   54 1
  34   14   15 ar
  35   14   19 ar
  36   15   16 ar
  37   15   55 1
  38   16   17 ar
  39   16   56 1
  40   17   18 ar
  41   17   21 1
  42   18   19 ar
  43   18   20 1
  44   19   57 1
  45   21   36 1
  46   21   37 1
  47   21   38 1
  48   22   58 1
  49   23   25 1
  50   23   59 1
  51   23   60 1
  52   25   26 1
  53   25   29 2
  54   26   27 2
  55   27   28 1
  56   27   30 1
  57   28   29 1
  58   28   33 1
  59   30   31 2
  60   31   32 1
  61   31   35 1
  62   32   33 2
  63   32   61 1
  64   33   34 1
  65   34   62 1
  66   34   63 1
  67   34   64 1
  68   35   65 1
  69   35   66 1
  70   35   67 1
  71   36   68 1
  72   36   69 1
  73   36   70 1
  74   37   71 1
  75   37   72 1
  76   37   73 1
  77   38   39 3

#	End of record

