#	Name: ASD04882393
#	Creating user name:	WinNT
#	Creation time:	15. 06. 2019 20:54

#	Modifying user name:	WinNT
#	Modification time:	15. 06. 2019 20:54

#	Program:	/corina/corina34_cracker 3.40 0067  02.08.2006

@<TRIPOS>MOLECULE
ASD04882393
  74   78    0    0    0
SMALL
NO_CHARGES


@<TRIPOS>ATOM
   1 C1             0.0028     1.3920     0.0501 C.ar    
   2 C2             0.0139     0.0024     0.0315 C.ar    
   3 C3             1.2289    -0.6885    -0.0019 C.ar    
   4 C4             2.4201     0.0116    -0.0169 C.ar    
   5 C5             2.4061     1.4094     0.0014 C.ar    
   6 C6             1.1883     2.0937     0.0353 C.ar    
   7 N7            -1.1867    -0.7028     0.0467 N.3     
   8 C8            -1.9638    -0.3937     1.2551 C.3     
   9 C9            -1.9725    -0.4310    -1.1651 C.3     
  10 C10           -3.2436    -1.2832    -1.1474 C.3     
  11 N11           -4.0207    -0.9741     0.0610 N.3     
  12 C12           -3.2350    -1.2459     1.2728 C.3     
  13 C13            3.6755     2.1611    -0.0141 C.2     
  14 O14            4.7348     1.5648    -0.0427 O.2     
  15 C15           -5.2250    -1.6814     0.0762 C.ar    
  16 C16           -5.2168    -3.0702     0.0577 C.ar    
  17 C17           -6.4337    -0.9975     0.1156 C.ar    
  18 C18           -7.6224    -1.6999     0.1305 C.ar    
  19 C19           -7.6108    -3.0827     0.1067 C.ar    
  20 C20           -6.4096    -3.7665     0.0728 C.ar    
  21 N21            3.6609     3.5087     0.0036 N.am    
  22 C22           -6.4473     0.5092     0.1426 C.3     
  23 N23            1.2386    -2.0892    -0.0196 N.am    
  24 C24            2.1969    -2.7479    -0.7011 C.2     
  25 C25            2.2815    -4.2095    -0.6195 C.2     
  26 C26            3.1981    -4.9970    -1.2554 C.2     
  27 C27            2.9097    -6.3228    -0.8957 C.2     
  28 C28            1.8433    -6.2870    -0.0666 C.2     
  29 O29            1.4709    -5.0114     0.1017 O.3     
  30 O30            2.9921    -2.1295    -1.3842 O.2     
  31 C31            4.9214     4.2551    -0.0118 C.3     
  32 C32            4.6257     5.7560     0.0134 C.3     
  33 C33            5.9421     6.5355    -0.0026 C.3     
  34 C34            5.6508     8.0139     0.0222 C.ar    
  35 C35            5.5412     8.6755     1.2313 C.ar    
  36 C36            5.2742    10.0307     1.2567 C.ar    
  37 C37            5.1161    10.7278     0.0677 C.ar    
  38 C38            5.2266    10.0616    -1.1442 C.ar    
  39 C39            5.4993     8.7075    -1.1643 C.ar    
  40 O40            4.8530    12.0609     0.0901 O.3     
  41 H41           -0.9373     1.9231     0.0717 H       
  42 H42            3.3599    -0.5200    -0.0424 H       
  43 H43            1.1763     3.1735     0.0490 H       
  44 H44           -1.3653    -0.6150     2.1388 H       
  45 H45           -2.2339     0.6623     1.2536 H       
  46 H46           -2.2427     0.6246    -1.1941 H       
  47 H47           -1.3803    -0.6794    -2.0458 H       
  48 H48           -3.8421    -1.0618    -2.0311 H       
  49 H49           -2.9735    -2.3392    -1.1459 H       
  50 H50           -2.9648    -2.3015     1.3018 H       
  51 H51           -3.8272    -0.9974     2.1535 H       
  52 H52           -4.2789    -3.6050     0.0312 H       
  53 H53           -8.5624    -1.1688     0.1611 H       
  54 H54           -8.5420    -3.6296     0.1191 H       
  55 H55           -6.4040    -4.8464     0.0542 H       
  56 H56            2.8159     3.9843     0.0264 H       
  57 H57           -6.4738     0.8906    -0.8782 H       
  58 H58           -7.3287     0.8550     0.6826 H       
  59 H59           -5.5493     0.8718     0.6427 H       
  60 H60            0.5557    -2.5851     0.4585 H       
  61 H61            3.9911    -4.6642    -1.9087 H       
  62 H62            3.4402    -7.2056    -1.2209 H       
  63 H63            1.3716    -7.1452     0.3887 H       
  64 H64            5.5133     3.9867     0.8633 H       
  65 H65            5.4781     4.0096    -0.9162 H       
  66 H66            4.0338     6.0244    -0.8617 H       
  67 H67            4.0691     6.0015     0.9178 H       
  68 H68            6.5340     6.2671     0.8724 H       
  69 H69            6.4988     6.2900    -0.9070 H       
  70 H70            5.6639     8.1324     2.1566 H       
  71 H71            5.1882    10.5470     2.2014 H       
  72 H72            5.1040    10.6021    -2.0711 H       
  73 H73            5.5855     8.1884    -2.1075 H       
  74 H74            5.6433    12.6180     0.0818 H       
@<TRIPOS>BOND
   1    1    2 ar
   2    1    6 ar
   3    1   41 1
   4    2    3 ar
   5    2    7 1
   6    3    4 ar
   7    3   23 1
   8    4    5 ar
   9    4   42 1
  10    5    6 ar
  11    5   13 1
  12    6   43 1
  13    7    8 1
  14    7    9 1
  15    8   12 1
  16    8   44 1
  17    8   45 1
  18    9   10 1
  19    9   46 1
  20    9   47 1
  21   10   11 1
  22   10   48 1
  23   10   49 1
  24   11   12 1
  25   11   15 1
  26   12   50 1
  27   12   51 1
  28   13   14 2
  29   13   21 am
  30   15   16 ar
  31   15   17 ar
  32   16   20 ar
  33   16   52 1
  34   17   18 ar
  35   17   22 1
  36   18   19 ar
  37   18   53 1
  38   19   20 ar
  39   19   54 1
  40   20   55 1
  41   21   31 1
  42   21   56 1
  43   22   57 1
  44   22   58 1
  45   22   59 1
  46   23   24 am
  47   23   60 1
  48   24   25 1
  49   24   30 2
  50   25   26 2
  51   25   29 1
  52   26   27 1
  53   26   61 1
  54   27   28 2
  55   27   62 1
  56   28   29 1
  57   28   63 1
  58   31   32 1
  59   31   64 1
  60   31   65 1
  61   32   33 1
  62   32   66 1
  63   32   67 1
  64   33   34 1
  65   33   68 1
  66   33   69 1
  67   34   35 ar
  68   34   39 ar
  69   35   36 ar
  70   35   70 1
  71   36   37 ar
  72   36   71 1
  73   37   38 ar
  74   37   40 1
  75   38   39 ar
  76   38   72 1
  77   39   73 1
  78   40   74 1

#	End of record

