#	Name: ASD04640021
#	Creating user name:	WinNT
#	Creation time:	15. 06. 2019 20:52

#	Modifying user name:	WinNT
#	Modification time:	15. 06. 2019 20:52

#	Program:	/corina/corina34_cracker 3.40 0067  02.08.2006

@<TRIPOS>MOLECULE
ASD04640021
  63   67    0    0    0
SMALL
NO_CHARGES


@<TRIPOS>ATOM
   1 C1             0.0102     1.3413     0.0420 C.ar    
   2 C2             0.0303    -0.0529     0.0159 C.ar    
   3 C3             1.2549    -0.7225    -0.0175 C.ar    
   4 C4             2.4278    -0.0003    -0.0226 C.ar    
   5 C5             1.1953     2.0555     0.0345 C.ar    
   6 C6             2.4787     4.1430     0.4580 C.3     
   7 C7             1.1242     3.5612     0.0530 C.3     
   8 C8             2.4032     1.3878     0.0058 C.ar    
   9 C9             3.7173     2.1250     0.0089 C.3     
  10 N10            3.5211     3.5260    -0.3763 N.3     
  11 C11            4.7799     4.2779    -0.2877 C.3     
  12 C12            5.8992     3.4796    -0.9592 C.3     
  13 C13            7.2103     4.2628    -0.8669 C.3     
  14 C14            8.4022     6.3374    -1.5864 C.3     
  15 C15            7.0911     5.5542    -1.6787 C.3     
  16 C16            8.3527     3.4125    -1.4262 C.3     
  17 C17            9.6638     4.1957    -1.3339 C.3     
  18 C18            9.5446     5.4871    -2.1457 C.3     
  19 N19           10.8001     6.2370    -2.0574 N.am    
  20 C20           11.8144     5.9544    -2.8985 C.2     
  21 O21           11.6877     5.0773    -3.7304 O.2     
  22 C22           -1.1961    -0.7922     0.0239 C.1     
  23 N23           -2.1690    -1.3787     0.0303 N.1     
  24 C24           13.0819     6.7115    -2.8094 C.ar    
  25 C25           15.3989     7.1076    -3.4697 C.ar    
  26 N26           15.4487     8.1427    -2.6271 N.ar    
  27 C27           14.4197     8.4862    -1.8933 C.ar    
  28 C28           13.2109     7.7961    -1.9520 C.ar    
  29 C29           14.2079     6.3502    -3.5923 C.ar    
  30 C30           14.1627     5.2654    -4.4776 C.ar    
  31 C31           15.2655     4.9490    -5.2126 C.ar    
  32 C32           16.4390     5.6912    -5.0953 C.ar    
  33 C33           16.5173     6.7507    -4.2452 C.ar    
  34 H34           -0.9338     1.8655     0.0635 H       
  35 H35            1.2825    -1.8019    -0.0390 H       
  36 H36            3.3752    -0.5183    -0.0484 H       
  37 H37            2.4753     5.2218     0.3019 H       
  38 H38            2.6728     3.9227     1.5077 H       
  39 H39            0.8573     3.9230    -0.9399 H       
  40 H40            0.3655     3.8788     0.7682 H       
  41 H41            4.1504     2.0840     1.0083 H       
  42 H42            4.3981     1.6498    -0.6973 H       
  43 H43            4.6659     5.2379    -0.7912 H       
  44 H44            5.0306     4.4446     0.7599 H       
  45 H45            6.0132     2.5196    -0.4557 H       
  46 H46            5.6485     3.3129    -2.0068 H       
  47 H47            7.4154     4.5065     0.1755 H       
  48 H48            8.3173     7.2575    -2.1647 H       
  49 H49            8.6073     6.5811    -0.5440 H       
  50 H50            6.8860     5.3105    -2.7211 H       
  51 H51            6.2772     6.1600    -1.2803 H       
  52 H52            8.4376     2.4925    -0.8479 H       
  53 H53            8.1476     3.1688    -2.4686 H       
  54 H54            9.8689     4.4394    -0.2915 H       
  55 H55           10.4777     3.5899    -1.7324 H       
  56 H56            9.3396     5.2434    -3.1881 H       
  57 H57           10.9012     6.9370    -1.3935 H       
  58 H58           14.5096     9.3310    -1.2265 H       
  59 H59           12.3794     8.1030    -1.3350 H       
  60 H60           13.2588     4.6827    -4.5766 H       
  61 H61           15.2297     4.1123    -5.8945 H       
  62 H62           17.3002     5.4208    -5.6883 H       
  63 H63           17.4343     7.3158    -4.1664 H       
@<TRIPOS>BOND
   1    1    2 ar
   2    1    5 ar
   3    1   34 1
   4    2    3 ar
   5    2   22 1
   6    3    4 ar
   7    3   35 1
   8    4    8 ar
   9    4   36 1
  10    5    8 ar
  11    5    7 1
  12    6    7 1
  13    6   10 1
  14    6   37 1
  15    6   38 1
  16    7   39 1
  17    7   40 1
  18    8    9 1
  19    9   10 1
  20    9   41 1
  21    9   42 1
  22   10   11 1
  23   11   12 1
  24   11   43 1
  25   11   44 1
  26   12   13 1
  27   12   45 1
  28   12   46 1
  29   13   16 1
  30   13   15 1
  31   13   47 1
  32   14   15 1
  33   14   18 1
  34   14   48 1
  35   14   49 1
  36   15   50 1
  37   15   51 1
  38   16   17 1
  39   16   52 1
  40   16   53 1
  41   17   18 1
  42   17   54 1
  43   17   55 1
  44   18   19 1
  45   18   56 1
  46   19   20 am
  47   19   57 1
  48   20   21 2
  49   20   24 1
  50   22   23 3
  51   24   29 ar
  52   24   28 ar
  53   25   26 ar
  54   25   29 ar
  55   25   33 ar
  56   26   27 ar
  57   27   28 ar
  58   27   58 1
  59   28   59 1
  60   29   30 ar
  61   30   31 ar
  62   30   60 1
  63   31   32 ar
  64   31   61 1
  65   32   33 ar
  66   32   62 1
  67   33   63 1

#	End of record

