#	Name: ASD01152575
#	Creating user name:	WinNT
#	Creation time:	15. 06. 2019 19:06

#	Modifying user name:	WinNT
#	Modification time:	15. 06. 2019 19:06

#	Program:	/corina/corina34_cracker 3.40 0067  02.08.2006

@<TRIPOS>MOLECULE
ASD01152575
  47   49    0    0    0
SMALL
NO_CHARGES


@<TRIPOS>ATOM
   1 C1             0.5635     1.0249     0.6485 C.2     
   2 N2             0.4032    -0.2631     0.4915 N.2     
   3 N3            -0.8608    -0.8260     0.3168 N.am    
   4 C4            -1.9945    -0.1309     0.5065 C.2     
   5 C5            -1.9433     1.2801     1.0432 C.3     
   6 C6            -0.6268     1.8917     0.6194 C.2     
   7 C7            -2.0292     1.2568     2.5706 C.3     
   8 O8            -0.5535     3.0490     0.2616 O.2     
   9 N9             1.8347     1.5662     0.8452 N.pl3   
  10 C10           -0.9516    -2.1672    -0.0717 C.ar    
  11 O11           -3.0643    -0.6386     0.2451 O.2     
  12 C12           -2.1013     2.6691     3.0913 C.ar    
  13 C13           -1.7983    -3.0314     0.6079 C.ar    
  14 C14           -0.1982    -2.6339    -1.1422 C.ar    
  15 C15           -0.2876    -3.9576    -1.5264 C.ar    
  16 C16           -1.1260    -4.8219    -0.8483 C.ar    
  17 C17           -1.8854    -4.3607     0.2195 C.ar    
  18 C18           -3.3293     3.2807     3.2623 C.ar    
  19 C19           -0.9397     3.3507     3.4032 C.ar    
  20 C20           -1.0052     4.6459     3.8812 C.ar    
  21 C21           -3.3960     4.5760     3.7398 C.ar    
  22 C22           -2.2336     5.2604     4.0472 C.ar    
  23 Cl23          -2.3166     6.8872     4.6475 Cl      
  24 C24            3.0075     0.6888     0.8774 C.3     
  25 N25           -2.7376    -5.2355     0.9025 N.am    
  26 C26           -2.3785    -6.5219     1.0833 C.2     
  27 O27           -1.3570    -6.9426     0.5827 O.2     
  28 C28           -3.2464    -7.4377     1.9075 C.3     
  29 H29           -2.7708     1.8605     0.6351 H       
  30 H30           -2.9219     0.7110     2.8760 H       
  31 H31           -1.1456     0.7645     2.9768 H       
  32 H32            1.9418     2.5233     0.9605 H       
  33 H33           -2.3880    -2.6703     1.4375 H       
  34 H34            0.4577    -1.9609    -1.6744 H       
  35 H35            0.2986    -4.3179    -2.3588 H       
  36 H36           -1.1939    -5.8563    -1.1514 H       
  37 H37           -4.2366     2.7463     3.0224 H       
  38 H38            0.0191     2.8709     3.2736 H       
  39 H39           -0.0977     5.1780     4.1254 H       
  40 H40           -4.3554     5.0537     3.8730 H       
  41 H41            2.8999    -0.0319     1.6880 H       
  42 H42            3.0909     0.1587    -0.0714 H       
  43 H43            3.9043     1.2868     1.0396 H       
  44 H44           -3.5867    -4.9161     1.2458 H       
  45 H45           -4.1133    -6.8864     2.2715 H       
  46 H46           -3.5794    -8.2736     1.2924 H       
  47 H47           -2.6740    -7.8154     2.7548 H       
@<TRIPOS>BOND
   1    1    2 2
   2    1    9 1
   3    1    6 1
   4    2    3 1
   5    3    4 am
   6    3   10 1
   7    4    5 1
   8    4   11 2
   9    5    6 1
  10    5    7 1
  11    5   29 1
  12    6    8 2
  13    7   12 1
  14    7   30 1
  15    7   31 1
  16    9   24 1
  17    9   32 1
  18   10   13 ar
  19   10   14 ar
  20   12   18 ar
  21   12   19 ar
  22   13   17 ar
  23   13   33 1
  24   14   15 ar
  25   14   34 1
  26   15   16 ar
  27   15   35 1
  28   16   17 ar
  29   16   36 1
  30   17   25 1
  31   18   21 ar
  32   18   37 1
  33   19   20 ar
  34   19   38 1
  35   20   22 ar
  36   20   39 1
  37   21   22 ar
  38   21   40 1
  39   22   23 1
  40   24   41 1
  41   24   42 1
  42   24   43 1
  43   25   26 am
  44   25   44 1
  45   26   27 2
  46   26   28 1
  47   28   45 1
  48   28   46 1
  49   28   47 1

#	End of record

