#	Name: ASD01140653
#	Creating user name:	WinNT
#	Creation time:	15. 06. 2019 19:01

#	Modifying user name:	WinNT
#	Modification time:	15. 06. 2019 19:01

#	Program:	/corina/corina34_cracker 3.40 0067  02.08.2006

@<TRIPOS>MOLECULE
ASD01140653
  49   52    0    0    0
SMALL
NO_CHARGES


@<TRIPOS>ATOM
   1 C1             0.2732     1.7676     0.2176 C.3     
   2 C2             0.0191     0.2662     0.0683 C.3     
   3 N3             0.6674    -0.4507     1.1692 N.am    
   4 C4            -0.0651    -0.6993     2.4133 C.3     
   5 C5            -0.6633    -2.1071     2.3803 C.3     
   6 C6             1.9377    -0.8814     1.0374 C.2     
   7 O7             2.5188    -0.7464    -0.0225 O.2     
   8 C8             2.6222    -1.5157     2.1771 C.2     
   9 N9             2.1273    -1.6615     3.4337 N.2     
  10 C10            3.0132    -2.2658     4.1710 C.2     
  11 N11            4.1195    -2.5301     3.4154 N.pl3   
  12 C12            3.8654    -2.0696     2.1646 C.2     
  13 C13            4.7982    -2.1652     0.9810 C.3     
  14 N14            5.0920    -3.5913     0.7765 N.pl3   
  15 N15            4.9064    -4.2752    -0.2936 N.2     
  16 N16            5.2656    -5.4976    -0.1107 N.2     
  17 C17            5.7179    -5.6432     1.1384 C.2     
  18 C18            6.2359    -6.9094     1.7703 C.3     
  19 C19            5.6164    -4.4150     1.7282 C.2     
  20 C20            6.0054    -4.0677     3.1075 C.ar    
  21 C21            7.1482    -4.6706     3.6447 C.ar    
  22 C22            7.5561    -4.3701     4.9311 C.ar    
  23 O23            8.6674    -4.9589     5.4471 O.3     
  24 C24            9.0302    -4.6017     6.7823 C.3     
  25 C25            6.8304    -3.4663     5.6954 C.ar    
  26 C26            5.7006    -2.8705     5.1751 C.ar    
  27 C27            5.2794    -3.1590     3.8842 C.ar    
  28 H28            1.3460     1.9587     0.1938 H       
  29 H29           -0.2092     2.3009    -0.6015 H       
  30 H30           -0.1363     2.1127     1.1670 H       
  31 H31           -1.0537     0.0751     0.0921 H       
  32 H32            0.4286    -0.0789    -0.8811 H       
  33 H33            0.6166    -0.6139     3.2596 H       
  34 H34           -0.8656     0.0333     2.5163 H       
  35 H35           -1.3450    -2.1925     1.5341 H       
  36 H36            0.1372    -2.8397     2.2774 H       
  37 H37           -1.2082    -2.2921     3.3060 H       
  38 H38            2.8926    -2.5179     5.2142 H       
  39 H39            4.3164    -1.7541     0.0939 H       
  40 H40            5.7200    -1.6222     1.1897 H       
  41 H41            7.3107    -6.9845     1.6052 H       
  42 H42            6.0333    -6.8903     2.8411 H       
  43 H43            5.7384    -7.7693     1.3217 H       
  44 H44            7.7144    -5.3736     3.0517 H       
  45 H45            9.2165    -3.5289     6.8336 H       
  46 H46            8.2185    -4.8623     7.4615 H       
  47 H47            9.9324    -5.1413     7.0704 H       
  48 H48            7.1510    -3.2296     6.6993 H       
  49 H49            5.1403    -2.1691     5.7754 H       
@<TRIPOS>BOND
   1    1    2 1
   2    1   28 1
   3    1   29 1
   4    1   30 1
   5    2    3 1
   6    2   31 1
   7    2   32 1
   8    3    4 1
   9    3    6 am
  10    4    5 1
  11    4   33 1
  12    4   34 1
  13    5   35 1
  14    5   36 1
  15    5   37 1
  16    6    7 2
  17    6    8 1
  18    8   12 2
  19    8    9 1
  20    9   10 2
  21   10   11 1
  22   10   38 1
  23   11   27 1
  24   11   12 1
  25   12   13 1
  26   13   14 1
  27   13   39 1
  28   13   40 1
  29   14   19 1
  30   14   15 1
  31   15   16 2
  32   16   17 1
  33   17   18 1
  34   17   19 2
  35   18   41 1
  36   18   42 1
  37   18   43 1
  38   19   20 1
  39   20   27 ar
  40   20   21 ar
  41   21   22 ar
  42   21   44 1
  43   22   23 1
  44   22   25 ar
  45   23   24 1
  46   24   45 1
  47   24   46 1
  48   24   47 1
  49   25   26 ar
  50   25   48 1
  51   26   27 ar
  52   26   49 1

#	End of record

