#	Name: ASD01810198
#	Creating user name:	WinNT
#	Creation time:	15. 06. 2019 19:24

#	Modifying user name:	WinNT
#	Modification time:	15. 06. 2019 19:24

#	Program:	/corina/corina34_cracker 3.40 0067  02.08.2006

@<TRIPOS>MOLECULE
ASD01810198
  55   58    0    0    0
SMALL
NO_CHARGES


@<TRIPOS>ATOM
   1 C1             0.1038     1.4772     0.3903 C.ar    
   2 C2             0.0850     0.0900     0.3822 C.ar    
   3 C3             1.2535    -0.6295     0.2402 C.ar    
   4 C4             2.4697     0.0389     0.1030 C.ar    
   5 C5             2.4841     1.4435     0.1117 C.ar    
   6 C6             1.2942     2.1571     0.2562 C.ar    
   7 N7             3.6451    -0.6678    -0.0386 N.pl3   
   8 C8             4.8373    -0.0734    -0.1722 C.2     
   9 C9             4.9780     1.2999    -0.1779 C.2     
  10 C10            3.7769     2.1382    -0.0343 C.2     
  11 O11            3.8479     3.3547    -0.0335 O.2     
  12 C12            6.3049     1.9144    -0.3259 C.2     
  13 O13            6.4293     3.2567    -0.3300 O.3     
  14 O14            7.2901     1.2123    -0.4446 O.2     
  15 C15            3.5871    -2.1316    -0.0427 C.3     
  16 C16            3.4445    -2.6248    -1.4595 C.ar    
  17 C17            4.5665    -2.7659    -2.2562 C.ar    
  18 C18            4.4417    -3.2172    -3.5545 C.ar    
  19 C19            3.1828    -3.5312    -4.0623 C.ar    
  20 C20            2.0561    -3.3875    -3.2553 C.ar    
  21 C21            2.1929    -2.9400    -1.9568 C.ar    
  22 C22            3.0423    -4.0164    -5.4577 C.ar    
  23 C23            4.1706    -4.1591    -6.2641 C.ar    
  24 C24            4.0428    -4.6106    -7.5636 C.ar    
  25 C25            2.7985    -4.9233    -8.0723 C.ar    
  26 C26            1.6606    -4.7845    -7.2745 C.ar    
  27 C27            1.7854    -4.3349    -5.9613 C.ar    
  28 C28            0.3276    -5.1191    -7.8199 C.2     
  29 N29            0.2095    -5.5586    -9.0885 N.am    
  30 C30           -1.1112    -5.8901    -9.6289 C.3     
  31 C31           -0.9661    -6.3603   -11.0777 C.3     
  32 O32           -0.2267    -7.5827   -11.1100 O.3     
  33 O33           -0.6617    -4.9977    -7.1242 O.2     
  34 F34            1.2196    -1.9801     0.2346 F       
  35 H35           -0.8197     2.0266     0.4977 H       
  36 H36           -0.8544    -0.4322     0.4885 H       
  37 H37            1.3062     3.2370     0.2624 H       
  38 H38            5.7184    -0.6889    -0.2786 H       
  39 H39            7.3221     3.6146    -0.4300 H       
  40 H40            4.5030    -2.5328     0.3913 H       
  41 H41            2.7311    -2.4629     0.5452 H       
  42 H42            5.5418    -2.5223    -1.8616 H       
  43 H43            5.3183    -3.3264    -4.1759 H       
  44 H44            1.0779    -3.6295    -3.6438 H       
  45 H45            1.3203    -2.8283    -1.3304 H       
  46 H46            5.1471    -3.9158    -5.8721 H       
  47 H47            4.9201    -4.7190    -8.1840 H       
  48 H48            2.7045    -5.2755    -9.0889 H       
  49 H49            0.9088    -4.2261    -5.3398 H       
  50 H50            0.9990    -5.6555    -9.6437 H       
  51 H51           -1.5590    -6.6848    -9.0322 H       
  52 H52           -1.7494    -5.0072    -9.5957 H       
  53 H53           -1.9545    -6.5220   -11.5079 H       
  54 H54           -0.4384    -5.6011   -11.6549 H       
  55 H55           -0.0960    -7.9399   -11.9990 H       
@<TRIPOS>BOND
   1    1    2 ar
   2    1    6 ar
   3    1   35 1
   4    2    3 ar
   5    2   36 1
   6    3    4 ar
   7    3   34 1
   8    4    5 ar
   9    4    7 1
  10    5    6 ar
  11    5   10 1
  12    6   37 1
  13    7    8 1
  14    7   15 1
  15    8    9 2
  16    8   38 1
  17    9   10 1
  18    9   12 1
  19   10   11 2
  20   12   13 1
  21   12   14 2
  22   13   39 1
  23   15   16 1
  24   15   40 1
  25   15   41 1
  26   16   17 ar
  27   16   21 ar
  28   17   18 ar
  29   17   42 1
  30   18   19 ar
  31   18   43 1
  32   19   20 ar
  33   19   22 1
  34   20   21 ar
  35   20   44 1
  36   21   45 1
  37   22   23 ar
  38   22   27 ar
  39   23   24 ar
  40   23   46 1
  41   24   25 ar
  42   24   47 1
  43   25   26 ar
  44   25   48 1
  45   26   27 ar
  46   26   28 1
  47   27   49 1
  48   28   29 am
  49   28   33 2
  50   29   30 1
  51   29   50 1
  52   30   31 1
  53   30   51 1
  54   30   52 1
  55   31   32 1
  56   31   53 1
  57   31   54 1
  58   32   55 1

#	End of record

