#	Name: ASD01410775
#	Creating user name:	WinNT
#	Creation time:	15. 06. 2019 19:18

#	Modifying user name:	WinNT
#	Modification time:	15. 06. 2019 19:18

#	Program:	/corina/corina34_cracker 3.40 0067  02.08.2006

@<TRIPOS>MOLECULE
ASD01410775
  82   85    0    0    0
SMALL
NO_CHARGES


@<TRIPOS>ATOM
   1 C1            -0.2918     1.5249    -0.5544 C.ar    
   2 C2            -0.1980     0.1190    -0.4053 C.ar    
   3 C3            -1.3856    -0.6464    -0.3400 C.ar    
   4 C4            -2.5855     0.0101    -0.4244 C.ar    
   5 C5            -2.6075     1.4037    -0.5711 C.ar    
   6 N6            -1.4911     2.1096    -0.6367 N.ar    
   7 C7             0.8870     2.2865    -0.6195 C.ar    
   8 C8             2.1084     1.6576    -0.5378 C.ar    
   9 C9             2.1892     0.2694    -0.3907 C.ar    
  10 C10            1.0623    -0.4910    -0.3255 C.ar    
  11 C11            0.8144     3.7833    -0.7784 C.3     
  12 C12           -3.9081     2.0997    -0.6609 C.2     
  13 S13           -5.4889     1.3244    -0.5989 S.3     
  14 N14           -4.0698     3.3854    -0.7929 N.2     
  15 C15           -5.3018     3.8289    -0.8561 C.2     
  16 C16           -6.2619     2.8986    -0.7747 C.2     
  17 C17           -5.6182     5.2944    -1.0085 C.3     
  18 C18           -5.8272     5.6198    -2.4889 C.3     
  19 C19           -6.8925     5.6249    -0.2289 C.3     
  20 O20           -1.3382    -1.9943    -0.1982 O.3     
  21 C21           -2.5878    -2.6850    -0.1415 C.3     
  22 C22           -3.0745    -2.8349     1.3242 C.3     
  23 C23           -2.4239    -4.1653    -0.5676 C.3     
  24 C24           -2.3008    -4.0746     1.8202 C.3     
  25 C25           -3.1865    -4.9100     2.7083 C.2     
  26 O26           -3.4572    -6.0453     2.3955 O.2     
  27 O27           -3.6746    -4.3930     3.8468 O.3     
  28 C28           -1.4202    -4.2806    -1.7166 C.3     
  29 C29           -1.9624    -3.5440    -2.9432 C.3     
  30 C30           -0.9075    -3.5536    -4.0514 C.3     
  31 C31           -1.4415    -2.8281    -5.2595 C.2     
  32 O32           -0.6836    -2.7105    -6.3611 O.3     
  33 O33           -2.5519    -2.3522    -5.2365 O.2     
  34 N34           -1.9099    -4.8490     0.6332 N.am    
  35 O35           -0.6942    -6.4648     1.7972 O.3     
  36 C36            0.0598    -7.7040     1.7310 C.3     
  37 C37            1.2609    -7.5210     0.8010 C.3     
  38 C38            0.5510    -8.0775     3.1310 C.3     
  39 C39           -0.8380    -8.8190     1.1911 C.3     
  40 C40           -1.1999    -5.9945     0.6414 C.2     
  41 O41           -1.0161    -6.6029    -0.3943 O.2     
  42 O42            3.2483     2.3936    -0.6012 O.3     
  43 C43            4.4850     1.6833    -0.5107 C.3     
  44 H44           -3.5111    -0.5445    -0.3782 H       
  45 H45            3.1574    -0.2051    -0.3288 H       
  46 H46            1.1386    -1.5622    -0.2111 H       
  47 H47            0.7837     4.2521     0.2051 H       
  48 H48            1.6924     4.1341    -1.3208 H       
  49 H49           -0.0853     4.0465    -1.3346 H       
  50 H50           -7.3257     3.0816    -0.8091 H       
  51 H51           -4.7903     5.8872    -0.6196 H       
  52 H52           -6.6551     5.0270    -2.8778 H       
  53 H53           -6.0560     6.6798    -2.5991 H       
  54 H54           -4.9193     5.3844    -3.0443 H       
  55 H55           -6.7436     5.3931     0.8257 H       
  56 H56           -7.1213     6.6849    -0.3391 H       
  57 H57           -7.7204     5.0321    -0.6178 H       
  58 H58           -3.3376    -2.1827    -0.7526 H       
  59 H59           -2.8095    -1.9549     1.9104 H       
  60 H60           -4.1494    -3.0124     1.3574 H       
  61 H61           -3.3862    -4.5842    -0.8619 H       
  62 H62           -1.4133    -3.7621     2.3705 H       
  63 H63           -4.2380    -4.9670     4.3835 H       
  64 H64           -0.4713    -3.8364    -1.4161 H       
  65 H65           -1.2679    -5.3316    -1.9619 H       
  66 H66           -2.8651    -4.0422    -3.2966 H       
  67 H67           -2.1973    -2.5142    -2.6741 H       
  68 H68           -0.0047    -3.0553    -3.6980 H       
  69 H69           -0.6725    -4.5834    -4.3204 H       
  70 H70           -1.0692    -2.2367    -7.1107 H       
  71 H71            1.9005    -6.7266     1.1856 H       
  72 H72            1.8269    -8.4512     0.7513 H       
  73 H73            0.9110    -7.2549    -0.1964 H       
  74 H74           -0.3047    -8.2078     3.7935 H       
  75 H75            1.1170    -9.0077     3.0813 H       
  76 H76            1.1906    -7.2831     3.5156 H       
  77 H77           -1.1879    -8.5529     0.1937 H       
  78 H78           -0.2719    -9.7492     1.1414 H       
  79 H79           -1.6937    -8.9494     1.8536 H       
  80 H80            4.5532     0.9667    -1.3292 H       
  81 H81            5.3141     2.3880    -0.5747 H       
  82 H82            4.5309     1.1536     0.4408 H       
@<TRIPOS>BOND
   1    1    2 ar
   2    1    7 ar
   3    1    6 ar
   4    2    3 ar
   5    2   10 ar
   6    3    4 ar
   7    3   20 1
   8    4    5 ar
   9    4   44 1
  10    5    6 ar
  11    5   12 1
  12    7    8 ar
  13    7   11 1
  14    8    9 ar
  15    8   42 1
  16    9   10 ar
  17    9   45 1
  18   10   46 1
  19   11   47 1
  20   11   48 1
  21   11   49 1
  22   12   13 1
  23   12   14 2
  24   13   16 1
  25   14   15 1
  26   15   16 2
  27   15   17 1
  28   16   50 1
  29   17   18 1
  30   17   19 1
  31   17   51 1
  32   18   52 1
  33   18   53 1
  34   18   54 1
  35   19   55 1
  36   19   56 1
  37   19   57 1
  38   20   21 1
  39   21   22 1
  40   21   23 1
  41   21   58 1
  42   22   24 1
  43   22   59 1
  44   22   60 1
  45   23   28 1
  46   23   34 1
  47   23   61 1
  48   24   25 1
  49   24   34 1
  50   24   62 1
  51   25   26 2
  52   25   27 1
  53   27   63 1
  54   28   29 1
  55   28   64 1
  56   28   65 1
  57   29   30 1
  58   29   66 1
  59   29   67 1
  60   30   31 1
  61   30   68 1
  62   30   69 1
  63   31   32 1
  64   31   33 2
  65   32   70 1
  66   34   40 am
  67   35   36 1
  68   35   40 1
  69   36   37 1
  70   36   38 1
  71   36   39 1
  72   37   71 1
  73   37   72 1
  74   37   73 1
  75   38   74 1
  76   38   75 1
  77   38   76 1
  78   39   77 1
  79   39   78 1
  80   39   79 1
  81   40   41 2
  82   42   43 1
  83   43   80 1
  84   43   81 1
  85   43   82 1

#	End of record

