#	Name: ASD07210001
#	Creating user name:	WinNT
#	Creation time:	15. 06. 2019 21:09

#	Modifying user name:	WinNT
#	Modification time:	15. 06. 2019 21:09

#	Program:	/corina/corina34_cracker 3.40 0067  02.08.2006

@<TRIPOS>MOLECULE
ASD07210001
  83   83    0    0    0
SMALL
NO_CHARGES


@<TRIPOS>ATOM
   1 C1             0.1331     2.6967     1.3277 C.3     
   2 C2             0.4294     1.2262     1.6288 C.3     
   3 C3             0.8054     0.5058     0.3324 C.3     
   4 C4             0.7507    -1.0069     0.5551 C.3     
   5 C5             1.8015    -1.4051     1.5593 C.2     
   6 O6             1.5061    -1.5307     2.7283 O.2     
   7 C7             3.1845    -1.6411     1.1213 C.2     
   8 C8             3.5130    -1.5013    -0.1789 C.2     
   9 C9             4.8926    -1.7519    -0.6193 C.2     
  10 O10            5.7040    -2.2066     0.1582 O.2     
  11 C11            5.2986    -1.4437    -2.0375 C.3     
  12 S12            4.4131    -2.1066     2.2953 S.o2    
  13 O13            4.5613    -3.5155     2.1838 O.2     
  14 O14            5.4916    -1.1962     2.1299 O.2     
  15 C15            3.7459    -1.8017     3.8973 C.ar    
  16 C16            3.0386    -2.7930     4.5513 C.ar    
  17 C17            2.5154    -2.5542     5.8084 C.ar    
  18 C18            2.6996    -1.3236     6.4115 C.ar    
  19 C19            3.4073    -0.3319     5.7568 C.ar    
  20 C20            3.9347    -0.5730     4.5023 C.ar    
  21 N21            3.6047     0.9854     6.4020 N.pl3   
  22 O22            4.2279     1.8587     5.8254 O.2     
  23 O23            3.1438     1.1962     7.5095 O.2     
  24 I24            1.9062    -0.9611     8.3163 I       
  25 N25           -0.5732    -1.3785     1.0604 N.am    
  26 C26           -1.5778    -1.6291     0.1976 C.2     
  27 O27           -1.4120    -1.4600    -0.9919 O.2     
  28 C28           -2.9072    -2.1195     0.7108 C.3     
  29 N29           -3.8233    -2.3154    -0.4155 N.am    
  30 C30           -5.1553    -2.2543    -0.2192 C.2     
  31 O31           -5.5955    -2.0371     0.8898 O.2     
  32 C32           -6.0977    -2.4559    -1.3778 C.3     
  33 C33           -6.1960    -1.1609    -2.1865 C.3     
  34 C34           -7.0531    -1.4006    -3.4311 C.3     
  35 C35           -7.2550    -0.0783    -4.1737 C.3     
  36 C36           -6.3484    -2.3997    -4.3509 C.3     
  37 N37           -7.4277    -2.8182    -0.8699 N.3     
  38 C38           -2.7119    -3.4468     1.4462 C.3     
  39 C39           -4.0376    -3.8821     2.0738 C.3     
  40 C40           -3.8739    -5.2674     2.7022 C.3     
  41 C41           -4.4450    -2.8773     3.1534 C.3     
  42 C42            1.5915     1.1325     2.6197 C.3     
  43 H43           -0.6947     2.7634     0.6218 H       
  44 H44           -0.1347     3.2099     2.2513 H       
  45 H45            1.0177     3.1645     0.8956 H       
  46 H46           -0.4552     0.7584     2.0610 H       
  47 H47            0.1032     0.7829    -0.4540 H       
  48 H48            1.8143     0.7933     0.0364 H       
  49 H49            0.9367    -1.5200    -0.3884 H       
  50 H50            2.7624    -1.2052    -0.8968 H       
  51 H51            4.4425    -1.0457    -2.5822 H       
  52 H52            6.1014    -0.7064    -2.0335 H       
  53 H53            5.6456    -2.3561    -2.5226 H       
  54 H54            2.8945    -3.7540     4.0801 H       
  55 H55            1.9625    -3.3286     6.3193 H       
  56 H56            4.4873     0.2014     3.9910 H       
  57 H57           -0.7268    -1.4443     2.0159 H       
  58 H58           -3.3263    -1.3827     1.3961 H       
  59 H59           -3.4713    -2.4891    -1.3025 H       
  60 H60           -5.7225    -3.2555    -2.0165 H       
  61 H61           -6.6539    -0.3840    -1.5742 H       
  62 H62           -5.1976    -0.8443    -2.4884 H       
  63 H63           -8.0219    -1.8017    -3.1333 H       
  64 H64           -6.2862     0.3228    -4.4715 H       
  65 H65           -7.8655    -0.2491    -5.0604 H       
  66 H66           -7.7570     0.6335    -3.5185 H       
  67 H67           -6.2046    -3.3418    -3.8218 H       
  68 H68           -6.9590    -2.5705    -5.2375 H       
  69 H69           -5.3796    -1.9986    -4.6486 H       
  70 H70           -7.7975    -2.0923    -0.2746 H       
  71 H71           -8.0613    -3.0216    -1.6283 H       
  72 H72           -2.3769    -4.2072     0.7407 H       
  73 H73           -1.9632    -3.3220     2.2285 H       
  74 H74           -4.8085    -3.9210     1.3042 H       
  75 H75           -3.1030    -5.2285     3.4718 H       
  76 H76           -4.8184    -5.5775     3.1493 H       
  77 H77           -3.5837    -5.9832     1.9331 H       
  78 H78           -3.6741    -2.8384     3.9230 H       
  79 H79           -4.5616    -1.8904     2.7058 H       
  80 H80           -5.3894    -3.1874     3.6005 H       
  81 H81            2.5355     1.2206     2.0819 H       
  82 H82            1.5125     1.9383     3.3495 H       
  83 H83            1.5543     0.1720     3.1336 H       
@<TRIPOS>BOND
   1    1    2 1
   2    1   43 1
   3    1   44 1
   4    1   45 1
   5    2    3 1
   6    2   42 1
   7    2   46 1
   8    3    4 1
   9    3   47 1
  10    3   48 1
  11    4    5 1
  12    4   25 1
  13    4   49 1
  14    5    6 2
  15    5    7 1
  16    7    8 2
  17    7   12 1
  18    8    9 1
  19    8   50 1
  20    9   10 2
  21    9   11 1
  22   11   51 1
  23   11   52 1
  24   11   53 1
  25   12   13 2
  26   12   14 2
  27   12   15 1
  28   15   16 ar
  29   15   20 ar
  30   16   17 ar
  31   16   54 1
  32   17   18 ar
  33   17   55 1
  34   18   19 ar
  35   18   24 1
  36   19   20 ar
  37   19   21 1
  38   20   56 1
  39   21   22 2
  40   21   23 2
  41   25   26 am
  42   25   57 1
  43   26   27 2
  44   26   28 1
  45   28   29 1
  46   28   38 1
  47   28   58 1
  48   29   30 am
  49   29   59 1
  50   30   31 2
  51   30   32 1
  52   32   33 1
  53   32   37 1
  54   32   60 1
  55   33   34 1
  56   33   61 1
  57   33   62 1
  58   34   35 1
  59   34   36 1
  60   34   63 1
  61   35   64 1
  62   35   65 1
  63   35   66 1
  64   36   67 1
  65   36   68 1
  66   36   69 1
  67   37   70 1
  68   37   71 1
  69   38   39 1
  70   38   72 1
  71   38   73 1
  72   39   40 1
  73   39   41 1
  74   39   74 1
  75   40   75 1
  76   40   76 1
  77   40   77 1
  78   41   78 1
  79   41   79 1
  80   41   80 1
  81   42   81 1
  82   42   82 1
  83   42   83 1

#	End of record

