#	Name: ASD00068001
#	Creating user name:	WinNT
#	Creation time:	15. 06. 2019 18:29

#	Modifying user name:	WinNT
#	Modification time:	15. 06. 2019 18:29

#	Program:	/corina/corina34_cracker 3.40 0067  02.08.2006

@<TRIPOS>MOLECULE
ASD00068001
  31   32    0    0    0
SMALL
NO_CHARGES


@<TRIPOS>ATOM
   1 C1             0.0120     1.4153    -0.1031 C.ar    
   2 C2            -0.0080     0.0393    -0.0544 C.ar    
   3 C3             1.1751    -0.6884    -0.0257 C.ar    
   4 C4             2.3869    -0.0034    -0.0589 C.ar    
   5 C5             2.4046     1.3752    -0.1112 C.ar    
   6 C6             1.2207     2.0887    -0.1319 C.ar    
   7 C7            -1.1463    -0.9623    -0.0318 C.3     
   8 C8            -0.4191    -2.2816    -0.3839 C.3     
   9 O9             0.9294    -2.0256     0.0441 O.3     
  10 C10           -1.0203    -3.4556     0.3915 C.3     
  11 C11           -1.7685    -1.0396     1.3386 C.2     
  12 N12           -3.0901    -1.2709     1.4665 N.am    
  13 O13           -1.0800    -0.8937     2.3263 O.2     
  14 C14           -3.6950    -1.3460     2.7987 C.3     
  15 C15           -5.1950    -1.6152     2.6633 C.3     
  16 S16           -5.9439    -1.7083     4.3129 S.3     
  17 H17           -0.9152     1.9686    -0.1233 H       
  18 H18            3.3164    -0.5533    -0.0434 H       
  19 H19            3.3484     1.8997    -0.1361 H       
  20 H20            1.2390     3.1678    -0.1701 H       
  21 H21           -1.8954    -0.7176    -0.7849 H       
  22 H22           -0.4548    -2.4676    -1.4573 H       
  23 H23           -2.0962    -3.4911     0.2205 H       
  24 H24           -0.5672    -4.3864     0.0504 H       
  25 H25           -0.8257    -3.3256     1.4561 H       
  26 H26           -3.6408    -1.3876     0.6766 H       
  27 H27           -3.2303    -2.1541     3.3637 H       
  28 H28           -3.5410    -0.4019     3.3214 H       
  29 H29           -5.6597    -0.8071     2.0984 H       
  30 H30           -5.3490    -2.5593     2.1406 H       
  31 H31           -7.2403    -1.9446     4.0437 H       
@<TRIPOS>BOND
   1    1    2 ar
   2    1    6 ar
   3    1   17 1
   4    2    3 ar
   5    2    7 1
   6    3    4 ar
   7    3    9 1
   8    4    5 ar
   9    4   18 1
  10    5    6 ar
  11    5   19 1
  12    6   20 1
  13    7    8 1
  14    7   11 1
  15    7   21 1
  16    8    9 1
  17    8   10 1
  18    8   22 1
  19   10   23 1
  20   10   24 1
  21   10   25 1
  22   11   12 am
  23   11   13 2
  24   12   14 1
  25   12   26 1
  26   14   15 1
  27   14   27 1
  28   14   28 1
  29   15   16 1
  30   15   29 1
  31   15   30 1
  32   16   31 1

#	End of record

