#	Name: ASD01890190
#	Creating user name:	WinNT
#	Creation time:	15. 06. 2019 19:50

#	Modifying user name:	WinNT
#	Modification time:	15. 06. 2019 19:50

#	Program:	/corina/corina34_cracker 3.40 0067  02.08.2006

@<TRIPOS>MOLECULE
ASD01890190
  41   42    0    0    0
SMALL
NO_CHARGES


@<TRIPOS>ATOM
   1 C1            -0.0279     1.4541    -0.0223 C.2     
   2 C2            -0.0036    -0.0080    -0.0416 C.2     
   3 C3             1.1740    -0.6622    -0.1145 C.2     
   4 C4             2.4493     0.1057    -0.3495 C.3     
   5 C5             3.0808     0.4693     0.9958 C.3     
   6 O6             1.0138     2.0788     0.0396 O.2     
   7 O7            -1.2054     2.1100    -0.0788 O.3     
   8 C8             1.2133    -2.1258     0.0353 C.ar    
   9 C9             0.5944    -2.9462    -0.9132 C.ar    
  10 C10            0.6360    -4.3166    -0.7661 C.ar    
  11 C11            1.2876    -4.8805     0.3169 C.ar    
  12 C12            1.9021    -4.0752     1.2601 C.ar    
  13 C13            1.8747    -2.7034     1.1237 C.ar    
  14 C14            4.3561     1.2372     0.7609 C.ar    
  15 C15            4.3244     2.6159     0.6650 C.ar    
  16 C16            5.4933     3.3212     0.4500 C.ar    
  17 C17            6.6964     2.6464     0.3308 C.ar    
  18 C18            6.7269     1.2655     0.4270 C.ar    
  19 C19            5.5575     0.5627     0.6473 C.ar    
  20 F20            7.8396     3.3347     0.1202 F       
  21 C21           -1.1544     3.5379    -0.0559 C.3     
  22 C22           -2.5756     4.1001    -0.1273 C.3     
  23 H23           -0.9284    -0.5640     0.0026 H       
  24 H24            3.1434    -0.5093    -0.9223 H       
  25 H25            2.2276     1.0170    -0.9049 H       
  26 H26            2.3867     1.0842     1.5687 H       
  27 H27            3.3025    -0.4420     1.5513 H       
  28 H28            0.0849    -2.5077    -1.7585 H       
  29 H29            0.1585    -4.9516    -1.4977 H       
  30 H30            1.3164    -5.9545     0.4269 H       
  31 H31            2.4080    -4.5227     2.1029 H       
  32 H32            2.3585    -2.0765     1.8581 H       
  33 H33            3.3858     3.1421     0.7577 H       
  34 H34            5.4683     4.3983     0.3747 H       
  35 H35            7.6648     0.7380     0.3342 H       
  36 H36            5.5816    -0.5141     0.7265 H       
  37 H37           -0.6784     3.8696     0.8669 H       
  38 H38           -0.5791     3.8947    -0.9101 H       
  39 H39           -3.0516     3.7684    -1.0501 H       
  40 H40           -3.1509     3.7433     0.7269 H       
  41 H41           -2.5367     5.1893    -0.1098 H       
@<TRIPOS>BOND
   1    1    2 1
   2    1    6 2
   3    1    7 1
   4    2    3 2
   5    2   23 1
   6    3    4 1
   7    3    8 1
   8    4    5 1
   9    4   24 1
  10    4   25 1
  11    5   14 1
  12    5   26 1
  13    5   27 1
  14    7   21 1
  15    8    9 ar
  16    8   13 ar
  17    9   10 ar
  18    9   28 1
  19   10   11 ar
  20   10   29 1
  21   11   12 ar
  22   11   30 1
  23   12   13 ar
  24   12   31 1
  25   13   32 1
  26   14   15 ar
  27   14   19 ar
  28   15   16 ar
  29   15   33 1
  30   16   17 ar
  31   16   34 1
  32   17   18 ar
  33   17   20 1
  34   18   19 ar
  35   18   35 1
  36   19   36 1
  37   21   22 1
  38   21   37 1
  39   21   38 1
  40   22   39 1
  41   22   40 1
  42   22   41 1

#	End of record

