#	Name: ASD02560064
#	Creating user name:	WinNT
#	Creation time:	15. 06. 2019 20:24

#	Modifying user name:	WinNT
#	Modification time:	15. 06. 2019 20:24

#	Program:	/corina/corina34_cracker 3.40 0067  02.08.2006

@<TRIPOS>MOLECULE
ASD02560064
  43   45    0    0    0
SMALL
NO_CHARGES


@<TRIPOS>ATOM
   1 C1             0.0354     1.3807     0.0174 C.ar    
   2 C2             0.0480     0.0035     0.0104 C.ar    
   3 C3             1.2565    -0.6822    -0.0142 C.ar    
   4 C4             2.4570     0.0178    -0.0315 C.ar    
   5 C5             2.4534     1.3951    -0.0242 C.ar    
   6 C6             1.2403     2.0886    -0.0004 C.ar    
   7 C7            -1.2506    -0.7610     0.0301 C.3     
   8 C8             3.7644    -0.7311    -0.0578 C.3     
   9 O9             1.2645    -2.0398    -0.0210 O.3     
  10 C10            1.2471    -2.6704    -1.2210 C.ar    
  11 C11            1.2543    -4.0584    -1.2867 C.ar    
  12 C12            1.2358    -4.6632    -2.5422 C.ar    
  13 N13            1.2121    -3.8964    -3.6292 N.ar    
  14 C14            1.2061    -2.5759    -3.5269 C.ar    
  15 N15            1.2176    -1.9686    -2.3501 N.ar    
  16 N16            1.1812    -1.8098    -4.6814 N.pl3   
  17 C17            1.2810    -2.4247    -5.9280 C.ar    
  18 C18            0.5855    -1.9056    -7.0158 C.ar    
  19 C19            0.6817    -2.5105    -8.2486 C.ar    
  20 C20            1.4798    -3.6473    -8.4072 C.ar    
  21 C21            2.1775    -4.1659    -7.3123 C.ar    
  22 C22            2.0804    -3.5531    -6.0834 C.ar    
  23 Br23           1.2888    -5.1020     0.2899 Br      
  24 N24            1.2425    -6.0448    -2.6569 N.pl3   
  25 C25            1.5819    -4.2795    -9.6880 C.1     
  26 N26            1.6629    -4.7810   -10.7041 N.1     
  27 C27            1.2319     3.5206     0.0068 C.1     
  28 N28            1.2252     4.6566     0.0125 N.1     
  29 H29           -0.9043     1.9128     0.0321 H       
  30 H30            3.3867     1.9384    -0.0370 H       
  31 H31           -1.5822    -0.9403    -0.9926 H       
  32 H32           -1.1031    -1.7148     0.5367 H       
  33 H33           -2.0057    -0.1808     0.5605 H       
  34 H34            4.0619    -0.9066    -1.0916 H       
  35 H35            4.5308    -0.1419     0.4458 H       
  36 H36            3.6462    -1.6865     0.4535 H       
  37 H37            1.0944    -0.8455    -4.6218 H       
  38 H38           -0.0308    -1.0273    -6.8925 H       
  39 H39            0.1411    -2.1075    -9.0923 H       
  40 H40            2.7946    -5.0442    -7.4313 H       
  41 H41            2.6191    -3.9531    -5.2372 H       
  42 H42            1.2601    -6.5976    -1.8600 H       
  43 H43            1.2295    -6.4588    -3.5340 H       
@<TRIPOS>BOND
   1    1    2 ar
   2    1    6 ar
   3    1   29 1
   4    2    3 ar
   5    2    7 1
   6    3    4 ar
   7    3    9 1
   8    4    5 ar
   9    4    8 1
  10    5    6 ar
  11    5   30 1
  12    6   27 1
  13    7   31 1
  14    7   32 1
  15    7   33 1
  16    8   34 1
  17    8   35 1
  18    8   36 1
  19    9   10 1
  20   10   11 ar
  21   10   15 ar
  22   11   12 ar
  23   11   23 1
  24   12   13 ar
  25   12   24 1
  26   13   14 ar
  27   14   15 ar
  28   14   16 1
  29   16   17 1
  30   16   37 1
  31   17   18 ar
  32   17   22 ar
  33   18   19 ar
  34   18   38 1
  35   19   20 ar
  36   19   39 1
  37   20   21 ar
  38   20   25 1
  39   21   22 ar
  40   21   40 1
  41   22   41 1
  42   24   42 1
  43   24   43 1
  44   25   26 3
  45   27   28 3

#	End of record

