#	Name: ASD05940002
#	Creating user name:	WinNT
#	Creation time:	15. 06. 2019 21:04

#	Modifying user name:	WinNT
#	Modification time:	15. 06. 2019 21:04

#	Program:	/corina/corina34_cracker 3.40 0067  02.08.2006

@<TRIPOS>MOLECULE
ASD05940002
  69   72    0    0    0
SMALL
NO_CHARGES


@<TRIPOS>ATOM
   1 N1            -0.0159     1.3181     0.0093 N.ar    
   2 C2             0.0021    -0.0041     0.0020 C.ar    
   3 N3             1.1319    -0.6930    -0.0101 N.ar    
   4 C4             2.3066    -0.0681    -0.0158 C.ar    
   5 C5             2.3274     1.3257    -0.0126 C.ar    
   6 C6             1.1197     2.0168     0.0022 C.ar    
   7 N7             3.4912    -0.7843    -0.0194 N.3     
   8 C8             4.5325    -0.1239    -0.8126 C.3     
   9 C9             4.6626     1.3202    -0.4024 C.2     
  10 N10            3.5574     2.0048    -0.0283 N.am    
  11 N11            1.0976     3.4049     0.0085 N.pl3   
  12 O12           -1.1750    -0.6756     0.0076 O.3     
  13 C13            3.2722    -2.1617    -0.4807 C.3     
  14 O14            5.7473     1.8634    -0.4080 O.2     
  15 C15            4.6022    -2.8335    -0.7061 C.ar    
  16 C16            5.2124    -3.5217     0.3255 C.ar    
  17 C17            6.4327    -4.1380     0.1188 C.ar    
  18 C18            7.0420    -4.0662    -1.1197 C.ar    
  19 C19            6.4312    -3.3785    -2.1519 C.ar    
  20 C20            5.2093    -2.7662    -1.9464 C.ar    
  21 C21           -2.3694     0.1089     0.0211 C.3     
  22 C22           -3.5876    -0.8168     0.0256 C.3     
  23 C23           -4.8663     0.0231     0.0401 C.3     
  24 C24           -6.0845    -0.9026     0.0446 C.3     
  25 C25            7.0958    -3.2999    -3.5021 C.3     
  26 N26            6.6614    -4.4341    -4.3286 N.3     
  27 C27            7.0964    -4.2675    -5.7212 C.3     
  28 C28            5.2071    -4.6194    -4.2451 C.3     
  29 C29            4.8096    -5.8913    -4.9977 C.3     
  30 C30            5.2443    -5.7697    -6.4608 C.3     
  31 C31            6.7554    -5.5289    -6.5178 C.3     
  32 C32            4.9093    -7.0434    -7.1933 C.2     
  33 O33            5.2019    -7.1643    -8.4977 O.3     
  34 O34            4.3774    -7.9558    -6.6064 O.2     
  35 C35            4.8507    -8.4190    -9.1385 C.3     
  36 H36            5.4840    -0.6315    -0.6537 H       
  37 H37            4.2697    -0.1768    -1.8692 H       
  38 H38            3.6126     2.9403     0.2223 H       
  39 H39            1.9298     3.9032     0.0026 H       
  40 H40            0.2500     3.8765     0.0188 H       
  41 H41            2.7102    -2.7125     0.2736 H       
  42 H42            2.7096    -2.1471    -1.4142 H       
  43 H43            4.7363    -3.5778     1.2933 H       
  44 H44            6.9099    -4.6751     0.9251 H       
  45 H45            7.9956    -4.5470    -1.2811 H       
  46 H46            4.7321    -2.2290    -2.7527 H       
  47 H47           -2.3840     0.7330     0.9146 H       
  48 H48           -2.3979     0.7426    -0.8653 H       
  49 H49           -3.5729    -1.4409    -0.8679 H       
  50 H50           -3.5591    -1.4505     0.9120 H       
  51 H51           -4.8810     0.6473     0.9336 H       
  52 H52           -4.8948     0.6569    -0.8463 H       
  53 H53           -6.0698    -1.5267    -0.8489 H       
  54 H54           -6.0560    -1.5363     0.9309 H       
  55 H55           -6.9955    -0.3042     0.0549 H       
  56 H56            6.8167    -2.3664    -3.9907 H       
  57 H57            8.1780    -3.3350    -3.3770 H       
  58 H58            6.5858    -3.4109    -6.1612 H       
  59 H59            8.1734    -4.1013    -5.7479 H       
  60 H60            4.9117    -4.7087    -3.1997 H       
  61 H61            4.7053    -3.7612    -4.6921 H       
  62 H62            5.3002    -6.7517    -4.5426 H       
  63 H63            3.7284    -6.0202    -4.9488 H       
  64 H64            4.7243    -4.9328    -6.9270 H       
  65 H65            7.0643    -5.3989    -7.5550 H       
  66 H66            7.2766    -6.3836    -6.0867 H       
  67 H67            5.3729    -9.2382    -8.6441 H       
  68 H68            3.7747    -8.5764    -9.0639 H       
  69 H69            5.1408    -8.3844   -10.1886 H       
@<TRIPOS>BOND
   1    1    2 ar
   2    1    6 ar
   3    2    3 ar
   4    2   12 1
   5    3    4 ar
   6    4    5 ar
   7    4    7 1
   8    5    6 ar
   9    5   10 1
  10    6   11 1
  11    7    8 1
  12    7   13 1
  13    8    9 1
  14    8   36 1
  15    8   37 1
  16    9   10 am
  17    9   14 2
  18   10   38 1
  19   11   39 1
  20   11   40 1
  21   12   21 1
  22   13   15 1
  23   13   41 1
  24   13   42 1
  25   15   16 ar
  26   15   20 ar
  27   16   17 ar
  28   16   43 1
  29   17   18 ar
  30   17   44 1
  31   18   19 ar
  32   18   45 1
  33   19   20 ar
  34   19   25 1
  35   20   46 1
  36   21   22 1
  37   21   47 1
  38   21   48 1
  39   22   23 1
  40   22   49 1
  41   22   50 1
  42   23   24 1
  43   23   51 1
  44   23   52 1
  45   24   53 1
  46   24   54 1
  47   24   55 1
  48   25   26 1
  49   25   56 1
  50   25   57 1
  51   26   27 1
  52   26   28 1
  53   27   31 1
  54   27   58 1
  55   27   59 1
  56   28   29 1
  57   28   60 1
  58   28   61 1
  59   29   30 1
  60   29   62 1
  61   29   63 1
  62   30   31 1
  63   30   32 1
  64   30   64 1
  65   31   65 1
  66   31   66 1
  67   32   33 1
  68   32   34 2
  69   33   35 1
  70   35   67 1
  71   35   68 1
  72   35   69 1

#	End of record

