#	Name: ASD09116328
#	Creating user name:	WinNT
#	Creation time:	15. 06. 2019 21:21

#	Modifying user name:	WinNT
#	Modification time:	15. 06. 2019 21:21

#	Program:	/corina/corina34_cracker 3.40 0067  02.08.2006

@<TRIPOS>MOLECULE
ASD09116328
  61   66    0    0    0
SMALL
NO_CHARGES


@<TRIPOS>ATOM
   1 N1            -0.0294     1.4178     0.1424 N.2     
   2 N2            -0.0204     0.0186     0.2608 N.pl3   
   3 C3             1.2223     1.8083     0.1134 C.2     
   4 N4             2.0194     0.7370     0.2067 N.2     
   5 C5             1.2890    -0.3534     0.2966 C.2     
   6 N6             1.7651    -1.6445     0.4084 N.pl3   
   7 C7            -1.1239    -0.8169     0.3283 C.2     
   8 N8             1.6540     3.1289     0.0031 N.pl3   
   9 C9             3.0183     3.4298     0.0974 C.ar    
  10 C10            3.5360     4.5264    -0.5795 C.ar    
  11 C11            3.8528     2.6348     0.8723 C.ar    
  12 C12            5.1981     2.9315     0.9652 C.ar    
  13 C13            5.7168     4.0247     0.2838 C.ar    
  14 C14            4.8813     4.8230    -0.4865 C.ar    
  15 N15            7.0805     4.3254     0.3780 N.3     
  16 C16            7.9023     3.1770    -0.0286 C.3     
  17 C17           -2.4236    -0.1465     0.2672 C.ar    
  18 C18           -3.4768    -0.5050     1.1196 C.ar    
  19 S19           -3.2383    -1.7802     2.3128 S.3     
  20 C20           -2.8169    -3.1692     1.3131 C.ar    
  21 C21           -1.6833    -3.1325     0.4958 C.ar    
  22 N22           -0.8642    -2.0535     0.4293 N.2     
  23 C23           -3.6182    -4.2979     1.3441 C.ar    
  24 C24           -3.3027    -5.3981     0.5641 C.ar    
  25 C25           -2.1855    -5.3710    -0.2487 C.ar    
  26 C26           -1.3782    -4.2518    -0.2879 C.ar    
  27 C27           -2.6264     0.8782    -0.6634 C.ar    
  28 C28           -4.6990     0.1404     1.0301 C.ar    
  29 C29           -3.8472     1.5160    -0.7387 C.ar    
  30 C30           -4.8834     1.1491     0.1015 C.ar    
  31 C31            7.4136     5.5155    -0.4172 C.3     
  32 C32            8.8931     5.8567    -0.2247 C.3     
  33 N33            9.7149     4.7083    -0.6313 N.3     
  34 C34            9.3818     3.5182     0.1639 C.3     
  35 C35           11.1462     5.0239    -0.5324 C.3     
  36 H36            2.7209    -1.8091     0.4258 H       
  37 H37            1.1439    -2.3869     0.4694 H       
  38 H38            1.0093     3.8396    -0.1391 H       
  39 H39            2.8864     5.1470    -1.1788 H       
  40 H40            3.4493     1.7848     1.4025 H       
  41 H41            5.8469     2.3135     1.5681 H       
  42 H42            5.2848     5.6730    -1.0167 H       
  43 H43            7.6461     2.3118     0.5829 H       
  44 H44            7.7152     2.9493    -1.0780 H       
  45 H45           -4.4917    -4.3207     1.9788 H       
  46 H46           -3.9296    -6.2771     0.5914 H       
  47 H47           -1.9425    -6.2300    -0.8565 H       
  48 H48           -0.5070    -4.2396    -0.9261 H       
  49 H49           -1.8244     1.1712    -1.3247 H       
  50 H50           -5.5088    -0.1444     1.6855 H       
  51 H51           -3.9954     2.3068    -1.4592 H       
  52 H52           -5.8370     1.6513     0.0329 H       
  53 H53            7.2209     5.3144    -1.4710 H       
  54 H54            6.8010     6.3553    -0.0890 H       
  55 H55            9.1493     6.7219    -0.8362 H       
  56 H56            9.0802     6.0844     0.8247 H       
  57 H57            9.5745     3.7193     1.2177 H       
  58 H58            9.9944     2.6784    -0.1643 H       
  59 H59           11.3911     5.2815     0.4980 H       
  60 H60           11.7314     4.1569    -0.8391 H       
  61 H61           11.3781     5.8673    -1.1828 H       
@<TRIPOS>BOND
   1    1    2 1
   2    1    3 2
   3    2    7 1
   4    2    5 1
   5    3    4 1
   6    3    8 1
   7    4    5 2
   8    5    6 1
   9    6   36 1
  10    6   37 1
  11    7   17 1
  12    7   22 2
  13    8    9 1
  14    8   38 1
  15    9   10 ar
  16    9   11 ar
  17   10   14 ar
  18   10   39 1
  19   11   12 ar
  20   11   40 1
  21   12   13 ar
  22   12   41 1
  23   13   14 ar
  24   13   15 1
  25   14   42 1
  26   15   31 1
  27   15   16 1
  28   16   34 1
  29   16   43 1
  30   16   44 1
  31   17   18 ar
  32   17   27 ar
  33   18   19 1
  34   18   28 ar
  35   19   20 1
  36   20   21 ar
  37   20   23 ar
  38   21   22 1
  39   21   26 ar
  40   23   24 ar
  41   23   45 1
  42   24   25 ar
  43   24   46 1
  44   25   26 ar
  45   25   47 1
  46   26   48 1
  47   27   29 ar
  48   27   49 1
  49   28   30 ar
  50   28   50 1
  51   29   30 ar
  52   29   51 1
  53   30   52 1
  54   31   32 1
  55   31   53 1
  56   31   54 1
  57   32   33 1
  58   32   55 1
  59   32   56 1
  60   33   34 1
  61   33   35 1
  62   34   57 1
  63   34   58 1
  64   35   59 1
  65   35   60 1
  66   35   61 1

#	End of record

