#	Name: ASD01913975
#	Creating user name:	WinNT
#	Creation time:	15. 06. 2019 20:02

#	Modifying user name:	WinNT
#	Modification time:	15. 06. 2019 20:02

#	Program:	/corina/corina34_cracker 3.40 0067  02.08.2006

@<TRIPOS>MOLECULE
ASD01913975
  41   44    0    0    0
SMALL
NO_CHARGES


@<TRIPOS>ATOM
   1 N1             0.1375     1.2593     0.0869 N.2     
   2 N2             0.2252    -0.0294     0.1175 N.pl3   
   3 C3             1.5173    -0.3949     0.1490 C.2     
   4 C4             2.2672     0.7656     0.1312 C.2     
   5 C5             1.3440     1.8081     0.0934 C.2     
   6 C6             3.7680     0.7306     0.1485 C.3     
   7 C7             2.2126    -1.6945     0.1996 C.ar    
   8 C8             1.5729    -2.9006    -0.0328 C.ar    
   9 C9             2.2969    -4.0775     0.0166 C.ar    
  10 C10            3.6523    -4.0453     0.2951 C.ar    
  11 C11            4.2963    -2.8463     0.5343 C.ar    
  12 C12            3.5878    -1.6564     0.4985 C.ar    
  13 O13            4.2014    -0.4803     0.7754 O.3     
  14 C14            1.6515     3.2525     0.0658 C.2     
  15 O15            2.8014     3.6315     0.1767 O.2     
  16 N16            0.6575     4.1505    -0.0824 N.am    
  17 C17           -0.9125    -0.9524     0.1184 C.3     
  18 C18           -0.7103     3.6932    -0.3399 C.3     
  19 C19            0.9316     5.5188     0.0097 C.ar    
  20 C20           -0.1089     6.4387     0.0055 C.ar    
  21 C21            0.1657     7.7902     0.0966 C.ar    
  22 C22            1.4759     8.2264     0.1918 C.ar    
  23 C23            2.5130     7.3123     0.1962 C.ar    
  24 C24            2.2445     5.9600     0.1112 C.ar    
  25 Cl25          -1.1336     8.9415     0.0909 Cl      
  26 H26            4.1451     0.7671    -0.8735 H       
  27 H27            4.1460     1.5862     0.7082 H       
  28 H28            0.5153    -2.9218    -0.2507 H       
  29 H29            1.8047    -5.0221    -0.1620 H       
  30 H30            4.2129    -4.9678     0.3262 H       
  31 H31            5.3545    -2.8369     0.7501 H       
  32 H32           -1.1763    -1.2048    -0.9086 H       
  33 H33           -0.6433    -1.8604     0.6581 H       
  34 H34           -1.7643    -0.4787     0.6064 H       
  35 H35           -1.1980     3.4555     0.6055 H       
  36 H36           -1.2671     4.4806    -0.8480 H       
  37 H37           -0.6836     2.8033    -0.9688 H       
  38 H38           -1.1311     6.0985    -0.0692 H       
  39 H39            1.6884     9.2829     0.2626 H       
  40 H40            3.5343     7.6558     0.2703 H       
  41 H41            3.0553     5.2465     0.1191 H       
@<TRIPOS>BOND
   1    1    2 1
   2    1    5 2
   3    2    3 1
   4    2   17 1
   5    3    4 2
   6    3    7 1
   7    4    5 1
   8    4    6 1
   9    5   14 1
  10    6   13 1
  11    6   26 1
  12    6   27 1
  13    7    8 ar
  14    7   12 ar
  15    8    9 ar
  16    8   28 1
  17    9   10 ar
  18    9   29 1
  19   10   11 ar
  20   10   30 1
  21   11   12 ar
  22   11   31 1
  23   12   13 1
  24   14   15 2
  25   14   16 am
  26   16   18 1
  27   16   19 1
  28   17   32 1
  29   17   33 1
  30   17   34 1
  31   18   35 1
  32   18   36 1
  33   18   37 1
  34   19   20 ar
  35   19   24 ar
  36   20   21 ar
  37   20   38 1
  38   21   22 ar
  39   21   25 1
  40   22   23 ar
  41   22   39 1
  42   23   24 ar
  43   23   40 1
  44   24   41 1

#	End of record

