#	Name: ASD01913565
#	Creating user name:	WinNT
#	Creation time:	15. 06. 2019 20:01

#	Modifying user name:	WinNT
#	Modification time:	15. 06. 2019 20:01

#	Program:	/corina/corina34_cracker 3.40 0067  02.08.2006

@<TRIPOS>MOLECULE
ASD01913565
  57   61    0    0    0
SMALL
NO_CHARGES


@<TRIPOS>ATOM
   1 C1             0.0408     1.4581    -0.3048 C.ar    
   2 C2             0.0276    -0.0116    -0.1347 C.2     
   3 N3             1.0929    -0.7859     0.1776 N.pl3   
   4 N4             0.6204    -2.1070     0.2348 N.2     
   5 C5            -0.6661    -2.0654    -0.0372 C.2     
   6 N6            -1.0234    -0.7949    -0.2549 N.2     
   7 C7            -1.5749    -3.2376    -0.0885 C.ar    
   8 C8            -2.9242    -3.0635    -0.3890 C.ar    
   9 C9            -3.7650    -4.1571    -0.4354 C.ar    
  10 C10           -3.2702    -5.4241    -0.1841 C.ar    
  11 C11           -1.9316    -5.6027     0.1148 C.ar    
  12 C12           -1.0808    -4.5167     0.1582 C.ar    
  13 C13            2.4674    -0.3349     0.4095 C.3     
  14 C14            2.6688    -0.0729     1.8798 C.2     
  15 N15            3.8652     0.3536     2.3306 N.am    
  16 O16            1.7543    -0.2458     2.6574 O.2     
  17 C17            3.9939     0.5880     3.7611 C.3     
  18 C18            4.9128    -0.4826     4.3737 C.3     
  19 C19            6.3396    -0.1300     3.9846 C.2     
  20 C20            6.8289    -0.1631     2.7458 C.2     
  21 C21            5.9976    -0.5379     1.5197 C.3     
  22 C22            4.9214     0.5355     1.3479 C.3     
  23 S23            7.6090     0.3849     5.0876 S.3     
  24 C24            8.7044     0.4911     3.7788 C.2     
  25 N25            8.1134     0.1699     2.6808 N.2     
  26 C26           10.1499     0.9012     3.8937 C.3     
  27 C27           -0.9788     2.0893    -1.0177 C.ar    
  28 C28           -0.9621     3.4598    -1.1730 C.ar    
  29 C29            0.0652     4.2094    -0.6228 C.ar    
  30 C30            1.0806     3.5870     0.0864 C.ar    
  31 C31            1.0700     2.2181     0.2523 C.ar    
  32 F32            0.0775     5.5513    -0.7785 F       
  33 C33            2.1951     4.4083     0.6817 C.3     
  34 H34           -3.3116    -2.0746    -0.5851 H       
  35 H35           -4.8111    -4.0233    -0.6679 H       
  36 H36           -3.9317    -6.2771    -0.2210 H       
  37 H37           -1.5505    -6.5941     0.3102 H       
  38 H38           -0.0357    -4.6572     0.3916 H       
  39 H39            3.1634    -1.1060     0.0792 H       
  40 H40            2.6484     0.5822    -0.1511 H       
  41 H41            4.4230     1.5755     3.9305 H       
  42 H42            3.0106     0.5337     4.2283 H       
  43 H43            4.8129    -0.4800     5.4591 H       
  44 H44            4.6526    -1.4647     3.9789 H       
  45 H45            6.6347    -0.5695     0.6359 H       
  46 H46            5.5279    -1.5094     1.6737 H       
  47 H47            4.4981     0.4660     0.3458 H       
  48 H48            5.3684     1.5205     1.4821 H       
  49 H49           10.7656     0.0182     4.0652 H       
  50 H50           10.4636     1.3891     2.9708 H       
  51 H51           10.2662     1.5929     4.7280 H       
  52 H52           -1.7796     1.5059    -1.4475 H       
  53 H53           -1.7510     3.9494    -1.7247 H       
  54 H54            1.8616     1.7341     0.8050 H       
  55 H55            1.9227     4.7119     1.6925 H       
  56 H56            3.1075     3.8129     0.7146 H       
  57 H57            2.3611     5.2941     0.0686 H       
@<TRIPOS>BOND
   1    1    2 1
   2    1   27 ar
   3    1   31 ar
   4    2    3 1
   5    2    6 2
   6    3    4 1
   7    3   13 1
   8    4    5 2
   9    5    6 1
  10    5    7 1
  11    7    8 ar
  12    7   12 ar
  13    8    9 ar
  14    8   34 1
  15    9   10 ar
  16    9   35 1
  17   10   11 ar
  18   10   36 1
  19   11   12 ar
  20   11   37 1
  21   12   38 1
  22   13   14 1
  23   13   39 1
  24   13   40 1
  25   14   15 am
  26   14   16 2
  27   15   17 1
  28   15   22 1
  29   17   18 1
  30   17   41 1
  31   17   42 1
  32   18   19 1
  33   18   43 1
  34   18   44 1
  35   19   20 2
  36   19   23 1
  37   20   21 1
  38   20   25 1
  39   21   22 1
  40   21   45 1
  41   21   46 1
  42   22   47 1
  43   22   48 1
  44   23   24 1
  45   24   25 2
  46   24   26 1
  47   26   49 1
  48   26   50 1
  49   26   51 1
  50   27   28 ar
  51   27   52 1
  52   28   29 ar
  53   28   53 1
  54   29   30 ar
  55   29   32 1
  56   30   31 ar
  57   30   33 1
  58   31   54 1
  59   33   55 1
  60   33   56 1
  61   33   57 1

#	End of record

