#	Name: ASD03180036
#	Creating user name:	WinNT
#	Creation time:	15. 06. 2019 20:33

#	Modifying user name:	WinNT
#	Modification time:	15. 06. 2019 20:33

#	Program:	/corina/corina34_cracker 3.40 0067  02.08.2006

@<TRIPOS>MOLECULE
ASD03180036
  53   55    0    0    0
SMALL
NO_CHARGES


@<TRIPOS>ATOM
   1 C1            -0.0167     1.3825     0.0096 C.ar    
   2 C2             0.0103     0.0136    -0.2100 C.ar    
   3 C3             1.2190    -0.6562    -0.2244 C.ar    
   4 C4             2.3955     0.0331    -0.0155 C.ar    
   5 C5             2.3788     1.4066     0.2110 C.ar    
   6 C6             1.1647     2.0794     0.2143 C.ar    
   7 C7             1.1360     3.5619     0.4261 C.3     
   8 O8             3.5598     2.0384     0.4358 O.3     
   9 C9             3.6048     3.4693     0.4273 C.3     
  10 C10            2.3920     3.9776     1.1986 C.3     
  11 C11           -0.0250     5.0780     1.9501 C.2     
  12 C12           -0.0750     4.0553     1.1468 C.2     
  13 C13            2.3697     5.4968     1.3399 C.3     
  14 C14            1.2107     5.8608     2.2752 C.3     
  15 C15           -1.3118     5.5091     2.6054 C.3     
  16 C16            4.8896     3.9517     1.1038 C.3     
  17 C17            3.5528     3.9810    -1.0137 C.3     
  18 C18            1.2518    -2.1430    -0.4682 C.3     
  19 C19            1.3765    -2.4110    -1.9694 C.3     
  20 C20            1.4098    -3.9205    -2.2169 C.3     
  21 C21            1.5344    -4.1885    -3.7181 C.3     
  22 C22            1.5677    -5.6980    -3.9656 C.3     
  23 O23           -1.2038     2.0440     0.0189 O.3     
  24 H24           -0.9107    -0.5277    -0.3691 H       
  25 H25            3.3365    -0.4968    -0.0275 H       
  26 H26            1.1617     4.0465    -0.5500 H       
  27 H27            2.3763     3.5221     2.1888 H       
  28 H28           -1.0178     3.5502     0.9972 H       
  29 H29            3.3114     5.8420     1.7667 H       
  30 H30            2.2151     5.9564     0.3637 H       
  31 H31            0.9944     6.9246     2.1770 H       
  32 H32            1.5042     5.6519     3.3040 H       
  33 H33           -2.1216     4.8558     2.2805 H       
  34 H34           -1.2068     5.4464     3.6885 H       
  35 H35           -1.5378     6.5368     2.3211 H       
  36 H36            5.7527     3.5608     0.5650 H       
  37 H37            4.9183     5.0412     1.0942 H       
  38 H38            4.9131     3.5966     2.1340 H       
  39 H39            2.6285     3.6468    -1.4848 H       
  40 H40            3.5874     5.0705    -1.0138 H       
  41 H41            4.4055     3.5904    -1.5690 H       
  42 H42            2.1063    -2.5775     0.0506 H       
  43 H43            0.3323    -2.5930    -0.0939 H       
  44 H44            0.5220    -1.9765    -2.4882 H       
  45 H45            2.2960    -1.9610    -2.3437 H       
  46 H46            2.2643    -4.3550    -1.6981 H       
  47 H47            0.4903    -4.3704    -1.8426 H       
  48 H48            0.6799    -3.7540    -4.2369 H       
  49 H49            2.4539    -3.7385    -4.0924 H       
  50 H50            1.6565    -5.8889    -5.0351 H       
  51 H51            2.4222    -6.1324    -3.4468 H       
  52 H52            0.6482    -6.1479    -3.5913 H       
  53 H53           -1.5141     2.3075    -0.8583 H       
@<TRIPOS>BOND
   1    1    2 ar
   2    1    6 ar
   3    1   23 1
   4    2    3 ar
   5    2   24 1
   6    3    4 ar
   7    3   18 1
   8    4    5 ar
   9    4   25 1
  10    5    6 ar
  11    5    8 1
  12    6    7 1
  13    7   10 1
  14    7   12 1
  15    7   26 1
  16    8    9 1
  17    9   10 1
  18    9   16 1
  19    9   17 1
  20   10   13 1
  21   10   27 1
  22   11   12 2
  23   11   14 1
  24   11   15 1
  25   12   28 1
  26   13   14 1
  27   13   29 1
  28   13   30 1
  29   14   31 1
  30   14   32 1
  31   15   33 1
  32   15   34 1
  33   15   35 1
  34   16   36 1
  35   16   37 1
  36   16   38 1
  37   17   39 1
  38   17   40 1
  39   17   41 1
  40   18   19 1
  41   18   42 1
  42   18   43 1
  43   19   20 1
  44   19   44 1
  45   19   45 1
  46   20   21 1
  47   20   46 1
  48   20   47 1
  49   21   22 1
  50   21   48 1
  51   21   49 1
  52   22   50 1
  53   22   51 1
  54   22   52 1
  55   23   53 1

#	End of record

