#	Name: ASD00100119
#	Creating user name:	WinNT
#	Creation time:	15. 06. 2019 18:30

#	Modifying user name:	WinNT
#	Modification time:	15. 06. 2019 18:30

#	Program:	/corina/corina34_cracker 3.40 0067  02.08.2006

@<TRIPOS>MOLECULE
ASD00100119
  35   37    0    0    0
SMALL
NO_CHARGES


@<TRIPOS>ATOM
   1 C1             2.2580     0.7550    -0.1777 C.2     
   2 N2             1.6412    -0.3997    -0.1054 N.2     
   3 C3             0.3177    -0.1858     0.0975 C.2     
   4 C4             0.1149     1.1530     0.1518 C.2     
   5 N5             1.3434     1.7498    -0.0224 N.pl3   
   6 N6             3.6171     0.9324    -0.3738 N.pl3   
   7 C7            -2.0354    -0.9471     0.3369 C.2     
   8 C8            -0.7254    -1.2335     0.2354 C.2     
   9 C9            -0.4273    -2.5940     0.2697 C.2     
  10 C10           -1.4821    -3.3960     0.3972 C.2     
  11 S11           -2.9546    -2.4391     0.4832 S.3     
  12 C12            1.6151     3.1893    -0.0377 C.3     
  13 C13            1.6020     3.6879    -1.4598 C.ar    
  14 C14            0.4018     4.0365    -2.0624 C.ar    
  15 C15            0.3932     4.4950    -3.3715 C.ar    
  16 C16            1.5791     4.6035    -4.0721 C.ar    
  17 C17            2.7736     4.2551    -3.4696 C.ar    
  18 C18            2.7855     3.8036    -2.1626 C.ar    
  19 O19           -0.7634     3.9284    -1.3714 O.3     
  20 C20           -1.9604     4.3050    -2.0550 C.3     
  21 H21           -0.8291     1.6554     0.3028 H       
  22 H22            4.2051     0.1623    -0.4193 H       
  23 H23            3.9812     1.8267    -0.4656 H       
  24 H24           -2.4577     0.0469     0.3338 H       
  25 H25            0.5827    -2.9695     0.1979 H       
  26 H26           -1.4397    -4.4742     0.4413 H       
  27 H27            0.8488     3.7098     0.5368 H       
  28 H28            2.5929     3.3792     0.4049 H       
  29 H29           -0.5398     4.7666    -3.8429 H       
  30 H30            1.5729     4.9605    -5.0914 H       
  31 H31            3.6994     4.3400    -4.0191 H       
  32 H32            3.7205     3.5366    -1.6925 H       
  33 H33           -2.8150     4.1710    -1.3919 H       
  34 H34           -1.8938     5.3507    -2.3551 H       
  35 H35           -2.0855     3.6804    -2.9396 H       
@<TRIPOS>BOND
   1    1    2 2
   2    1    5 1
   3    1    6 1
   4    2    3 1
   5    3    4 2
   6    3    8 1
   7    4    5 1
   8    4   21 1
   9    5   12 1
  10    6   22 1
  11    6   23 1
  12    7    8 2
  13    7   11 1
  14    7   24 1
  15    8    9 1
  16    9   10 2
  17    9   25 1
  18   10   11 1
  19   10   26 1
  20   12   13 1
  21   12   27 1
  22   12   28 1
  23   13   14 ar
  24   13   18 ar
  25   14   15 ar
  26   14   19 1
  27   15   16 ar
  28   15   29 1
  29   16   17 ar
  30   16   30 1
  31   17   18 ar
  32   17   31 1
  33   18   32 1
  34   19   20 1
  35   20   33 1
  36   20   34 1
  37   20   35 1

#	End of record

