#	Name: ASD01208930
#	Creating user name:	WinNT
#	Creation time:	15. 06. 2019 19:10

#	Modifying user name:	WinNT
#	Modification time:	15. 06. 2019 19:10

#	Program:	/corina/corina34_cracker 3.40 0067  02.08.2006

@<TRIPOS>MOLECULE
ASD01208930
  69   73    0    0    0
SMALL
NO_CHARGES


@<TRIPOS>ATOM
   1 C1            -0.2606     1.7871     0.5546 C.2     
   2 C2            -0.2297     0.3269     0.3265 C.ar    
   3 C3             0.9380    -0.2853    -0.1313 C.ar    
   4 C4             0.9629    -1.6536    -0.3432 C.ar    
   5 C5            -0.1710    -2.4159    -0.1015 C.ar    
   6 C6            -1.3340    -1.8115     0.3537 C.ar    
   7 C7            -1.3659    -0.4439     0.5738 C.ar    
   8 O8             0.7319     2.4564     0.3434 O.2     
   9 N9            -1.3909     2.3771     0.9914 N.am    
  10 O10           -2.4419    -2.5626     0.5884 O.3     
  11 C11           -3.4408    -2.5300    -0.3312 C.ar    
  12 C12           -4.6125    -3.2417    -0.1068 C.ar    
  13 C13           -5.6284    -3.2112    -1.0375 C.ar    
  14 C14           -5.4790    -2.4633    -2.2071 C.ar    
  15 C15           -4.3000    -1.7489    -2.4289 C.ar    
  16 C16           -3.2905    -1.7806    -1.4912 C.ar    
  17 O17           -6.5572    -1.7525    -4.3743 O.3     
  18 C18           -6.5656    -2.4283    -3.2078 C.2     
  19 N19           -7.7193    -3.0496    -3.1268 N.2     
  20 N20           -8.4150    -2.7910    -4.1777 N.2     
  21 C21           -7.7394    -2.0014    -4.9645 C.2     
  22 C22           -9.0277    -2.0790    -8.5682 C.3     
  23 C23           -8.4860    -2.6303    -7.2468 C.3     
  24 C24           -8.1999    -1.4646    -6.2952 C.3     
  25 C25           -9.4830    -0.6502    -6.1029 C.3     
  26 C26           -9.9862    -0.1754    -7.4685 C.3     
  27 O27          -10.2029    -1.3065    -8.3145 O.3     
  28 S28           -2.7807     4.6256     1.7565 S.3     
  29 C29           -1.4200     3.7491     1.2057 C.2     
  30 N30           -0.4192     4.5515     1.0177 N.2     
  31 C31           -0.6228     5.8305     1.2723 C.2     
  32 C32           -1.8541     6.1228     1.6955 C.2     
  33 C33           -2.3634     7.4942     2.0574 C.3     
  34 O34            2.0995    -2.2506    -0.7890 O.3     
  35 C35            3.1030    -3.9982    -2.1229 C.3     
  36 C36            2.0217    -3.6431    -1.1004 C.3     
  37 C37            2.2352    -4.4633     0.1734 C.3     
  38 O38            4.3927    -3.8136    -1.5358 O.3     
  39 C39            5.4794    -4.1196    -2.4120 C.3     
  40 H40            1.8209     0.3074    -0.3203 H       
  41 H41           -0.1483    -3.4826    -0.2685 H       
  42 H42           -2.2702     0.0252     0.9321 H       
  43 H43           -2.1841     1.8436     1.1562 H       
  44 H44           -4.7274    -3.8200     0.7981 H       
  45 H45           -6.5388    -3.7653    -0.8626 H       
  46 H46           -4.1808    -1.1693    -3.3323 H       
  47 H47           -2.3798    -1.2253    -1.6602 H       
  48 H48           -8.2720    -1.4480    -9.0360 H       
  49 H49           -9.2734    -2.9065    -9.2339 H       
  50 H50           -9.2256    -3.2936    -6.7983 H       
  51 H51           -7.5651    -3.1830    -7.4329 H       
  52 H52           -7.4233    -0.8289    -6.7205 H       
  53 H53          -10.2427    -1.2735    -5.6313 H       
  54 H54           -9.2751     0.2132    -5.4709 H       
  55 H55          -10.9223     0.3685    -7.3420 H       
  56 H56           -9.2430     0.4805    -7.9219 H       
  57 H57            0.1450     6.5798     1.1481 H       
  58 H58           -3.4059     7.4244     2.3680 H       
  59 H59           -1.7671     7.8992     2.8749 H       
  60 H60           -2.2857     8.1509     1.1909 H       
  61 H61            2.9878    -5.0386    -2.4271 H       
  62 H62            3.0049    -3.3517    -2.9949 H       
  63 H63            1.0399    -3.8679    -1.5170 H       
  64 H64            3.2171    -4.2384     0.5900 H       
  65 H65            1.4649    -4.2103     0.9019 H       
  66 H66            2.1759    -5.5254    -0.0641 H       
  67 H67            5.4134    -5.1624    -2.7222 H       
  68 H68            5.4305    -3.4756    -3.2901 H       
  69 H69            6.4230    -3.9541    -1.8921 H       
@<TRIPOS>BOND
   1    1    2 1
   2    1    8 2
   3    1    9 am
   4    2    3 ar
   5    2    7 ar
   6    3    4 ar
   7    3   40 1
   8    4    5 ar
   9    4   34 1
  10    5    6 ar
  11    5   41 1
  12    6    7 ar
  13    6   10 1
  14    7   42 1
  15    9   29 1
  16    9   43 1
  17   10   11 1
  18   11   12 ar
  19   11   16 ar
  20   12   13 ar
  21   12   44 1
  22   13   14 ar
  23   13   45 1
  24   14   15 ar
  25   14   18 1
  26   15   16 ar
  27   15   46 1
  28   16   47 1
  29   17   18 1
  30   17   21 1
  31   18   19 2
  32   19   20 1
  33   20   21 2
  34   21   24 1
  35   22   23 1
  36   22   27 1
  37   22   48 1
  38   22   49 1
  39   23   24 1
  40   23   50 1
  41   23   51 1
  42   24   25 1
  43   24   52 1
  44   25   26 1
  45   25   53 1
  46   25   54 1
  47   26   27 1
  48   26   55 1
  49   26   56 1
  50   28   29 1
  51   28   32 1
  52   29   30 2
  53   30   31 1
  54   31   32 2
  55   31   57 1
  56   32   33 1
  57   33   58 1
  58   33   59 1
  59   33   60 1
  60   34   36 1
  61   35   36 1
  62   35   38 1
  63   35   61 1
  64   35   62 1
  65   36   37 1
  66   36   63 1
  67   37   64 1
  68   37   65 1
  69   37   66 1
  70   38   39 1
  71   39   67 1
  72   39   68 1
  73   39   69 1

#	End of record

