#	Name: ASD03430174
#	Creating user name:	WinNT
#	Creation time:	15. 06. 2019 20:40

#	Modifying user name:	WinNT
#	Modification time:	15. 06. 2019 20:40

#	Program:	/corina/corina34_cracker 3.40 0067  02.08.2006

@<TRIPOS>MOLECULE
ASD03430174
  50   54    0    0    0
SMALL
NO_CHARGES


@<TRIPOS>ATOM
   1 C1            -0.0166     1.3731     0.0096 C.ar    
   2 C2             0.0021    -0.0041     0.0020 C.ar    
   3 C3             1.2042    -0.6801    -0.0037 C.ar    
   4 C4             2.4064     0.0226     0.0069 C.ar    
   5 C5             2.3789     1.4121     0.0039 C.ar    
   6 C6             1.1699     2.0972     0.0022 C.ar    
   7 O7             3.4725    -0.8269     0.0325 O.3     
   8 C8             1.5601    -2.1417    -0.0330 C.3     
   9 C9             3.0504    -2.1336    -0.4017 C.3     
  10 C10            0.4369    -3.8650     1.0109 C.ar    
  11 C11            1.3140    -2.8180     1.2832 C.ar    
  12 C12            0.7430    -2.9080    -1.0329 C.2     
  13 N13            0.1236    -3.8915    -0.3499 N.am    
  14 O14            0.6571    -2.6857    -2.2222 O.2     
  15 C15            1.7632    -2.5964     2.5654 C.ar    
  16 C16            1.3449    -3.4168     3.5984 C.ar    
  17 C17            0.4739    -4.4591     3.3397 C.ar    
  18 C18            0.0205    -4.6852     2.0566 C.ar    
  19 C19           -0.7732    -4.8739    -0.9637 C.3     
  20 C20           -1.1514     2.3780     0.0353 C.3     
  21 C21           -0.4169     3.6802     0.4334 C.3     
  22 O22            0.9269     3.4375    -0.0164 O.3     
  23 C23           -2.1860    -4.3503    -0.9365 C.2     
  24 N24           -3.1888    -5.0897    -1.4505 N.am    
  25 O25           -2.4207    -3.2635    -0.4521 O.2     
  26 C26           -4.5622    -4.5807    -1.4241 C.3     
  27 C27           -6.9332    -5.0751    -2.0375 C.3     
  28 C28           -5.4988    -5.6067    -2.0651 C.3     
  29 H29           -0.9264    -0.5557     0.0009 H       
  30 H30            3.3066     1.9651     0.0036 H       
  31 H31            3.1836    -2.2456    -1.4777 H       
  32 H32            3.5871    -2.9132     0.1390 H       
  33 H33            2.4432    -1.7815     2.7654 H       
  34 H34            1.6983    -3.2437     4.6042 H       
  35 H35            0.1473    -5.0993     4.1458 H       
  36 H36           -0.6595    -5.5014     1.8622 H       
  37 H37           -0.4699    -5.0476    -1.9962 H       
  38 H38           -0.7219    -5.8100    -0.4076 H       
  39 H39           -1.6088     2.4743    -0.9494 H       
  40 H40           -1.8955     2.1061     0.7839 H       
  41 H41           -0.8473     4.5392    -0.0813 H       
  42 H42           -0.4426     3.8232     1.5137 H       
  43 H43           -3.0011    -5.9590    -1.8379 H       
  44 H44           -4.8656    -4.4071    -0.3916 H       
  45 H45           -4.6136    -3.6446    -1.9801 H       
  46 H46           -7.2366    -4.9015    -1.0050 H       
  47 H47           -6.9846    -4.1390    -2.5936 H       
  48 H48           -7.6005    -5.8061    -2.4941 H       
  49 H49           -5.1955    -5.7804    -3.0975 H       
  50 H50           -5.4475    -6.5428    -1.5090 H       
@<TRIPOS>BOND
   1    1    2 ar
   2    1    6 ar
   3    1   20 1
   4    2    3 ar
   5    2   29 1
   6    3    4 ar
   7    3    8 1
   8    4    5 ar
   9    4    7 1
  10    5    6 ar
  11    5   30 1
  12    6   22 1
  13    7    9 1
  14    8    9 1
  15    8   11 1
  16    8   12 1
  17    9   31 1
  18    9   32 1
  19   10   11 ar
  20   10   13 1
  21   10   18 ar
  22   11   15 ar
  23   12   13 am
  24   12   14 2
  25   13   19 1
  26   15   16 ar
  27   15   33 1
  28   16   17 ar
  29   16   34 1
  30   17   18 ar
  31   17   35 1
  32   18   36 1
  33   19   23 1
  34   19   37 1
  35   19   38 1
  36   20   21 1
  37   20   39 1
  38   20   40 1
  39   21   22 1
  40   21   41 1
  41   21   42 1
  42   23   24 am
  43   23   25 2
  44   24   26 1
  45   24   43 1
  46   26   28 1
  47   26   44 1
  48   26   45 1
  49   27   28 1
  50   27   46 1
  51   27   47 1
  52   27   48 1
  53   28   49 1
  54   28   50 1

#	End of record

