#	Name: ASD03430638
#	Creating user name:	WinNT
#	Creation time:	15. 06. 2019 20:41

#	Modifying user name:	WinNT
#	Modification time:	15. 06. 2019 20:41

#	Program:	/corina/corina34_cracker 3.40 0067  02.08.2006

@<TRIPOS>MOLECULE
ASD03430638
  20   19    0    0    0
SMALL
NO_CHARGES


@<TRIPOS>ATOM
   1 C1            -0.0173     1.4248     0.0099 C.3     
   2 O2             0.0021    -0.0041     0.0020 O.3     
   3 C3             1.3965     1.9464    -0.0008 C.ar    
   4 C4             2.0259     2.1893    -1.2073 C.ar    
   5 C5             3.3264     2.6695    -1.2060 C.ar    
   6 C6             3.9480     2.8884     0.0141 C.ar    
   7 C7             3.2554     2.6226     1.1799 C.ar    
   8 N8             2.0169     2.1709     1.1408 N.ar    
   9 C9             1.3077     1.9349    -2.5074 C.3     
  10 F10            2.2369     1.5836    -3.4925 F       
  11 F11            0.3913     0.8916    -2.3376 F       
  12 H12           -0.5445     1.7859    -0.8732 H       
  13 H13           -0.5275     1.7763     0.9067 H       
  14 H14           -0.8759    -0.4094     0.0082 H       
  15 H15            3.8433     2.8681    -2.1333 H       
  16 H16            4.9607     3.2617     0.0527 H       
  17 H17            3.7324     2.7904     2.1342 H       
  18 H18            0.7783     2.8374    -2.8127 H       
  19 Cl19           9.9607     8.2617     7.1342 Cl      
  20 H20            9.9607     9.6317     7.1342 H       
@<TRIPOS>BOND
   1    1    2 1
   2    1    3 1
   3    1   12 1
   4    1   13 1
   5    2   14 1
   6    3    4 ar
   7    3    8 ar
   8    4    5 ar
   9    4    9 1
  10    5    6 ar
  11    5   15 1
  12    6    7 ar
  13    6   16 1
  14    7    8 ar
  15    7   17 1
  16    9   10 1
  17    9   11 1
  18    9   18 1
  19   19   20 1

#	End of record

