#	Name: ASD01000071
#	Creating user name:	WinNT
#	Creation time:	15. 06. 2019 18:54

#	Modifying user name:	WinNT
#	Modification time:	15. 06. 2019 18:54

#	Program:	/corina/corina34_cracker 3.40 0067  02.08.2006

@<TRIPOS>MOLECULE
ASD01000071
  47   49    0    0    0
SMALL
NO_CHARGES


@<TRIPOS>ATOM
   1 N1            -0.0019     1.4579     0.0023 N.3     
   2 C2             0.0141    -0.0110    -0.0016 C.3     
   3 C3            -0.7080     0.7085     7.8111 C.ar    
   4 C4             2.4767     1.3553     4.0863 C.ar    
   5 C5             0.2374    -2.8344     3.1844 C.ar    
   6 C6            -1.5544     0.4137     6.7571 C.ar    
   7 C7             0.6608     0.5814     7.6548 C.ar    
   8 C8             2.2762     0.0024     3.8855 C.ar    
   9 C9             3.7350     1.9008     3.9130 C.ar    
  10 C10            1.0035    -2.0960     4.0669 C.ar    
  11 C11            0.3285    -4.2137     3.1766 C.ar    
  12 C12           -1.0321    -0.0071     5.5486 C.ar    
  13 C13            1.1819     0.1605     6.4458 C.ar    
  14 C14            3.3340    -0.8050     3.5114 C.ar    
  15 C15            4.7925     1.0936     3.5375 C.ar    
  16 C16            1.8608    -2.7370     4.9416 C.ar    
  17 C17            1.1847    -4.8548     4.0523 C.ar    
  18 C18            0.3357    -0.1334     5.3929 C.ar    
  19 C19            4.5922    -0.2595     3.3376 C.ar    
  20 C20            1.9516    -4.1164     4.9341 C.ar    
  21 C21            0.9045    -0.5923     4.0750 C.3     
  22 C22            0.7208    -0.5023    -1.2386 C.2     
  23 O23            1.4670     0.2331    -1.8404 O.2     
  24 C24            0.7501    -0.5163     1.2409 C.3     
  25 S25           -0.1810    -0.0505     2.7264 S.3     
  26 Cl26          -1.3629     1.2439     9.3271 Cl      
  27 O27            0.5213    -1.7570    -1.6719 O.3     
  28 H28            0.9360     1.8298    -0.0037 H       
  29 H29           -0.5377     1.8158    -0.7742 H       
  30 H30           -1.0095    -0.3855     0.0050 H       
  31 H31            1.6493     1.9870     4.3742 H       
  32 H32           -0.4357    -2.3339     2.5041 H       
  33 H33           -2.6230     0.5124     6.8786 H       
  34 H34            1.3220     0.8118     8.4771 H       
  35 H35            3.8915     2.9579     4.0695 H       
  36 H36           -0.2703    -4.7906     2.4874 H       
  37 H37           -1.6927    -0.2376     4.7259 H       
  38 H38            2.2504     0.0617     6.3236 H       
  39 H39            3.1775    -1.8622     3.3553 H       
  40 H40            5.7754     1.5199     3.4014 H       
  41 H41            2.4599    -2.1601     5.6305 H       
  42 H42            1.2554    -5.9324     4.0467 H       
  43 H43            5.4188    -0.8905     3.0460 H       
  44 H44            2.6219    -4.6171     5.6170 H       
  45 H45            0.8398    -1.6016     1.1938 H       
  46 H46            1.7441    -0.0709     1.2806 H       
  47 H47            0.9966    -2.0268    -2.4696 H       
@<TRIPOS>BOND
   1    1    2 1
   2    1   28 1
   3    1   29 1
   4    2   22 1
   5    2   24 1
   6    2   30 1
   7    3    6 ar
   8    3    7 ar
   9    3   26 1
  10    4    8 ar
  11    4    9 ar
  12    4   31 1
  13    5   10 ar
  14    5   11 ar
  15    5   32 1
  16    6   12 ar
  17    6   33 1
  18    7   13 ar
  19    7   34 1
  20    8   14 ar
  21    8   21 1
  22    9   15 ar
  23    9   35 1
  24   10   16 ar
  25   10   21 1
  26   11   17 ar
  27   11   36 1
  28   12   18 ar
  29   12   37 1
  30   13   18 ar
  31   13   38 1
  32   14   19 ar
  33   14   39 1
  34   15   19 ar
  35   15   40 1
  36   16   20 ar
  37   16   41 1
  38   17   20 ar
  39   17   42 1
  40   18   21 1
  41   19   43 1
  42   20   44 1
  43   21   25 1
  44   22   23 2
  45   22   27 1
  46   24   25 1
  47   24   45 1
  48   24   46 1
  49   27   47 1

#	End of record

