#	Name: ASD01815858
#	Creating user name:	WinNT
#	Creation time:	15. 06. 2019 19:34

#	Modifying user name:	WinNT
#	Modification time:	15. 06. 2019 19:34

#	Program:	/corina/corina34_cracker 3.40 0067  02.08.2006

@<TRIPOS>MOLECULE
ASD01815858
  51   56    0    0    0
SMALL
NO_CHARGES


@<TRIPOS>ATOM
   1 C1            -0.0168     1.3847     0.0097 C.ar    
   2 C2             0.0021    -0.0041     0.0020 C.ar    
   3 C3            -1.1855    -0.7093     0.0095 C.ar    
   4 C4            -2.3921    -0.0343     0.0242 C.ar    
   5 C5            -2.4145     1.3486     0.0313 C.ar    
   6 C6            -1.2309     2.0597     0.0307 C.ar    
   7 N7             1.1845     2.1023     0.0020 N.am    
   8 C8             2.1648     1.9590    -0.9142 C.2     
   9 N9             1.5417     3.0771     0.9396 N.2     
  10 C10            2.7232     3.5584     0.6536 C.2     
  11 C11            3.1954     2.8626    -0.5627 C.2     
  12 O12            2.1631     1.1944    -1.8657 O.2     
  13 C13            3.6053     4.5735     1.2489 C.2     
  14 C14            4.8240     4.8292     0.6561 C.2     
  15 N15            5.1939     4.1219    -0.4926 N.pl3   
  16 C16            4.4278     3.1934    -1.0722 C.2     
  17 C17            6.4950     4.4189    -1.0969 C.3     
  18 C18            7.5452     3.5215    -0.4944 C.ar    
  19 C19            7.8168     2.2940    -1.0703 C.ar    
  20 C20            8.7784     1.4692    -0.5202 C.ar    
  21 C21            9.4729     1.8738     0.6119 C.ar    
  22 C22            9.1983     3.1070     1.1875 C.ar    
  23 C23            8.2392     3.9297     0.6298 C.ar    
  24 N24           10.4491     1.0386     1.1728 N.pl3   
  25 C25           11.1945     1.3097     2.2681 C.2     
  26 C26           12.0146     0.2543     2.4795 C.2     
  27 C27           11.7630    -0.6935     1.4814 C.2     
  28 N28           10.8210    -0.2271     0.7016 N.2     
  29 S29            3.4028     5.5978     2.6643 S.3     
  30 C30            4.9746     6.3358     2.4036 C.2     
  31 C31            5.5536     5.8150     1.3291 C.2     
  32 C32           -1.2561     3.5665     0.0389 C.3     
  33 H33            0.9442    -0.5319    -0.0101 H       
  34 H34           -1.1715    -1.7892     0.0036 H       
  35 H35           -3.3193    -0.5882     0.0296 H       
  36 H36           -3.3587     1.8728     0.0424 H       
  37 H37            4.7857     2.6907    -1.9586 H       
  38 H38            6.4439     4.2473    -2.1721 H       
  39 H39            6.7547     5.4603    -0.9070 H       
  40 H40            7.2763     1.9798    -1.9509 H       
  41 H41            8.9896     0.5103    -0.9699 H       
  42 H42            9.7366     3.4243     2.0684 H       
  43 H43            8.0251     4.8891     1.0771 H       
  44 H44           11.1447     2.2075     2.8662 H       
  45 H45           12.7359     0.1601     3.2778 H       
  46 H46           12.2577    -1.6477     1.3754 H       
  47 H47            5.4078     7.1032     3.0279 H       
  48 H48            6.5299     6.1330     0.9944 H       
  49 H49           -1.2583     3.9242     1.0686 H       
  50 H50           -0.3743     3.9475    -0.4762 H       
  51 H51           -2.1540     3.9176    -0.4695 H       
@<TRIPOS>BOND
   1    1    2 ar
   2    1    7 1
   3    1    6 ar
   4    2    3 ar
   5    2   33 1
   6    3    4 ar
   7    3   34 1
   8    4    5 ar
   9    4   35 1
  10    5    6 ar
  11    5   36 1
  12    6   32 1
  13    7    8 am
  14    7    9 1
  15    8   12 2
  16    8   11 1
  17    9   10 2
  18   10   11 1
  19   10   13 1
  20   11   16 2
  21   13   14 2
  22   13   29 1
  23   14   15 1
  24   14   31 1
  25   15   16 1
  26   15   17 1
  27   16   37 1
  28   17   18 1
  29   17   38 1
  30   17   39 1
  31   18   19 ar
  32   18   23 ar
  33   19   20 ar
  34   19   40 1
  35   20   21 ar
  36   20   41 1
  37   21   22 ar
  38   21   24 1
  39   22   23 ar
  40   22   42 1
  41   23   43 1
  42   24   25 1
  43   24   28 1
  44   25   26 2
  45   25   44 1
  46   26   27 1
  47   26   45 1
  48   27   28 2
  49   27   46 1
  50   29   30 1
  51   30   31 2
  52   30   47 1
  53   31   48 1
  54   32   49 1
  55   32   50 1
  56   32   51 1

#	End of record

