#	Name: ASD01140191
#	Creating user name:	WinNT
#	Creation time:	15. 06. 2019 19:00

#	Modifying user name:	WinNT
#	Modification time:	15. 06. 2019 19:00

#	Program:	/corina/corina34_cracker 3.40 0067  02.08.2006

@<TRIPOS>MOLECULE
ASD01140191
  30   31    0    0    0
SMALL
NO_CHARGES


@<TRIPOS>ATOM
   1 C1            -0.0167     1.3776     0.0096 C.ar    
   2 C2             0.0021    -0.0041     0.0020 C.ar    
   3 C3             1.2062    -0.6860    -0.0127 C.ar    
   4 C4             2.3984     0.0089    -0.0200 C.ar    
   5 C5             2.3911     1.4019    -0.0129 C.ar    
   6 C6             1.1732     2.0881     0.0021 C.ar    
   7 C7             3.6697     2.1537    -0.0201 C.ar    
   8 C8             3.8719     3.1808    -0.9401 C.ar    
   9 C9             5.0634     3.8773    -0.9420 C.ar    
  10 C10            6.0558     3.5576    -0.0330 C.ar    
  11 C11            5.8606     2.5392     0.8824 C.ar    
  12 C12            4.6710     1.8395     0.8969 C.ar    
  13 C13            1.2155    -2.1930    -0.0204 C.3     
  14 C14            1.2052    -2.6881    -1.4437 C.2     
  15 C15            2.1359    -3.5121    -1.8573 C.2     
  16 O16            1.1561     3.4464     0.0086 O.3     
  17 H17           -0.9595     1.9043     0.0169 H       
  18 H18           -0.9272    -0.5543     0.0080 H       
  19 H19            3.3362    -0.5266    -0.0308 H       
  20 H20            3.0979     3.4310    -1.6505 H       
  21 H21            5.2214     4.6732    -1.6547 H       
  22 H22            6.9868     4.1050    -0.0383 H       
  23 H23            6.6388     2.2938     1.5899 H       
  24 H24            4.5195     1.0447     1.6122 H       
  25 H25            2.1125    -2.5533     0.4832 H       
  26 H26            0.3326    -2.5644     0.4999 H       
  27 H27            0.4307    -2.3637    -2.1228 H       
  28 H28            2.9105    -3.8366    -1.1782 H       
  29 H29            2.1285    -3.8670    -2.8773 H       
  30 H30            1.1426     3.8438    -0.8728 H       
@<TRIPOS>BOND
   1    1    2 ar
   2    1    6 ar
   3    1   17 1
   4    2    3 ar
   5    2   18 1
   6    3    4 ar
   7    3   13 1
   8    4    5 ar
   9    4   19 1
  10    5    6 ar
  11    5    7 1
  12    6   16 1
  13    7    8 ar
  14    7   12 ar
  15    8    9 ar
  16    8   20 1
  17    9   10 ar
  18    9   21 1
  19   10   11 ar
  20   10   22 1
  21   11   12 ar
  22   11   23 1
  23   12   24 1
  24   13   14 1
  25   13   25 1
  26   13   26 1
  27   14   15 2
  28   14   27 1
  29   15   28 1
  30   15   29 1
  31   16   30 1

#	End of record

