#	Name: ASD01208665
#	Creating user name:	WinNT
#	Creation time:	15. 06. 2019 19:10

#	Modifying user name:	WinNT
#	Modification time:	15. 06. 2019 19:10

#	Program:	/corina/corina34_cracker 3.40 0067  02.08.2006

@<TRIPOS>MOLECULE
ASD01208665
  78   82    0    0    0
SMALL
NO_CHARGES


@<TRIPOS>ATOM
   1 N1            -0.8041     1.3997    -0.9341 N.pl3   
   2 C2            -0.9717     0.0568    -1.1903 C.2     
   3 C3             0.2721    -0.5433    -1.1494 C.2     
   4 C4             1.2057     0.4505    -0.8643 C.2     
   5 C5             0.5233     1.6413    -0.7350 C.2     
   6 C6            -2.2438    -0.6163    -1.4584 C.2     
   7 O7            -2.2653    -1.8136    -1.6718 O.2     
   8 O8            -3.3924     0.0915    -1.4687 O.3     
   9 C9             1.1273     2.9560    -0.4327 C.ar    
  10 C10            2.5065     3.0672    -0.2505 C.ar    
  11 C11            3.0685     4.3008     0.0326 C.ar    
  12 C12            2.2622     5.4255     0.1357 C.ar    
  13 C13            0.8906     5.3195    -0.0443 C.ar    
  14 C14            0.3210     4.0903    -0.3344 C.ar    
  15 O15            0.1054     6.4238     0.0586 O.3     
  16 C16           -0.7542     6.4980     1.1031 C.ar    
  17 C17           -1.5087     7.6556     1.3051 C.ar    
  18 N18           -0.8827     5.4692     1.9299 N.ar    
  19 N19           -2.3436     7.7289     2.3187 N.ar    
  20 C20           -2.4700     6.6981     3.1531 C.ar    
  21 C21           -1.7208     5.5406     2.9480 C.ar    
  22 C22           -3.4083     6.7799     4.2935 C.2     
  23 O23           -3.3002     6.0079     5.2261 O.2     
  24 N24           -4.3833     7.7104     4.2985 N.am    
  25 C25           -5.2534     7.8858     5.4712 C.3     
  26 C26           -5.2613     9.3695     5.8541 C.3     
  27 N27           -5.6307    10.1727     4.6809 N.3     
  28 C28           -4.6387    10.0340     3.6064 C.3     
  29 C29           -4.6014     8.5816     3.1337 C.3     
  30 C30           -5.8173    11.5833     5.0462 C.3     
  31 O31            4.4114     4.4100     0.2102 O.3     
  32 C32            4.9375     5.7268     0.3868 C.3     
  33 C33            6.4059     5.7511    -0.0423 C.3     
  34 C34            4.8299     6.1258     1.8599 C.3     
  35 O35            7.1712     4.9181     0.8309 O.3     
  36 C36            8.5642     4.8704     0.5158 C.3     
  37 C37           -4.5965    -0.6297    -1.7372 C.3     
  38 C38           -5.7673     0.3187    -1.7078 C.ar    
  39 C39           -6.1666     0.9599    -2.8654 C.ar    
  40 C40           -7.2405     1.8299    -2.8384 C.ar    
  41 C41           -7.9154     2.0582    -1.6538 C.ar    
  42 C42           -7.5166     1.4162    -0.4963 C.ar    
  43 C43           -6.4454     0.5430    -0.5243 C.ar    
  44 H44           -1.5111     2.0631    -0.9043 H       
  45 H45            0.4819    -1.5907    -1.3086 H       
  46 H46            2.2721     0.3128    -0.7625 H       
  47 H47            3.1347     2.1922    -0.3298 H       
  48 H48            2.7037     6.3860     0.3570 H       
  49 H49           -0.7461     4.0095    -0.4795 H       
  50 H50           -1.4063     8.4914     0.6287 H       
  51 H51           -1.8256     4.7027     3.6214 H       
  52 H52           -6.2662     7.5653     5.2269 H       
  53 H53           -4.8701     7.2950     6.3032 H       
  54 H54           -5.9857     9.5356     6.6514 H       
  55 H55           -4.2688     9.6619     6.1972 H       
  56 H56           -4.9116    10.6820     2.7735 H       
  57 H57           -3.6549    10.3171     3.9808 H       
  58 H58           -3.7872     8.4507     2.4210 H       
  59 H59           -5.5503     8.3293     2.6604 H       
  60 H60           -4.8895    11.9770     5.4612 H       
  61 H61           -6.0902    12.1552     4.1594 H       
  62 H62           -6.6108    11.6643     5.7891 H       
  63 H63            4.3693     6.4298    -0.2224 H       
  64 H64            6.4920     5.3821    -1.0643 H       
  65 H65            6.7823     6.7729     0.0080 H       
  66 H66            5.2312     7.1302     1.9946 H       
  67 H67            3.7838     6.1084     2.1656 H       
  68 H68            5.3981     5.4228     2.4691 H       
  69 H69            9.0747     4.2178     1.2240 H       
  70 H70            8.6950     4.4831    -0.4946 H       
  71 H71            8.9853     5.8738     0.5777 H       
  72 H72           -4.5299    -1.0944    -2.7210 H       
  73 H73           -4.7346    -1.4011    -0.9797 H       
  74 H74           -5.6394     0.7815    -3.7909 H       
  75 H75           -7.5521     2.3314    -3.7427 H       
  76 H76           -8.7540     2.7384    -1.6325 H       
  77 H77           -8.0437     1.5949     0.4293 H       
  78 H78           -6.1362     0.0386     0.3793 H       
@<TRIPOS>BOND
   1    1    2 1
   2    1    5 1
   3    1   44 1
   4    2    3 2
   5    2    6 1
   6    3    4 1
   7    3   45 1
   8    4    5 2
   9    4   46 1
  10    5    9 1
  11    6    7 2
  12    6    8 1
  13    8   37 1
  14    9   10 ar
  15    9   14 ar
  16   10   11 ar
  17   10   47 1
  18   11   12 ar
  19   11   31 1
  20   12   13 ar
  21   12   48 1
  22   13   14 ar
  23   13   15 1
  24   14   49 1
  25   15   16 1
  26   16   17 ar
  27   16   18 ar
  28   17   19 ar
  29   17   50 1
  30   18   21 ar
  31   19   20 ar
  32   20   21 ar
  33   20   22 1
  34   21   51 1
  35   22   23 2
  36   22   24 am
  37   24   25 1
  38   24   29 1
  39   25   26 1
  40   25   52 1
  41   25   53 1
  42   26   27 1
  43   26   54 1
  44   26   55 1
  45   27   28 1
  46   27   30 1
  47   28   29 1
  48   28   56 1
  49   28   57 1
  50   29   58 1
  51   29   59 1
  52   30   60 1
  53   30   61 1
  54   30   62 1
  55   31   32 1
  56   32   33 1
  57   32   34 1
  58   32   63 1
  59   33   35 1
  60   33   64 1
  61   33   65 1
  62   34   66 1
  63   34   67 1
  64   34   68 1
  65   35   36 1
  66   36   69 1
  67   36   70 1
  68   36   71 1
  69   37   38 1
  70   37   72 1
  71   37   73 1
  72   38   39 ar
  73   38   43 ar
  74   39   40 ar
  75   39   74 1
  76   40   41 ar
  77   40   75 1
  78   41   42 ar
  79   41   76 1
  80   42   43 ar
  81   42   77 1
  82   43   78 1

#	End of record

