#	Name: ASD04230120
#	Creating user name:	WinNT
#	Creation time:	15. 06. 2019 20:48

#	Modifying user name:	WinNT
#	Modification time:	15. 06. 2019 20:48

#	Program:	/corina/corina34_cracker 3.40 0067  02.08.2006

@<TRIPOS>MOLECULE
ASD04230120
  49   52    0    0    0
SMALL
NO_CHARGES


@<TRIPOS>ATOM
   1 C1             1.5364     4.6921     1.7074 C.ar    
   2 C2             2.5441     5.3922     2.3551 C.ar    
   3 C3             3.8004     4.8672     2.4568 C.ar    
   4 C4             4.0825     3.6139     1.8942 C.ar    
   5 C5             3.0567     2.8854     1.2652 C.ar    
   6 C6             1.7837     3.4432     1.1654 C.ar    
   7 C7             5.3932     3.0735     1.9590 C.2     
   8 C8             5.6629     1.9311     1.2173 C.2     
   9 C9             4.5677     1.3874     0.3935 C.2     
  10 O10            3.2982     1.6438     0.7805 O.3     
  11 C11            6.9878     1.2895     1.2517 C.2     
  12 N12            7.2190     0.1812     0.5205 N.am    
  13 O13            7.8735     1.7598     1.9400 O.2     
  14 C14            8.5061    -0.3630     0.4635 C.ar    
  15 C15            8.6757    -1.7400     0.3866 C.ar    
  16 C16            9.9462    -2.2815     0.3307 C.ar    
  17 C17           11.0536    -1.4576     0.3508 C.ar    
  18 C18           10.8930    -0.0749     0.4274 C.ar    
  19 C19            9.6136     0.4719     0.4780 C.ar    
  20 C20           12.0822     0.8120     0.4492 C.ar    
  21 O21            4.7993     0.7290    -0.6033 O.2     
  22 O22            0.7877     2.7623     0.5384 O.3     
  23 C23           11.9308     2.1932     0.5255 C.ar    
  24 N24           12.9842     2.9854     0.5456 N.ar    
  25 C25           14.2177     2.5060     0.4946 C.ar    
  26 C26           14.4483     1.1350     0.4168 C.ar    
  27 C27           13.3720     0.2705     0.3992 C.ar    
  28 N28           15.2954     3.3822     0.5187 N.pl3   
  29 C29           16.6637     2.8622     0.4599 C.3     
  30 C30           15.0636     4.8263     0.6029 C.3     
  31 H31            0.5495     5.1236     1.6295 H       
  32 H32            2.3329     6.3613     2.7824 H       
  33 H33            4.5761     5.4166     2.9695 H       
  34 H34            6.1571     3.5366     2.5660 H       
  35 H35            6.4928    -0.2390     0.0338 H       
  36 H36            7.8125    -2.3889     0.3709 H       
  37 H37           10.0728    -3.3524     0.2713 H       
  38 H38           12.0447    -1.8844     0.3077 H       
  39 H39            9.4841     1.5425     0.5371 H       
  40 H40            0.2745     2.1886     1.1237 H       
  41 H41           10.9399     2.6206     0.5683 H       
  42 H42           15.4573     0.7522     0.3749 H       
  43 H43           13.5215    -0.7975     0.3397 H       
  44 H44           16.6361     1.7830     0.3091 H       
  45 H45           17.1954     3.3312    -0.3681 H       
  46 H46           17.1778     3.0854     1.3948 H       
  47 H47           15.0288     5.1283     1.6496 H       
  48 H48           15.8732     5.3543     0.0991 H       
  49 H49           14.1162     5.0708     0.1225 H       
@<TRIPOS>BOND
   1    1    2 ar
   2    1    6 ar
   3    1   31 1
   4    2    3 ar
   5    2   32 1
   6    3    4 ar
   7    3   33 1
   8    4    5 ar
   9    4    7 1
  10    5    6 ar
  11    5   10 1
  12    6   22 1
  13    7    8 2
  14    7   34 1
  15    8    9 1
  16    8   11 1
  17    9   10 1
  18    9   21 2
  19   11   12 am
  20   11   13 2
  21   12   14 1
  22   12   35 1
  23   14   15 ar
  24   14   19 ar
  25   15   16 ar
  26   15   36 1
  27   16   17 ar
  28   16   37 1
  29   17   18 ar
  30   17   38 1
  31   18   19 ar
  32   18   20 1
  33   19   39 1
  34   20   23 ar
  35   20   27 ar
  36   22   40 1
  37   23   24 ar
  38   23   41 1
  39   24   25 ar
  40   25   26 ar
  41   25   28 1
  42   26   27 ar
  43   26   42 1
  44   27   43 1
  45   28   29 1
  46   28   30 1
  47   29   44 1
  48   29   45 1
  49   29   46 1
  50   30   47 1
  51   30   48 1
  52   30   49 1

#	End of record

