#	Name: ASD01885890
#	Creating user name:	WinNT
#	Creation time:	15. 06. 2019 19:50

#	Modifying user name:	WinNT
#	Modification time:	15. 06. 2019 19:50

#	Program:	/corina/corina34_cracker 3.40 0067  02.08.2006

@<TRIPOS>MOLECULE
ASD01885890
  45   48    0    0    0
SMALL
NO_CHARGES


@<TRIPOS>ATOM
   1 C1            -0.0170     1.4037     0.0098 C.ar    
   2 C2             1.2138     2.1080     0.0018 C.ar    
   3 C3             1.1960     3.5258     0.0097 C.ar    
   4 C4            -0.0387     4.1599     0.0249 C.ar    
   5 C5            -1.2083     3.3914     0.0319 C.ar    
   6 N6            -1.1703     2.0724     0.0299 N.ar    
   7 C7             0.0021    -0.0041     0.0020 C.ar    
   8 C8             1.1925    -0.6629    -0.0129 C.ar    
   9 C9             2.3992     0.0335    -0.0208 C.ar    
  10 C10            2.4200     1.3962    -0.0132 C.ar    
  11 C11            1.2059    -2.1698    -0.0206 C.3     
  12 C12           -2.5233     4.0766     0.0481 C.2     
  13 N13           -3.6602     3.3529     0.0551 N.am    
  14 O14           -2.5757     5.2905     0.0552 O.2     
  15 C15            2.4549     4.3053     0.0024 C.ar    
  16 C16            1.1964    -2.6725    -1.4657 C.3     
  17 C17            1.2098    -4.1795    -1.4734 C.ar    
  18 C18            2.6330     5.3384    -0.9182 C.ar    
  19 C19            3.8073     6.0616    -0.9210 C.ar    
  20 C20            4.8098     5.7632    -0.0116 C.ar    
  21 C21            4.6376     4.7379     0.9049 C.ar    
  22 C22            3.4645     4.0130     0.9198 C.ar    
  23 C23            0.0257    -4.8998    -1.4654 C.ar    
  24 N24            0.0767    -6.2221    -1.4725 N.ar    
  25 C25            1.2336    -6.8532    -1.4869 C.ar    
  26 N26            2.3792    -6.2015    -1.4949 N.ar    
  27 C27            2.4065    -4.8784    -1.4943 C.ar    
  28 F28            5.9587     6.4739    -0.0189 F       
  29 H29           -0.0964     5.2383     0.0317 H       
  30 H30           -0.9245    -0.5588     0.0083 H       
  31 H31            3.3303    -0.5137    -0.0327 H       
  32 H32            3.3619     1.9245    -0.0190 H       
  33 H33            2.1041    -2.5277     0.4826 H       
  34 H34            0.3243    -2.5437     0.5000 H       
  35 H35           -3.6183     2.3838     0.0494 H       
  36 H36           -4.5204     3.8011     0.0657 H       
  37 H37            0.2982    -2.3146    -1.9689 H       
  38 H38            2.0780    -2.2987    -1.9863 H       
  39 H39            1.8527     5.5712    -1.6277 H       
  40 H40            3.9461     6.8615    -1.6333 H       
  41 H41            5.4218     4.5090     1.6113 H       
  42 H42            3.3311     3.2145     1.6347 H       
  43 H43           -0.9257    -4.3888    -1.4532 H       
  44 H44            1.2433    -7.9331    -1.4921 H       
  45 H45            3.3486    -4.3504    -1.5009 H       
@<TRIPOS>BOND
   1    1    7 ar
   2    1    2 ar
   3    1    6 ar
   4    2    3 ar
   5    2   10 ar
   6    3    4 ar
   7    3   15 1
   8    4    5 ar
   9    4   29 1
  10    5    6 ar
  11    5   12 1
  12    7    8 ar
  13    7   30 1
  14    8   11 1
  15    8    9 ar
  16    9   10 ar
  17    9   31 1
  18   10   32 1
  19   11   16 1
  20   11   33 1
  21   11   34 1
  22   12   13 am
  23   12   14 2
  24   13   35 1
  25   13   36 1
  26   15   18 ar
  27   15   22 ar
  28   16   17 1
  29   16   37 1
  30   16   38 1
  31   17   23 ar
  32   17   27 ar
  33   18   19 ar
  34   18   39 1
  35   19   20 ar
  36   19   40 1
  37   20   21 ar
  38   20   28 1
  39   21   22 ar
  40   21   41 1
  41   22   42 1
  42   23   24 ar
  43   23   43 1
  44   24   25 ar
  45   25   26 ar
  46   25   44 1
  47   26   27 ar
  48   27   45 1

#	End of record

