#	Name: ASD01812955
#	Creating user name:	WinNT
#	Creation time:	15. 06. 2019 19:29

#	Modifying user name:	WinNT
#	Modification time:	15. 06. 2019 19:29

#	Program:	/corina/corina34_cracker 3.40 0067  02.08.2006

@<TRIPOS>MOLECULE
ASD01812955
  61   65    0    0    0
SMALL
NO_CHARGES


@<TRIPOS>ATOM
   1 C1            -0.0166     1.3764     0.0096 C.ar    
   2 C2             0.0021    -0.0041     0.0020 C.ar    
   3 C3             1.2089    -0.6872    -0.0127 C.ar    
   4 C4             2.3941     0.0075    -0.0203 C.ar    
   5 C5             2.3941     1.4057    -0.0132 C.ar    
   6 C6             1.1719     2.0915     0.0021 C.ar    
   7 C7             3.8413    -0.4177    -0.0364 C.3     
   8 N8             4.6313     0.8189    -0.0378 N.am    
   9 C9             3.7915     1.8684    -0.0244 C.2     
  10 C10            6.0942     0.8968    -0.0511 C.3     
  11 C11            6.5825     0.9304    -1.4764 C.ar    
  12 O12            1.1515     3.4479     0.0091 O.3     
  13 O13            4.1370     3.0341    -0.0215 O.2     
  14 C14            6.7421     2.1434    -2.1218 C.ar    
  15 C15            7.1894     2.1798    -3.4270 C.ar    
  16 C16            7.4804     0.9922    -4.0944 C.ar    
  17 C17            7.3179    -0.2266    -3.4397 C.ar    
  18 C18            6.8750    -0.2515    -2.1327 C.ar    
  19 C19           -0.1314     4.0773     0.0243 C.3     
  20 C20            0.0461     5.5969     0.0302 C.3     
  21 C21            7.3887     1.7089    -6.5311 C.2     
  22 C22            7.9615     1.0253    -5.4986 C.2     
  23 C23            9.0921     0.3567    -6.0070 C.2     
  24 N24            9.1865     0.6303    -7.2813 N.2     
  25 N25            8.1288     1.4771    -7.6341 N.pl3   
  26 C26            7.8706     2.0178    -8.9709 C.3     
  27 C27           10.0299    -0.5208    -5.2186 C.3     
  28 O28            0.6256     6.0233    -1.2083 O.3     
  29 C29           -0.2819     6.8960    -1.8999 C.3     
  30 C30           -1.1849     7.4988    -0.7944 C.3     
  31 C31           -1.3298     6.2844     0.1627 C.3     
  32 C32            0.9488     6.0093     1.1947 C.3     
  33 H33           -0.9604     1.9015     0.0169 H       
  34 H34           -0.9272    -0.5544     0.0079 H       
  35 H35            1.2170    -1.7672    -0.0179 H       
  36 H36            4.0688    -1.0067     0.8521 H       
  37 H37            4.0515    -0.9977    -0.9350 H       
  38 H38            6.4145     1.8024     0.4641 H       
  39 H39            6.5091     0.0250     0.4546 H       
  40 H40            6.5159     3.0635    -1.6036 H       
  41 H41            7.3133     3.1274    -3.9301 H       
  42 H42            7.5421    -1.1503    -3.9526 H       
  43 H43            6.7526    -1.1957    -1.6229 H       
  44 H44           -0.6922     3.7805    -0.8620 H       
  45 H45           -0.6756     3.7715     0.9178 H       
  46 H46            6.5007     2.3211    -6.4760 H       
  47 H47            8.3884     2.9702    -9.0840 H       
  48 H48            8.2322     1.3162    -9.7227 H       
  49 H49            6.7990     2.1692    -9.1009 H       
  50 H50            9.6739    -1.5506    -5.2469 H       
  51 H51           11.0279    -0.4692    -5.6539 H       
  52 H52           10.0662    -0.1772    -4.1848 H       
  53 H53            0.2684     7.6858    -2.4113 H       
  54 H54           -0.8824     6.3300    -2.6120 H       
  55 H55           -0.6924     8.3344    -0.2971 H       
  56 H56           -2.1522     7.7989    -1.1976 H       
  57 H57           -2.1284     5.6214    -0.1700 H       
  58 H58           -1.5008     6.6159     1.1869 H       
  59 H59            1.9191     5.5234     1.0920 H       
  60 H60            1.0814     7.0911     1.1862 H       
  61 H61            0.4889     5.7070     2.1356 H       
@<TRIPOS>BOND
   1    1    2 ar
   2    1    6 ar
   3    1   33 1
   4    2    3 ar
   5    2   34 1
   6    3    4 ar
   7    3   35 1
   8    4    7 1
   9    4    5 ar
  10    5    6 ar
  11    5    9 1
  12    6   12 1
  13    7    8 1
  14    7   36 1
  15    7   37 1
  16    8    9 am
  17    8   10 1
  18    9   13 2
  19   10   11 1
  20   10   38 1
  21   10   39 1
  22   11   14 ar
  23   11   18 ar
  24   12   19 1
  25   14   15 ar
  26   14   40 1
  27   15   16 ar
  28   15   41 1
  29   16   17 ar
  30   16   22 1
  31   17   18 ar
  32   17   42 1
  33   18   43 1
  34   19   20 1
  35   19   44 1
  36   19   45 1
  37   20   28 1
  38   20   31 1
  39   20   32 1
  40   21   22 2
  41   21   25 1
  42   21   46 1
  43   22   23 1
  44   23   24 2
  45   23   27 1
  46   24   25 1
  47   25   26 1
  48   26   47 1
  49   26   48 1
  50   26   49 1
  51   27   50 1
  52   27   51 1
  53   27   52 1
  54   28   29 1
  55   29   30 1
  56   29   53 1
  57   29   54 1
  58   30   31 1
  59   30   55 1
  60   30   56 1
  61   31   57 1
  62   31   58 1
  63   32   59 1
  64   32   60 1
  65   32   61 1

#	End of record

