#	Name: ASD01208585
#	Creating user name:	WinNT
#	Creation time:	15. 06. 2019 19:10

#	Modifying user name:	WinNT
#	Modification time:	15. 06. 2019 19:10

#	Program:	/corina/corina34_cracker 3.40 0067  02.08.2006

@<TRIPOS>MOLECULE
ASD01208585
  80   83    0    0    0
SMALL
NO_CHARGES


@<TRIPOS>ATOM
   1 C1             0.3084     2.2176     0.2103 C.2     
   2 N2             1.5383     0.1286     0.0995 N.am    
   3 C3             0.1971     0.7162     0.1450 C.3     
   4 C4            -0.5418     0.2052     1.3836 C.3     
   5 C5            -0.5458    -1.3248     1.3800 C.3     
   6 O6             0.1178     0.6771     2.5601 O.3     
   7 O7             1.3964     2.7430     0.2179 O.2     
   8 O8            -0.8013     2.9716     0.2543 O.3     
   9 C9             1.7229    -1.0876    -0.4512 C.2     
  10 O10            0.7752    -1.6978    -0.9106 O.2     
  11 N11            4.2185    -1.0975    -0.0165 N.pl3   
  12 C12            3.0649    -1.6755    -0.4968 C.2     
  13 C13            3.3941    -2.9063    -1.0284 C.2     
  14 C14            4.7680    -3.0766    -0.8678 C.2     
  15 C15            5.2584    -1.9510    -0.2421 C.2     
  16 C16            6.6706    -1.7093     0.1218 C.ar    
  17 C17            7.6417    -2.6691    -0.1668 C.ar    
  18 C18            8.9636    -2.4386     0.1754 C.ar    
  19 C19            9.3233    -1.2553     0.8047 C.ar    
  20 C20            8.3610    -0.2986     1.0939 C.ar    
  21 C21            7.0373    -0.5185     0.7495 C.ar    
  22 O22            8.7184     0.8582     1.7112 O.3     
  23 C23            8.2422     1.0867     2.9610 C.ar    
  24 C24            8.6619     2.2057     3.6732 C.ar    
  25 N25            7.3721     0.2473     3.5039 N.ar    
  26 N26            8.1967     2.4248     4.8886 N.ar    
  27 C27            7.3327     1.5822     5.4292 C.ar    
  28 C28            6.9098     0.4727     4.7220 C.ar    
  29 S29            6.7145     1.8781     7.0525 S.o2    
  30 O30            6.3667     0.5878     7.5356 O.2     
  31 O31            7.7320     2.6459     7.6805 O.2     
  32 C32            5.2267     2.8833     6.7939 C.3     
  33 O33            9.9100    -3.3727    -0.1053 O.3     
  34 C34           11.2702    -3.0142     0.1466 C.3     
  35 C35           12.0980    -4.2809     0.3728 C.3     
  36 O36           11.7902    -2.2996    -0.9764 O.3     
  37 C37           11.3157    -0.9557    -1.0805 C.3     
  38 O38           12.0309    -5.1079    -0.7907 O.3     
  39 C39           12.7744    -6.3235    -0.6834 C.3     
  40 C40           -0.6185     4.4107     0.3161 C.3     
  41 C41           -1.9646     5.0867     0.3590 C.ar    
  42 C42           -2.5705     5.3440     1.5746 C.ar    
  43 C43           -3.8053     5.9640     1.6139 C.ar    
  44 C44           -4.4341     6.3273     0.4377 C.ar    
  45 C45           -3.8278     6.0709    -0.7779 C.ar    
  46 C46           -2.5910     5.4547    -0.8171 C.ar    
  47 H47            2.2935     0.6149     0.4656 H       
  48 H48           -0.3550     0.4313    -0.7506 H       
  49 H49           -1.5684     0.5713     1.3710 H       
  50 H50            0.4808    -1.6908     1.3925 H       
  51 H51           -1.0721    -1.6888     2.2623 H       
  52 H52           -1.0489    -1.6847     0.4825 H       
  53 H53            1.0377     0.3892     2.6376 H       
  54 H54            4.2818    -0.2274     0.4075 H       
  55 H55            2.7121    -3.6086    -1.4845 H       
  56 H56            5.3444    -3.9356    -1.1781 H       
  57 H57            7.3626    -3.5906    -0.6560 H       
  58 H58           10.3551    -1.0789     1.0706 H       
  59 H59            6.2896     0.2288     0.9706 H       
  60 H60            9.3677     2.8939     3.2322 H       
  61 H61            6.2007    -0.2110     5.1649 H       
  62 H62            4.5152     2.3285     6.1823 H       
  63 H63            4.7735     3.1161     7.7575 H       
  64 H64            5.4975     3.8092     6.2865 H       
  65 H65           11.3214    -2.3834     1.0340 H       
  66 H66           13.1355    -4.0074     0.5648 H       
  67 H67           11.7014    -4.8260     1.2293 H       
  68 H68           11.8245    -0.4535    -1.9033 H       
  69 H69           10.2419    -0.9629    -1.2675 H       
  70 H70           11.5189    -0.4256    -0.1500 H       
  71 H71           12.6726    -6.8943    -1.6064 H       
  72 H72           13.8260    -6.0924    -0.5133 H       
  73 H73           12.3919    -6.9109     0.1512 H       
  74 H74           -0.0544     4.6671     1.2129 H       
  75 H75           -0.0716     4.7457    -0.5653 H       
  76 H76           -2.0792     5.0601     2.4936 H       
  77 H77           -4.2790     6.1643     2.5636 H       
  78 H78           -5.3992     6.8111     0.4684 H       
  79 H79           -4.3192     6.3544    -1.6969 H       
  80 H80           -2.1157     5.2577    -1.7666 H       
@<TRIPOS>BOND
   1    1    3 1
   2    1    7 2
   3    1    8 1
   4    2    9 am
   5    2    3 1
   6    2   47 1
   7    3    4 1
   8    3   48 1
   9    4    5 1
  10    4    6 1
  11    4   49 1
  12    5   50 1
  13    5   51 1
  14    5   52 1
  15    6   53 1
  16    8   40 1
  17    9   10 2
  18    9   12 1
  19   11   12 1
  20   11   15 1
  21   11   54 1
  22   12   13 2
  23   13   14 1
  24   13   55 1
  25   14   15 2
  26   14   56 1
  27   15   16 1
  28   16   17 ar
  29   16   21 ar
  30   17   18 ar
  31   17   57 1
  32   18   19 ar
  33   18   33 1
  34   19   20 ar
  35   19   58 1
  36   20   21 ar
  37   20   22 1
  38   21   59 1
  39   22   23 1
  40   23   24 ar
  41   23   25 ar
  42   24   26 ar
  43   24   60 1
  44   25   28 ar
  45   26   27 ar
  46   27   28 ar
  47   27   29 1
  48   28   61 1
  49   29   30 2
  50   29   31 2
  51   29   32 1
  52   32   62 1
  53   32   63 1
  54   32   64 1
  55   33   34 1
  56   34   35 1
  57   34   36 1
  58   34   65 1
  59   35   38 1
  60   35   66 1
  61   35   67 1
  62   36   37 1
  63   37   68 1
  64   37   69 1
  65   37   70 1
  66   38   39 1
  67   39   71 1
  68   39   72 1
  69   39   73 1
  70   40   41 1
  71   40   74 1
  72   40   75 1
  73   41   42 ar
  74   41   46 ar
  75   42   43 ar
  76   42   76 1
  77   43   44 ar
  78   43   77 1
  79   44   45 ar
  80   44   78 1
  81   45   46 ar
  82   45   79 1
  83   46   80 1

#	End of record

