#	Name: ASD01200386
#	Creating user name:	WinNT
#	Creation time:	15. 06. 2019 19:09

#	Modifying user name:	WinNT
#	Modification time:	15. 06. 2019 19:09

#	Program:	/corina/corina34_cracker 3.40 0067  02.08.2006

@<TRIPOS>MOLECULE
ASD01200386
  61   62    0    0    0
SMALL
NO_CHARGES


@<TRIPOS>ATOM
   1 N1             0.0020     1.3769    -0.0808 N.pl3   
   2 C2            -0.0141    -0.0834     0.0354 C.3     
   3 C3            -0.9020    -0.4917     1.2126 C.3     
   4 P4            -0.6726    -0.8082    -1.5023 P.3     
   5 C5             1.2073     2.0465    -0.3125 C.ar    
   6 O6            -0.6290    -2.4143    -1.4002 O.3     
   7 O7            -2.0707    -0.3640    -1.6978 O.2     
   8 O8             0.2234    -0.3252    -2.7498 O.3     
   9 C9            -0.0980    -0.6388    -4.1064 C.3     
  10 C10            0.9551    -0.0293    -5.0340 C.3     
  11 C11           -1.1728    -3.2731    -2.4047 C.3     
  12 C12           -0.9639    -4.7325    -1.9956 C.3     
  13 C13            1.2106     3.4188    -0.5257 C.ar    
  14 C14            2.4024     4.0784    -0.7540 C.ar    
  15 C15            3.5935     3.3724    -0.7704 C.ar    
  16 C16            3.5926     2.0041    -0.5581 C.ar    
  17 C17            2.4036     1.3413    -0.3242 C.ar    
  18 N18           -0.8173    -1.9450     1.4089 N.3     
  19 C19           -1.5818    -2.3618     2.5914 C.3     
  20 C20           -1.5920    -3.8895     2.6815 C.3     
  21 C21           -0.1515    -4.3999     2.7760 C.3     
  22 C22            0.6357    -3.9116     1.5568 C.3     
  23 C23            0.5813    -2.3833     1.4993 C.3     
  24 C24           -2.3701    -4.3226     3.9256 C.3     
  25 C25            2.0918    -4.3669     1.6731 C.3     
  26 C26            2.8368    -3.9929     0.4176 C.2     
  27 O27            4.1388    -4.2953     0.2946 O.3     
  28 O28            2.2622    -3.4210    -0.4782 O.2     
  29 F29            4.7581     4.0194    -0.9943 F       
  30 H30           -0.8242     1.8788    -0.0009 H       
  31 H31            1.0002    -0.4458     0.2025 H       
  32 H32           -0.5647     0.0172     2.1156 H       
  33 H33           -1.9346    -0.2130     1.0027 H       
  34 H34           -0.1131    -1.7210    -4.2354 H       
  35 H35           -1.0783    -0.2300    -4.3514 H       
  36 H36            1.9354    -0.4381    -4.7890 H       
  37 H37            0.7100    -0.2684    -6.0688 H       
  38 H38            0.9702     1.0530    -4.9050 H       
  39 H39           -2.2392    -3.0753    -2.5133 H       
  40 H40           -0.6701    -3.0862    -3.3535 H       
  41 H41           -1.3787    -5.3875    -2.7618 H       
  42 H42            0.1024    -4.9303    -1.8869 H       
  43 H43           -1.4667    -4.9194    -1.0467 H       
  44 H44            0.2818     3.9699    -0.5134 H       
  45 H45            2.4054     5.1455    -0.9202 H       
  46 H46            4.5227     1.4553    -0.5716 H       
  47 H47            2.4034     0.2740    -0.1586 H       
  48 H48           -1.1190    -1.9482     3.4874 H       
  49 H49           -2.6053    -1.9960     2.5096 H       
  50 H50           -2.0671    -4.3033     1.7920 H       
  51 H51            0.3115    -4.0175     3.6856 H       
  52 H52           -0.1518    -5.4897     2.7967 H       
  53 H53            0.1957    -4.3258     0.6497 H       
  54 H54            1.1289    -2.0330     0.6243 H       
  55 H55            1.0340    -1.9696     2.4004 H       
  56 H56           -3.3944    -3.9560     3.8595 H       
  57 H57           -2.3770    -5.4107     3.9893 H       
  58 H58           -1.8931    -3.9097     4.8145 H       
  59 H59            2.5572    -3.8804     2.5303 H       
  60 H60            2.1248    -5.4481     1.8068 H       
  61 H61            4.5740    -4.0353    -0.5289 H       
@<TRIPOS>BOND
   1    1    2 1
   2    1    5 1
   3    1   30 1
   4    2    3 1
   5    2    4 1
   6    2   31 1
   7    3   18 1
   8    3   32 1
   9    3   33 1
  10    4    6 1
  11    4    7 2
  12    4    8 1
  13    5   13 ar
  14    5   17 ar
  15    6   11 1
  16    8    9 1
  17    9   10 1
  18    9   34 1
  19    9   35 1
  20   10   36 1
  21   10   37 1
  22   10   38 1
  23   11   12 1
  24   11   39 1
  25   11   40 1
  26   12   41 1
  27   12   42 1
  28   12   43 1
  29   13   14 ar
  30   13   44 1
  31   14   15 ar
  32   14   45 1
  33   15   16 ar
  34   15   29 1
  35   16   17 ar
  36   16   46 1
  37   17   47 1
  38   18   19 1
  39   18   23 1
  40   19   20 1
  41   19   48 1
  42   19   49 1
  43   20   21 1
  44   20   24 1
  45   20   50 1
  46   21   22 1
  47   21   51 1
  48   21   52 1
  49   22   23 1
  50   22   25 1
  51   22   53 1
  52   23   54 1
  53   23   55 1
  54   24   56 1
  55   24   57 1
  56   24   58 1
  57   25   26 1
  58   25   59 1
  59   25   60 1
  60   26   27 1
  61   26   28 2
  62   27   61 1

#	End of record

