#	Name: ASD09800061
#	Creating user name:	WinNT
#	Creation time:	15. 06. 2019 21:24

#	Modifying user name:	WinNT
#	Modification time:	15. 06. 2019 21:24

#	Program:	/corina/corina34_cracker 3.40 0067  02.08.2006

@<TRIPOS>MOLECULE
ASD09800061
  44   46    0    0    0
SMALL
NO_CHARGES


@<TRIPOS>ATOM
   1 C1            -0.0149     1.3788    -0.1390 C.ar    
   2 C2             0.0037    -0.0012    -0.2110 C.ar    
   3 C3             1.2107    -0.6764    -0.2952 C.ar    
   4 C4             2.4029     0.0254    -0.3074 C.ar    
   5 C5             2.3973     1.4030    -0.2357 C.ar    
   6 C6             1.1852     2.0906    -0.1515 C.ar    
   7 C7             1.1733     3.5667    -0.0753 C.2     
   8 S8            -0.2730     4.5599     0.0351 S.3     
   9 C9             0.6915     6.0295     0.0714 C.2     
  10 C10            2.0251     5.7077     0.0002 C.2     
  11 C11            2.2811     4.3584    -0.0745 C.2     
  12 N12            3.0366     6.6700     0.0079 N.am    
  13 C13            4.3267     6.2910     0.1002 C.2     
  14 O14            4.6053     5.1211     0.2792 O.2     
  15 N15            5.3080     7.2088    -0.0058 N.am    
  16 C16            0.1726     7.3443     0.1605 C.2     
  17 O17            0.9300     8.2979     0.1781 O.2     
  18 N18           -1.1593     7.5402     0.2257 N.am    
  19 C19           -1.6960     8.9002     0.3178 C.3     
  20 C20           -3.1261     8.9235    -0.2286 C.3     
  21 C21           -1.7069     9.3471     1.7814 C.3     
  22 N22           -2.2644    10.7023     1.8766 N.3     
  23 C23           -3.6534    10.7397     1.4015 C.3     
  24 C24           -3.7005    10.3343    -0.0735 C.3     
  25 F25           -1.1567    -0.6930    -0.1987 F       
  26 H26           -0.9559     1.9052    -0.0778 H       
  27 H27            1.2209    -1.7549    -0.3513 H       
  28 H28            3.3404    -0.5067    -0.3729 H       
  29 H29            3.3292     1.9487    -0.2446 H       
  30 H30            3.2826     3.9582    -0.1313 H       
  31 H31            2.8109     7.6114    -0.0533 H       
  32 H32            5.0858     8.1421    -0.1486 H       
  33 H33            6.2365     6.9360     0.0607 H       
  34 H34           -1.7624     6.7806     0.2116 H       
  35 H35           -1.0721     9.5779    -0.2650 H       
  36 H36           -3.1178     8.6475    -1.2831 H       
  37 H37           -3.7407     8.2167     0.3289 H       
  38 H38           -2.3192     8.6606     2.3662 H       
  39 H39           -0.6883     9.3453     2.1693 H       
  40 H40           -2.1948    11.0566     2.8188 H       
  41 H41           -4.2566    10.0467     1.9880 H       
  42 H42           -4.0485    11.7494     1.5135 H       
  43 H43           -3.1087    11.0350    -0.6625 H       
  44 H44           -4.7334    10.3471    -0.4215 H       
@<TRIPOS>BOND
   1    1    2 ar
   2    1    6 ar
   3    1   26 1
   4    2    3 ar
   5    2   25 1
   6    3    4 ar
   7    3   27 1
   8    4    5 ar
   9    4   28 1
  10    5    6 ar
  11    5   29 1
  12    6    7 1
  13    7    8 1
  14    7   11 2
  15    8    9 1
  16    9   10 2
  17    9   16 1
  18   10   11 1
  19   10   12 1
  20   11   30 1
  21   12   13 am
  22   12   31 1
  23   13   14 2
  24   13   15 am
  25   15   32 1
  26   15   33 1
  27   16   17 2
  28   16   18 am
  29   18   19 1
  30   18   34 1
  31   19   21 1
  32   19   20 1
  33   19   35 1
  34   20   24 1
  35   20   36 1
  36   20   37 1
  37   21   22 1
  38   21   38 1
  39   21   39 1
  40   22   23 1
  41   22   40 1
  42   23   24 1
  43   23   41 1
  44   23   42 1
  45   24   43 1
  46   24   44 1

#	End of record

