#	Name: ASD02610022
#	Creating user name:	WinNT
#	Creation time:	15. 06. 2019 20:25

#	Modifying user name:	WinNT
#	Modification time:	15. 06. 2019 20:25

#	Program:	/corina/corina34_cracker 3.40 0067  02.08.2006

@<TRIPOS>MOLECULE
ASD02610022
  92   94    0    0    0
SMALL
NO_CHARGES


@<TRIPOS>ATOM
   1 C1            -0.7477     0.7518    -0.6686 C.3     
   2 C2            -0.2182    -0.6899    -0.8617 C.3     
   3 C3             1.2326    -0.5161    -1.2458 C.2     
   4 C4             1.6583     0.6928    -0.9607 C.2     
   5 C5             0.5567     1.5004    -0.3350 C.3     
   6 C6             3.0416     1.2035    -1.2664 C.3     
   7 C7             3.4606     2.2780    -0.2860 C.3     
   8 C8             2.9025     3.6424    -0.5514 C.3     
   9 C9             1.5140     3.8241     0.0054 C.3     
  10 C10            0.5125     2.9376    -0.7170 C.3     
  11 O11           -0.9351    -1.3480    -1.9081 O.3     
  12 C12            2.0812    -1.5911    -1.8747 C.3     
  13 O13           -1.6876     0.8205     0.4360 O.3     
  14 H14            0.6909     1.4566     0.7458 H       
  15 O15           -0.8224     3.4419    -0.4490 O.3     
  16 C16            0.7698     3.0453    -2.2213 C.3     
  17 O17            2.8648     3.8583    -1.9634 O.3     
  18 O18            4.0303     0.1695    -1.1180 O.3     
  19 C19            5.2972     0.8367    -0.9449 C.3     
  20 C20            5.0014     2.2381    -0.3646 C.3     
  21 O21            3.0617     1.8782     1.0266 O.3     
  22 C22           -2.9862     0.6490     0.1427 C.2     
  23 C23           -4.0200     0.7071     1.2376 C.3     
  24 C24           -5.4100     0.4818     0.6391 C.3     
  25 C25           -6.4596     0.5407     1.7508 C.3     
  26 C26           -7.8495     0.3155     1.1523 C.3     
  27 C27           -8.8991     0.3744     2.2640 C.3     
  28 O28           -3.3263     0.4481    -0.9992 O.2     
  29 O29            5.4871     3.2579    -1.2398 O.3     
  30 C30          -10.2891     0.1492     1.6655 C.3     
  31 C31          -11.3387     0.2081     2.7771 C.3     
  32 C32            5.6158     2.3847     1.0290 C.3     
  33 C33           -1.0837     4.7040    -0.8240 C.2     
  34 C34           -2.4358     5.3084    -0.5451 C.3     
  35 O35           -0.2349     5.3555    -1.3852 O.2     
  36 H36            3.0721     1.5989    -2.2817 H       
  37 C37           -0.9563    -2.7065    -1.8818 C.2     
  38 C38           -1.6287    -3.4540    -2.9596 C.2     
  39 C39           -2.2137    -2.8001    -3.9561 C.2     
  40 C40           -0.3686    -3.3634    -0.8806 C.2     
  41 C41           -2.1902    -1.2935    -3.9853 C.3     
  42 C42           -1.6521    -4.9606    -2.9304 C.3     
  43 C43            6.0034     0.9712    -2.2955 C.3     
  44 O44            6.1159     0.0973    -0.0366 O.3     
  45 H45           -1.1951     1.1322    -1.5869 H       
  46 H46           -0.3002    -1.2525     0.0683 H       
  47 H47            3.5615     4.3853    -0.1019 H       
  48 H48            1.5177     3.5691     1.0652 H       
  49 H49            1.2165     4.8664    -0.1093 H       
  50 H50            1.4858    -2.4950    -2.0036 H       
  51 H51            2.4387    -1.2498    -2.8462 H       
  52 H52            2.9328    -1.8059    -1.2291 H       
  53 H53           -0.0835     2.6408    -2.7658 H       
  54 H54            0.9105     4.0918    -2.4919 H       
  55 H55            1.6657     2.4800    -2.4781 H       
  56 H56            2.5146     4.7224    -2.2200 H       
  57 H57            3.3764     1.0006     1.2831 H       
  58 H58           -3.8120    -0.0681     1.9752 H       
  59 H59           -3.9855     1.6847     1.7185 H       
  60 H60           -5.6180     1.2570    -0.0984 H       
  61 H61           -5.4445    -0.4958     0.1583 H       
  62 H62           -6.2516    -0.2345     2.4883 H       
  63 H63           -6.4251     1.5183     2.2316 H       
  64 H64           -8.0575     1.0907     0.4148 H       
  65 H65           -7.8840    -0.6621     0.6715 H       
  66 H66           -8.6911    -0.4008     3.0015 H       
  67 H67           -8.8646     1.3520     2.7448 H       
  68 H68            6.4502     3.2770    -1.3253 H       
  69 H69          -10.4971     0.9243     0.9280 H       
  70 H70          -10.3236    -0.8285     1.1847 H       
  71 H71          -11.1307    -0.5671     3.5147 H       
  72 H72          -11.3042     1.1857     3.2580 H       
  73 H73          -12.3289     0.0476     2.3508 H       
  74 H74            5.2734     1.5681     1.6647 H       
  75 H75            6.7026     2.3540     0.9519 H       
  76 H76            5.3090     3.3363     1.4630 H       
  77 H77           -2.4223     5.7942     0.4305 H       
  78 H78           -2.6705     6.0442    -1.3143 H       
  79 H79           -3.1924     4.5238    -0.5499 H       
  80 H80           -2.7064    -3.3478    -4.7458 H       
  81 H81           -0.3464    -4.4432    -0.8827 H       
  82 H82            0.0851    -2.8156    -0.0680 H       
  83 H83           -2.7167    -0.9390    -4.8714 H       
  84 H84           -2.6798    -0.9052    -3.0922 H       
  85 H85           -1.1573    -0.9467    -4.0133 H       
  86 H86           -2.5368    -5.2998    -2.3916 H       
  87 H87           -1.6791    -5.3433    -3.9506 H       
  88 H88           -0.7575    -5.3282    -2.4279 H       
  89 H89            5.3692     1.5309    -2.9830 H       
  90 H90            6.9476     1.4988    -2.1609 H       
  91 H91            6.1965    -0.0204    -2.7049 H       
  92 H92            6.3283    -0.7969    -0.3372 H       
@<TRIPOS>BOND
   1    1    2 1
   2    1    5 1
   3    1   13 1
   4    1   45 1
   5    2    3 1
   6    2   11 1
   7    2   46 1
   8    3    4 2
   9    3   12 1
  10    4    5 1
  11    4    6 1
  12    5   10 1
  13    5   14 1
  14    6    7 1
  15    6   18 1
  16    6   36 1
  17    7   20 1
  18    7   21 1
  19    7    8 1
  20    8    9 1
  21    8   17 1
  22    8   47 1
  23    9   10 1
  24    9   48 1
  25    9   49 1
  26   10   15 1
  27   10   16 1
  28   11   37 1
  29   12   50 1
  30   12   51 1
  31   12   52 1
  32   13   22 1
  33   15   33 1
  34   16   53 1
  35   16   54 1
  36   16   55 1
  37   17   56 1
  38   18   19 1
  39   19   20 1
  40   19   43 1
  41   19   44 1
  42   20   29 1
  43   20   32 1
  44   21   57 1
  45   22   23 1
  46   22   28 2
  47   23   24 1
  48   23   58 1
  49   23   59 1
  50   24   25 1
  51   24   60 1
  52   24   61 1
  53   25   26 1
  54   25   62 1
  55   25   63 1
  56   26   27 1
  57   26   64 1
  58   26   65 1
  59   27   30 1
  60   27   66 1
  61   27   67 1
  62   29   68 1
  63   30   31 1
  64   30   69 1
  65   30   70 1
  66   31   71 1
  67   31   72 1
  68   31   73 1
  69   32   74 1
  70   32   75 1
  71   32   76 1
  72   33   34 1
  73   33   35 2
  74   34   77 1
  75   34   78 1
  76   34   79 1
  77   37   38 1
  78   37   40 2
  79   38   39 2
  80   38   42 1
  81   39   41 1
  82   39   80 1
  83   40   81 1
  84   40   82 1
  85   41   83 1
  86   41   84 1
  87   41   85 1
  88   42   86 1
  89   42   87 1
  90   42   88 1
  91   43   89 1
  92   43   90 1
  93   43   91 1
  94   44   92 1

#	End of record

