#	Name: ASD01230148
#	Creating user name:	WinNT
#	Creation time:	15. 06. 2019 19:11

#	Modifying user name:	WinNT
#	Modification time:	15. 06. 2019 19:11

#	Program:	/corina/corina34_cracker 3.40 0067  02.08.2006

@<TRIPOS>MOLECULE
ASD01230148
  39   41    0    0    0
SMALL
NO_CHARGES


@<TRIPOS>ATOM
   1 C1            -0.0417     0.4890     0.3624 C.3     
   2 C2             0.2215    -0.9470     0.7707 C.3     
   3 O3             1.2631     1.0705     0.1609 O.3     
   4 C4             2.1437     0.5070     1.1430 C.3     
   5 C5             1.5551    -0.8690     1.5513 C.3     
   6 C6             2.0936     1.3572     2.4285 C.3     
   7 N7             2.1136     0.3641     3.5334 N.3     
   8 C8             1.2323    -0.7310     3.0545 C.3     
   9 C9             3.5683     0.3691     0.6022 C.3     
  10 O10            0.2742    -1.9001    -0.2270 O.3     
  11 C11           -0.9458    -2.5214    -0.6470 C.3     
  12 C12           -1.6468    -1.6119    -1.5872 C.3     
  13 C13           -2.0380    -0.2741    -0.9610 C.3     
  14 C14           -0.8613     0.6745    -0.9268 C.3     
  15 C15            3.2984     2.2587     2.5099 C.2     
  16 O16            4.2787     1.9034     3.1204 O.2     
  17 O17            3.2825     3.4565     1.9044 O.3     
  18 C18            3.5576    -0.5072    -0.6238 C.2     
  19 O19            2.5075    -0.8820    -1.0893 O.2     
  20 O20            4.7146    -0.8713    -1.1986 O.3     
  21 H21           -0.5448     1.0088     1.1777 H       
  22 H22           -0.5494    -1.2423     1.4825 H       
  23 H23            2.2241    -1.7001     1.3284 H       
  24 H24            1.1756     1.9439     2.4610 H       
  25 H25            3.0501     0.0278     3.7004 H       
  26 H26            0.1849    -0.4638     3.1946 H       
  27 H27            1.4614    -1.6589     3.5784 H       
  28 H28            3.9548     1.3543     0.3413 H       
  29 H29            4.2044    -0.0805     1.3646 H       
  30 H30           -0.7223    -3.4633    -1.1481 H       
  31 H31           -1.5783    -2.7081     0.2208 H       
  32 H32           -0.9952    -1.4212    -2.4399 H       
  33 H33           -2.5494    -2.1074    -1.9448 H       
  34 H34           -2.8414     0.1734    -1.5461 H       
  35 H35           -2.3898    -0.4446     0.0564 H       
  36 H36           -1.2268     1.7003    -0.9742 H       
  37 H37           -0.2217     0.4830    -1.7884 H       
  38 H38            4.0786     3.9996     1.9845 H       
  39 H39            4.6572    -1.4340    -1.9829 H       
@<TRIPOS>BOND
   1    1    2 1
   2    1    3 1
   3    1   14 1
   4    1   21 1
   5    2   10 1
   6    2    5 1
   7    2   22 1
   8    3    4 1
   9    4    5 1
  10    4    9 1
  11    4    6 1
  12    5    8 1
  13    5   23 1
  14    6    7 1
  15    6   15 1
  16    6   24 1
  17    7    8 1
  18    7   25 1
  19    8   26 1
  20    8   27 1
  21    9   18 1
  22    9   28 1
  23    9   29 1
  24   10   11 1
  25   11   12 1
  26   11   30 1
  27   11   31 1
  28   12   13 1
  29   12   32 1
  30   12   33 1
  31   13   14 1
  32   13   34 1
  33   13   35 1
  34   14   36 1
  35   14   37 1
  36   15   16 2
  37   15   17 1
  38   17   38 1
  39   18   19 2
  40   18   20 1
  41   20   39 1

#	End of record

