#	Name: ASD01910450
#	Creating user name:	WinNT
#	Creation time:	15. 06. 2019 19:55

#	Modifying user name:	WinNT
#	Modification time:	15. 06. 2019 19:55

#	Program:	/corina/corina34_cracker 3.40 0067  02.08.2006

@<TRIPOS>MOLECULE
ASD01910450
  46   49    0    0    0
SMALL
NO_CHARGES


@<TRIPOS>ATOM
   1 C1             0.0276     1.3049    -0.0587 C.ar    
   2 C2             0.0599    -0.0803    -0.0694 C.ar    
   3 C3             1.2736    -0.7489    -0.0776 C.ar    
   4 C4             2.4555    -0.0372    -0.0748 C.ar    
   5 C5             2.4275     1.3560    -0.0640 C.ar    
   6 C6             1.2047     2.0244    -0.0563 C.ar    
   7 F7            -1.0951    -0.7811    -0.0713 F       
   8 C8             3.6961     2.1256    -0.0604 C.2     
   9 N9             3.8180     3.4724    -0.0503 N.2     
  10 C10            5.1062     3.7090    -0.0500 C.2     
  11 O11            5.7241     2.5237    -0.0598 O.3     
  12 N12            4.9057     1.6285    -0.0607 N.2     
  13 C13            5.7675     5.0631    -0.0409 C.3     
  14 C14            6.6412     5.1965     1.2085 C.3     
  15 C15            7.2874     6.5835     1.2354 C.3     
  16 C16            8.1796     6.7509     0.0014 C.3     
  17 N17            7.3792     6.4813    -1.2009 N.am    
  18 C18            6.6425     5.2132    -1.2894 C.3     
  19 C19            7.3219     7.3802    -2.2035 C.2     
  20 C20            7.9923     8.6935    -2.0600 C.ar    
  21 O21            6.7205     7.1134    -3.2250 O.2     
  22 C22            9.3518     8.7755    -1.7445 C.ar    
  23 C23            9.9367    10.0211    -1.6203 C.ar    
  24 N24            9.2311    11.1206    -1.7949 N.ar    
  25 C25            7.9474    11.0879    -2.0933 C.ar    
  26 C26            7.2842     9.8855    -2.2422 C.ar    
  27 C27            5.8166     9.8586    -2.5834 C.3     
  28 H28           -0.9205     1.8221    -0.0568 H       
  29 H29            1.2944    -1.8287    -0.0859 H       
  30 H30            3.4010    -0.5591    -0.0805 H       
  31 H31            1.1786     3.1040    -0.0483 H       
  32 H32            5.0039     5.8409    -0.0356 H       
  33 H33            6.0251     5.0656     2.0981 H       
  34 H34            7.4195     4.4336     1.1905 H       
  35 H35            6.5098     7.3473     1.2284 H       
  36 H36            7.8908     6.6863     2.1373 H       
  37 H37            8.5636     7.7703    -0.0363 H       
  38 H38            9.0102     6.0469     0.0529 H       
  39 H39            7.3477     4.3839    -1.3432 H       
  40 H40            6.0123     5.2180    -2.1788 H       
  41 H41            9.9359     7.8788    -1.5997 H       
  42 H42           10.9862    10.0949    -1.3764 H       
  43 H43            7.4080    12.0139    -2.2273 H       
  44 H44            5.6932     9.9361    -3.6636 H       
  45 H45            5.3793     8.9234    -2.2339 H       
  46 H46            5.3156    10.6971    -2.0994 H       
@<TRIPOS>BOND
   1    1    2 ar
   2    1    6 ar
   3    1   28 1
   4    2    3 ar
   5    2    7 1
   6    3    4 ar
   7    3   29 1
   8    4    5 ar
   9    4   30 1
  10    5    6 ar
  11    5    8 1
  12    6   31 1
  13    8    9 1
  14    8   12 2
  15    9   10 2
  16   10   11 1
  17   10   13 1
  18   11   12 1
  19   13   14 1
  20   13   18 1
  21   13   32 1
  22   14   15 1
  23   14   33 1
  24   14   34 1
  25   15   16 1
  26   15   35 1
  27   15   36 1
  28   16   17 1
  29   16   37 1
  30   16   38 1
  31   17   18 1
  32   17   19 am
  33   18   39 1
  34   18   40 1
  35   19   20 1
  36   19   21 2
  37   20   22 ar
  38   20   26 ar
  39   22   23 ar
  40   22   41 1
  41   23   24 ar
  42   23   42 1
  43   24   25 ar
  44   25   26 ar
  45   25   43 1
  46   26   27 1
  47   27   44 1
  48   27   45 1
  49   27   46 1

#	End of record

