#	Name: ASD00431178
#	Creating user name:	WinNT
#	Creation time:	15. 06. 2019 18:35

#	Modifying user name:	WinNT
#	Modification time:	15. 06. 2019 18:35

#	Program:	/corina/corina34_cracker 3.40 0067  02.08.2006

@<TRIPOS>MOLECULE
ASD00431178
  46   48    0    0    0
SMALL
NO_CHARGES


@<TRIPOS>ATOM
   1 C1             0.0392     1.4573     0.1353 C.2     
   2 C2             0.1130    -0.0467     0.1942 C.3     
   3 O3             1.0575     2.1119     0.0607 O.2     
   4 N4            -1.1586     2.0747     0.1601 N.am    
   5 C5            -1.2303     3.5368     0.1029 C.3     
   6 C6            -1.1899     3.9927    -1.3570 C.3     
   7 O7            -3.7304     3.4806     0.5450 O.3     
   8 N8            -4.5519     4.0824     1.2038 N.2     
   9 C9            -3.9688     5.0403     1.8828 C.2     
  10 N10           -2.6486     4.9922     1.5850 N.2     
  11 C11           -2.5148     4.0020     0.7391 C.2     
  12 S12           -3.8326     7.2770     3.7058 S.3     
  13 C13           -5.3320     7.7416     4.3829 C.2     
  14 N14           -6.2828     6.9785     3.9381 N.2     
  15 C15           -5.9447     6.0327     3.0901 C.2     
  16 C16           -4.6273     5.9923     2.7991 C.2     
  17 O17           -5.5030     8.7599     5.2590 O.3     
  18 C18           -7.0063    10.0291     6.6030 C.ar    
  19 C19           -6.7742     9.1037     5.5980 C.ar    
  20 C20           -7.8586     8.5306     4.9394 C.ar    
  21 C21           -9.1346     8.9105     5.3170 C.ar    
  22 C22           -9.2901     9.8441     6.3331 C.ar    
  23 N23           -8.2369    10.3679     6.9370 N.ar    
  24 O24          -10.5377    10.2236     6.7104 O.3     
  25 C25          -10.6326    11.1873     7.7613 C.3     
  26 C26          -11.8980    12.0261     7.5714 C.3     
  27 C27          -10.6958    10.4670     9.1097 C.3     
  28 H28            0.1787    -0.3669     1.2340 H       
  29 H29           -0.7811    -0.4725    -0.2613 H       
  30 H30            0.9948    -0.3887    -0.3477 H       
  31 H31           -1.9731     1.5510     0.2158 H       
  32 H32           -0.3834     3.9635     0.6403 H       
  33 H33           -2.0369     3.5661    -1.8944 H       
  34 H34           -1.2433     5.0806    -1.3996 H       
  35 H35           -0.2609     3.6562    -1.8172 H       
  36 H36           -6.6603     5.3459     2.6627 H       
  37 H37           -6.1704    10.4749     7.1217 H       
  38 H38           -7.7076     7.8069     4.1521 H       
  39 H39           -9.9988     8.4864     4.8273 H       
  40 H40           -9.7584    11.8380     7.7376 H       
  41 H41          -12.7721    11.3754     7.5951 H       
  42 H42          -11.9704    12.7612     8.3729 H       
  43 H43          -11.8530    12.5392     6.6108 H       
  44 H44           -9.7943     9.8695     9.2450 H       
  45 H45          -10.7681    11.2021     9.9112 H       
  46 H46          -11.5699     9.8163     9.1334 H       
@<TRIPOS>BOND
   1    1    2 1
   2    1    3 2
   3    1    4 am
   4    2   28 1
   5    2   29 1
   6    2   30 1
   7    4    5 1
   8    4   31 1
   9    5    6 1
  10    5   11 1
  11    5   32 1
  12    6   33 1
  13    6   34 1
  14    6   35 1
  15    7    8 1
  16    7   11 1
  17    8    9 2
  18    9   10 1
  19    9   16 1
  20   10   11 2
  21   12   13 1
  22   12   16 1
  23   13   14 2
  24   13   17 1
  25   14   15 1
  26   15   16 2
  27   15   36 1
  28   17   19 1
  29   18   19 ar
  30   18   23 ar
  31   18   37 1
  32   19   20 ar
  33   20   21 ar
  34   20   38 1
  35   21   22 ar
  36   21   39 1
  37   22   23 ar
  38   22   24 1
  39   24   25 1
  40   25   26 1
  41   25   27 1
  42   25   40 1
  43   26   41 1
  44   26   42 1
  45   26   43 1
  46   27   44 1
  47   27   45 1
  48   27   46 1

#	End of record

