#	Name: ASD02508424
#	Creating user name:	WinNT
#	Creation time:	15. 06. 2019 20:24

#	Modifying user name:	WinNT
#	Modification time:	15. 06. 2019 20:24

#	Program:	/corina/corina34_cracker 3.40 0067  02.08.2006

@<TRIPOS>MOLECULE
ASD02508424
  32   34    0    0    0
SMALL
NO_CHARGES


@<TRIPOS>ATOM
   1 N1             0.5977     1.4603     0.6667 N.2     
   2 C2             0.4530     0.1265     0.6626 C.2     
   3 C3             1.5903    -0.4187     0.1920 C.2     
   4 N4             2.4399     0.6196    -0.0937 N.pl3   
   5 C5             1.7829     1.7684     0.2162 C.2     
   6 C6             3.7367     0.5158    -0.6063 C.ar    
   7 C7             4.4850     1.6637    -0.8474 C.ar    
   8 N8             4.2578    -0.6766    -0.8586 N.ar    
   9 C9             5.4840    -0.7715    -1.3432 C.ar    
  10 C10            6.2232     0.3711    -1.5871 C.ar    
  11 N11            5.7088     1.5620    -1.3313 N.ar    
  12 S12            1.9234    -2.1363    -0.0170 S.o2    
  13 O13            1.6423    -2.4370    -1.3770 O.2     
  14 O14            3.1872    -2.3762     0.5869 O.2     
  15 N15            0.8092    -2.9650     0.8852 N.am    
  16 C16            0.7649    -2.7927     2.2720 C.ar    
  17 C17           -0.4522    -2.5899     2.9089 C.ar    
  18 C18           -0.4943    -2.4198     4.2793 C.ar    
  19 C19            0.6757    -2.4514     5.0181 C.ar    
  20 C20            1.8920    -2.6532     4.3850 C.ar    
  21 C21            1.9377    -2.8300     3.0151 C.ar    
  22 Cl22           3.3580    -2.6912     5.3141 Cl      
  23 F23            0.6321    -2.2848     6.3581 F       
  24 H24           -0.4244    -0.4161     0.9821 H       
  25 H25            2.1757     2.7685     0.1073 H       
  26 H26            4.0650     2.6366    -0.6391 H       
  27 H27            5.9090    -1.7429    -1.5486 H       
  28 H28            7.2249     0.2905    -1.9828 H       
  29 H29            0.1872    -3.5700     0.4515 H       
  30 H30           -1.3656    -2.5647     2.3331 H       
  31 H31           -1.4409    -2.2616     4.7745 H       
  32 H32            2.8854    -2.9876     2.5217 H       
@<TRIPOS>BOND
   1    1    2 1
   2    1    5 2
   3    2    3 2
   4    2   24 1
   5    3    4 1
   6    3   12 1
   7    4    5 1
   8    4    6 1
   9    5   25 1
  10    6    7 ar
  11    6    8 ar
  12    7   11 ar
  13    7   26 1
  14    8    9 ar
  15    9   10 ar
  16    9   27 1
  17   10   11 ar
  18   10   28 1
  19   12   13 2
  20   12   14 2
  21   12   15 am
  22   15   16 1
  23   15   29 1
  24   16   17 ar
  25   16   21 ar
  26   17   18 ar
  27   17   30 1
  28   18   19 ar
  29   18   31 1
  30   19   20 ar
  31   19   23 1
  32   20   21 ar
  33   20   22 1
  34   21   32 1

#	End of record

