#	Name: ASD03900018
#	Creating user name:	WinNT
#	Creation time:	15. 06. 2019 20:47

#	Modifying user name:	WinNT
#	Modification time:	15. 06. 2019 20:47

#	Program:	/corina/corina34_cracker 3.40 0067  02.08.2006

@<TRIPOS>MOLECULE
ASD03900018
  35   39    0    0    0
SMALL
NO_CHARGES


@<TRIPOS>ATOM
   1 C1            -0.0167     1.3797     0.0096 C.ar    
   2 C2             0.0021    -0.0041     0.0020 C.ar    
   3 C3             1.2079    -0.6779    -0.0132 C.ar    
   4 C4             2.4035     0.0316    -0.0199 C.ar    
   5 C5             2.3807     1.4166    -0.0128 C.ar    
   6 C6             1.1702     2.0867     0.0021 C.ar    
   7 O7             3.5749    -0.6481    -0.0328 O.3     
   8 C8             4.7133    -0.0365    -0.4381 C.ar    
   9 C9             4.8162     1.3449    -0.4533 C.ar    
  10 C10            3.6612     2.2076    -0.0218 C.3     
  11 C11            5.7925    -0.8130    -0.8445 C.ar    
  12 C12            6.9632    -0.2092    -1.2606 C.ar    
  13 C13            7.0632     1.1710    -1.2722 C.ar    
  14 C14            5.9916     1.9446    -0.8696 C.ar    
  15 O15            3.5294     3.3354    -0.9371 O.3     
  16 C16            3.6874     4.4829    -0.2480 C.2     
  17 C17            3.9335     4.1905     1.1635 C.ar    
  18 C18            3.9224     2.7929     1.3303 C.ar    
  19 C19            4.1543     5.0402     2.2513 C.ar    
  20 C20            4.3587     4.4380     3.4834 C.ar    
  21 C21            4.3463     3.0656     3.6361 C.ar    
  22 C22            4.1273     2.2096     2.5605 C.ar    
  23 O23            3.6336     5.5969    -0.7291 O.2     
  24 Cl24           8.3088    -1.1815    -1.7683 Cl      
  25 Cl25          -1.4892    -0.8928     0.0122 Cl      
  26 H26           -0.9592     1.9069     0.0169 H       
  27 H27            1.2219    -1.7578    -0.0196 H       
  28 H28            1.1532     3.1666     0.0070 H       
  29 H29            5.7153    -1.8902    -0.8352 H       
  30 H30            7.9788     1.6435    -1.5960 H       
  31 H31            6.0714     3.0216    -0.8806 H       
  32 H32            4.1656     6.1142     2.1374 H       
  33 H33            4.5330     5.0603     4.3487 H       
  34 H34            4.5113     2.6448     4.6169 H       
  35 H35            4.1189     1.1369     2.6852 H       
@<TRIPOS>BOND
   1    1    2 ar
   2    1    6 ar
   3    1   26 1
   4    2    3 ar
   5    2   25 1
   6    3    4 ar
   7    3   27 1
   8    4    5 ar
   9    4    7 1
  10    5    6 ar
  11    5   10 1
  12    6   28 1
  13    7    8 1
  14    8    9 ar
  15    8   11 ar
  16    9   10 1
  17    9   14 ar
  18   10   15 1
  19   10   18 1
  20   11   12 ar
  21   11   29 1
  22   12   13 ar
  23   12   24 1
  24   13   14 ar
  25   13   30 1
  26   14   31 1
  27   15   16 1
  28   16   17 1
  29   16   23 2
  30   17   18 ar
  31   17   19 ar
  32   18   22 ar
  33   19   20 ar
  34   19   32 1
  35   20   21 ar
  36   20   33 1
  37   21   22 ar
  38   21   34 1
  39   22   35 1

#	End of record

