#	Name: ASD00111044
#	Creating user name:	WinNT
#	Creation time:	15. 06. 2019 18:30

#	Modifying user name:	WinNT
#	Modification time:	15. 06. 2019 18:30

#	Program:	/corina/corina34_cracker 3.40 0067  02.08.2006

@<TRIPOS>MOLECULE
ASD00111044
  37   39    0    0    0
SMALL
NO_CHARGES


@<TRIPOS>ATOM
   1 C1            -0.0168     1.3902     0.0097 C.ar    
   2 C2             0.0021    -0.0041     0.0020 C.ar    
   3 C3            -1.1984    -0.7134     0.0091 C.ar    
   4 C4            -2.3953    -0.0258     0.0235 C.ar    
   5 C5            -2.4089     1.3489     0.0321 C.ar    
   6 C6            -1.2242     2.0632     0.0306 C.ar    
   7 C7            -3.7015    -0.7932     0.0295 C.3     
   8 C8            -4.3634    -0.6057     1.3981 C.3     
   9 N9            -5.1383     0.6238     1.4342 N.3     
  10 C10           -4.3879     1.8687     1.4149 C.3     
  11 C11           -3.7309     2.0889     0.0495 C.3     
  12 C12           -3.4883     3.5833    -0.1711 C.3     
  13 C13            1.2955    -0.7305    -0.0141 C.ar    
  14 C14            2.1665    -0.6348     1.0723 C.ar    
  15 C15            1.6429    -1.5156    -1.1110 C.ar    
  16 C16            2.8474    -2.1899    -1.1208 C.ar    
  17 C17            3.7099    -2.0880    -0.0443 C.ar    
  18 C18            3.3699    -1.3148     1.0507 C.ar    
  19 F19            1.8347     0.1209     2.1419 F       
  20 Cl20           1.4740     2.2796     0.0002 Cl      
  21 H21           -1.1918    -1.7934     0.0029 H       
  22 H22           -1.2425     3.1430     0.0374 H       
  23 H23           -4.3572    -0.4083    -0.7516 H       
  24 H24           -3.5064    -1.8517    -0.1424 H       
  25 H25           -5.0227    -1.4509     1.5962 H       
  26 H26           -3.5919    -0.5659     2.1671 H       
  27 H27           -5.8534     0.6216     0.7223 H       
  28 H28           -5.0635     2.6978     1.6255 H       
  29 H29           -3.6150     1.8333     2.1827 H       
  30 H30           -4.3788     1.7014    -0.7367 H       
  31 H31           -2.8319     3.9642     0.6113 H       
  32 H32           -3.0206     3.7358    -1.1438 H       
  33 H33           -4.4394     4.1146    -0.1379 H       
  34 H34            0.9708    -1.5970    -1.9525 H       
  35 H35            3.1169    -2.7990    -1.9710 H       
  36 H36            4.6509    -2.6180    -0.0570 H       
  37 H37            4.0474    -1.2385     1.8883 H       
@<TRIPOS>BOND
   1    1    2 ar
   2    1   20 1
   3    1    6 ar
   4    2    3 ar
   5    2   13 1
   6    3    4 ar
   7    3   21 1
   8    4    5 ar
   9    4    7 1
  10    5    6 ar
  11    5   11 1
  12    6   22 1
  13    7    8 1
  14    7   23 1
  15    7   24 1
  16    8    9 1
  17    8   25 1
  18    8   26 1
  19    9   10 1
  20    9   27 1
  21   10   11 1
  22   10   28 1
  23   10   29 1
  24   11   12 1
  25   11   30 1
  26   12   31 1
  27   12   32 1
  28   12   33 1
  29   13   14 ar
  30   13   15 ar
  31   14   19 1
  32   14   18 ar
  33   15   16 ar
  34   15   34 1
  35   16   17 ar
  36   16   35 1
  37   17   18 ar
  38   17   36 1
  39   18   37 1

#	End of record

