#	Name: ASD01913862
#	Creating user name:	WinNT
#	Creation time:	15. 06. 2019 20:02

#	Modifying user name:	WinNT
#	Modification time:	15. 06. 2019 20:02

#	Program:	/corina/corina34_cracker 3.40 0067  02.08.2006

@<TRIPOS>MOLECULE
ASD01913862
  43   45    0    0    0
SMALL
NO_CHARGES


@<TRIPOS>ATOM
   1 C1            -0.0176     1.4278     0.0039 C.ar    
   2 C2             0.0019    -0.0041    -0.0022 C.1     
   3 C3             0.0178    -1.1779    -0.0072 C.1     
   4 C4             0.0373    -2.6098    -0.0133 C.ar    
   5 C5            -1.1606    -3.3385     0.0313 C.ar    
   6 C6             0.1561    -5.3344    -0.0290 C.ar    
   7 N7             1.2696    -4.6187    -0.0761 N.ar    
   8 C8             1.2491    -3.3021    -0.0695 C.ar    
   9 C9            -1.0901    -4.7171     0.0229 C.ar    
  10 C10            1.1800     2.1462    -0.0407 C.ar    
  11 C11            1.1549     3.5254    -0.0351 C.ar    
  12 C12           -1.2347     2.1129     0.0486 C.ar    
  13 C13           -0.0522     4.1989     0.0150 C.ar    
  14 N14            0.2332    -6.7251    -0.0385 N.am    
  15 C15           -1.2453     3.4941     0.0537 C.ar    
  16 C16            0.3814    -7.3507     1.1298 C.2     
  17 C17            0.5265    -8.8398     1.2603 C.3     
  18 C18            0.0499    -9.5239    -0.0234 C.3     
  19 C19            0.7078    -8.8239    -1.2187 C.3     
  20 C20            0.1410    -7.4056    -1.3241 C.3     
  21 C21            0.4566   -10.9988    -0.0026 C.3     
  22 C22           -1.4718    -9.4100    -0.1334 C.3     
  23 O23            0.4005    -6.6814     2.1409 O.2     
  24 F24           -2.4202     4.1592     0.1025 F       
  25 H25           -2.1144    -2.8334     0.0715 H       
  26 H26            2.1779    -2.7524    -0.1084 H       
  27 H27           -1.9921    -5.3101     0.0566 H       
  28 H28            2.1238     1.6225    -0.0792 H       
  29 H29            2.0804     4.0810    -0.0696 H       
  30 H30           -2.1643     1.5640     0.0787 H       
  31 H31           -0.0655     5.2788     0.0199 H       
  32 H32            1.5734    -9.0876     1.4354 H       
  33 H33           -0.0726    -9.1896     2.1009 H       
  34 H34            1.7865    -8.7803    -1.0686 H       
  35 H35            0.4852    -9.3744    -2.1328 H       
  36 H36           -0.9017    -7.4566    -1.6377 H       
  37 H37            0.7099    -6.8444    -2.0655 H       
  38 H38            0.0021   -11.4888     0.8585 H       
  39 H39            0.1157   -11.4826    -0.9179 H       
  40 H40            1.5417   -11.0755     0.0666 H       
  41 H41           -1.7567    -8.3581    -0.1572 H       
  42 H42           -1.8076    -9.8981    -1.0483 H       
  43 H43           -1.9354    -9.8926     0.7270 H       
@<TRIPOS>BOND
   1    1    2 1
   2    1   10 ar
   3    1   12 ar
   4    2    3 3
   5    3    4 1
   6    4    5 ar
   7    4    8 ar
   8    5    9 ar
   9    5   25 1
  10    6    7 ar
  11    6   14 1
  12    6    9 ar
  13    7    8 ar
  14    8   26 1
  15    9   27 1
  16   10   11 ar
  17   10   28 1
  18   11   13 ar
  19   11   29 1
  20   12   15 ar
  21   12   30 1
  22   13   15 ar
  23   13   31 1
  24   14   16 am
  25   14   20 1
  26   15   24 1
  27   16   17 1
  28   16   23 2
  29   17   18 1
  30   17   32 1
  31   17   33 1
  32   18   19 1
  33   18   21 1
  34   18   22 1
  35   19   20 1
  36   19   34 1
  37   19   35 1
  38   20   36 1
  39   20   37 1
  40   21   38 1
  41   21   39 1
  42   21   40 1
  43   22   41 1
  44   22   42 1
  45   22   43 1

#	End of record

