#	Name: ASD03090547
#	Creating user name:	WinNT
#	Creation time:	15. 06. 2019 20:29

#	Modifying user name:	WinNT
#	Modification time:	15. 06. 2019 20:29

#	Program:	/corina/corina34_cracker 3.40 0067  02.08.2006

@<TRIPOS>MOLECULE
ASD03090547
  42   44    0    0    0
SMALL
NO_CHARGES


@<TRIPOS>ATOM
   1 C1            -0.0187     1.5020     0.0192 C.2     
   2 C2             0.0008    -0.0048     0.0174 C.3     
   3 O3             1.0237     2.1221     0.0154 O.2     
   4 N4            -1.1946     2.1607     0.0195 N.am    
   5 C5            -2.1787     4.3018    -0.5315 C.ar    
   6 C6            -1.2153     3.5574     0.1329 C.ar    
   7 C7            -0.2688     4.2160     0.9151 C.ar    
   8 C8            -0.3280     5.5958     0.9983 C.ar    
   9 C9            -1.3216     6.2740     0.3046 C.ar    
  10 N10           -2.2044     5.6167    -0.4283 N.ar    
  11 O11           -1.3876     7.6278     0.3802 O.3     
  12 C12           -2.4318     8.2685    -0.3555 C.3     
  13 C13           -2.3462     9.7821    -0.1495 C.3     
  14 F14           -1.1057    10.2448    -0.6015 F       
  15 F15           -3.3685    10.4093    -0.8698 F       
  16 F16           -2.4861    10.0763     1.2110 F       
  17 N17            5.3293    -1.8139     0.2655 N.pl3   
  18 C18            5.4949    -1.8695     1.6227 C.2     
  19 C19            4.3652    -1.4850     2.2376 C.2     
  20 C20            3.3971    -1.1564     1.1885 C.ar    
  21 C21            2.0749    -0.7076     1.1940 C.ar    
  22 C22            1.4280    -0.4887     0.0107 C.ar    
  23 C23            2.0748    -0.7088    -1.1979 C.ar    
  24 C24            3.3788    -1.1519    -1.2264 C.ar    
  25 C25            4.0568    -1.3814    -0.0334 C.ar    
  26 C26            6.7581    -2.2992     2.3232 C.3     
  27 H27           -0.5044    -0.3758     0.9091 H       
  28 H28           -0.5121    -0.3738    -0.8708 H       
  29 H29           -2.0265     1.6681    -0.0589 H       
  30 H30           -2.9134     3.7997    -1.1435 H       
  31 H31            0.4929     3.6624     1.4441 H       
  32 H32            0.3895     6.1387     1.5956 H       
  33 H33           -2.3228     8.0393    -1.4155 H       
  34 H34           -3.3983     7.9080    -0.0033 H       
  35 H35            6.0085    -2.0415    -0.3885 H       
  36 H36            4.2013    -1.4287     3.3036 H       
  37 H37            1.5651    -0.5351     2.1303 H       
  38 H38            1.5502    -0.5312    -2.1251 H       
  39 H39            3.8731    -1.3205    -2.1717 H       
  40 H40            7.3936    -1.4299     2.4919 H       
  41 H41            6.5055    -2.7558     3.2802 H       
  42 H42            7.2887    -3.0226     1.7042 H       
@<TRIPOS>BOND
   1    1    2 1
   2    1    3 2
   3    1    4 am
   4    2   22 1
   5    2   27 1
   6    2   28 1
   7    4    6 1
   8    4   29 1
   9    5    6 ar
  10    5   10 ar
  11    5   30 1
  12    6    7 ar
  13    7    8 ar
  14    7   31 1
  15    8    9 ar
  16    8   32 1
  17    9   10 ar
  18    9   11 1
  19   11   12 1
  20   12   13 1
  21   12   33 1
  22   12   34 1
  23   13   14 1
  24   13   15 1
  25   13   16 1
  26   17   18 1
  27   17   25 1
  28   17   35 1
  29   18   19 2
  30   18   26 1
  31   19   20 1
  32   19   36 1
  33   20   21 ar
  34   20   25 ar
  35   21   22 ar
  36   21   37 1
  37   22   23 ar
  38   23   24 ar
  39   23   38 1
  40   24   25 ar
  41   24   39 1
  42   26   40 1
  43   26   41 1
  44   26   42 1

#	End of record

