#	Name: ASD00431211
#	Creating user name:	WinNT
#	Creation time:	15. 06. 2019 18:35

#	Modifying user name:	WinNT
#	Modification time:	15. 06. 2019 18:35

#	Program:	/corina/corina34_cracker 3.40 0067  02.08.2006

@<TRIPOS>MOLECULE
ASD00431211
  48   50    0    0    0
SMALL
NO_CHARGES


@<TRIPOS>ATOM
   1 C1            -0.2182     1.7796    -0.5558 C.2     
   2 C2            -0.2487     0.2795    -0.6966 C.3     
   3 O3             0.8441     2.3624    -0.5036 O.2     
   4 N4            -1.3716     2.4742    -0.4935 N.am    
   5 C5            -1.3420     3.9325    -0.3567 C.3     
   6 C6            -1.2025     4.5718    -1.7397 C.3     
   7 O7            -3.8553     3.9368     0.0480 O.3     
   8 N8            -4.6890     4.5060     0.7134 N.2     
   9 C9            -4.1443     5.4204     1.4822 C.2     
  10 C10           -2.7446     5.3752     1.2171 C.2     
  11 C11           -2.6207     4.4026     0.2874 C.2     
  12 S12           -4.0841     7.5353     3.4497 S.3     
  13 C13           -5.6103     7.9605     4.0917 C.2     
  14 N14           -6.5419     7.2311     3.5590 N.2     
  15 C15           -6.1689     6.3404     2.6666 C.2     
  16 C16           -4.8406     6.3143     2.4294 C.2     
  17 O17           -5.8175     8.9214     5.0233 O.3     
  18 C18           -7.1002     9.2150     5.3626 C.ar    
  19 C19           -7.8717     8.2792     6.0351 C.ar    
  20 C20           -9.1795     8.5819     6.3803 C.ar    
  21 C21           -9.7138     9.8202     6.0523 C.ar    
  22 C22           -8.9434    10.7507     5.3819 C.ar    
  23 C23           -7.6374    10.4536     5.0417 C.ar    
  24 O24           -9.9382     7.6667     7.0389 O.3     
  25 C25          -11.2497     8.0746     7.4333 C.3     
  26 C26          -12.1320     6.8393     7.6248 C.3     
  27 C27          -11.1681     8.8518     8.7487 C.3     
  28 H28           -0.2536    -0.1782     0.2926 H       
  29 H29           -1.1470    -0.0164    -1.2383 H       
  30 H30            0.6325    -0.0518    -1.2459 H       
  31 H31           -2.2212     2.0085    -0.5392 H       
  32 H32           -0.4944     4.2220     0.2646 H       
  33 H33           -1.1804     5.6568    -1.6379 H       
  34 H34           -0.2776     4.2317    -2.2055 H       
  35 H35           -2.0500     4.2823    -2.3609 H       
  36 H36           -1.9643     5.9783     1.6572 H       
  37 H37           -6.8663     5.6850     2.1661 H       
  38 H38           -7.4543     7.3160     6.2891 H       
  39 H39          -10.7328    10.0564     6.3211 H       
  40 H40           -9.3611    11.7136     5.1273 H       
  41 H41           -7.0356    11.1845     4.5219 H       
  42 H42          -11.6798     8.7120     6.6608 H       
  43 H43          -11.7019     6.2018     8.3973 H       
  44 H44          -13.1324     7.1504     7.9257 H       
  45 H45          -12.1901     6.2856     6.6877 H       
  46 H46          -10.7381     8.2143     9.5213 H       
  47 H47          -10.5396     9.7318     8.6123 H       
  48 H48          -12.1685     9.1628     9.0496 H       
@<TRIPOS>BOND
   1    1    2 1
   2    1    3 2
   3    1    4 am
   4    2   28 1
   5    2   29 1
   6    2   30 1
   7    4    5 1
   8    4   31 1
   9    5    6 1
  10    5   11 1
  11    5   32 1
  12    6   33 1
  13    6   34 1
  14    6   35 1
  15    7    8 1
  16    7   11 1
  17    8    9 2
  18    9   10 1
  19    9   16 1
  20   10   11 2
  21   10   36 1
  22   12   13 1
  23   12   16 1
  24   13   14 2
  25   13   17 1
  26   14   15 1
  27   15   16 2
  28   15   37 1
  29   17   18 1
  30   18   19 ar
  31   18   23 ar
  32   19   20 ar
  33   19   38 1
  34   20   21 ar
  35   20   24 1
  36   21   22 ar
  37   21   39 1
  38   22   23 ar
  39   22   40 1
  40   23   41 1
  41   24   25 1
  42   25   26 1
  43   25   27 1
  44   25   42 1
  45   26   43 1
  46   26   44 1
  47   26   45 1
  48   27   46 1
  49   27   47 1
  50   27   48 1

#	End of record

