#	Name: ASD09120019
#	Creating user name:	WinNT
#	Creation time:	15. 06. 2019 21:21

#	Modifying user name:	WinNT
#	Modification time:	15. 06. 2019 21:21

#	Program:	/corina/corina34_cracker 3.40 0067  02.08.2006

@<TRIPOS>MOLECULE
ASD09120019
  34   36    0    0    0
SMALL
NO_CHARGES


@<TRIPOS>ATOM
   1 C1             0.0101     1.3757    -0.0529 C.ar    
   2 C2             0.0384    -0.0027    -0.0769 C.ar    
   3 C3             1.0843    -0.6879     0.5170 C.ar    
   4 C4             2.1082     0.0032     1.1381 C.ar    
   5 C5             2.0932     1.3843     1.1699 C.ar    
   6 C6             1.0403     2.0815     0.5722 C.ar    
   7 N7            -1.0530    -0.7518    -0.7392 N.pl3   
   8 O8            -1.9744    -0.1507    -1.2620 O.2     
   9 O9            -1.0298    -1.9694    -0.7614 O.2     
  10 C10            1.0168     3.5583     0.6014 C.2     
  11 O11            1.9151     4.1699     1.1464 O.2     
  12 N12           -0.0005     4.2276     0.0238 N.am    
  13 C13           -0.0656     5.6179     0.1218 C.ar    
  14 Cl14           3.3790     2.2510     1.9505 Cl      
  15 C15            1.0290     7.7433     0.4095 C.ar    
  16 C16            1.0830     6.3563     0.3106 C.ar    
  17 C17           -1.3072     6.2812     0.0226 C.ar    
  18 C18           -0.1560     8.4087     0.3227 C.ar    
  19 C19           -2.5002     5.5684    -0.1745 C.ar    
  20 C20           -3.6803     6.2413    -0.2652 C.ar    
  21 C21           -3.7229     7.6306    -0.1652 C.ar    
  22 C22           -2.5862     8.3543     0.0259 C.ar    
  23 C23           -1.3492     7.6937     0.1244 C.ar    
  24 H24           -0.8047     1.9085    -0.5204 H       
  25 H25            1.1004    -1.7676     0.4955 H       
  26 H26            2.9212    -0.5376     1.5995 H       
  27 H27           -0.6874     3.7428    -0.4599 H       
  28 H28            1.9417     8.3011     0.5581 H       
  29 H29            2.0357     5.8527     0.3829 H       
  30 H30           -0.1780     9.4855     0.4018 H       
  31 H31           -2.4820     4.4915    -0.2541 H       
  32 H32           -4.5967     5.6904    -0.4172 H       
  33 H33           -4.6719     8.1406    -0.2409 H       
  34 H34           -2.6342     9.4306     0.1012 H       
@<TRIPOS>BOND
   1    1    2 ar
   2    1    6 ar
   3    1   24 1
   4    2    3 ar
   5    2    7 1
   6    3    4 ar
   7    3   25 1
   8    4    5 ar
   9    4   26 1
  10    5    6 ar
  11    5   14 1
  12    6   10 1
  13    7    8 2
  14    7    9 2
  15   10   11 2
  16   10   12 am
  17   12   13 1
  18   12   27 1
  19   13   17 ar
  20   13   16 ar
  21   15   16 ar
  22   15   18 ar
  23   15   28 1
  24   16   29 1
  25   17   19 ar
  26   17   23 ar
  27   18   23 ar
  28   18   30 1
  29   19   20 ar
  30   19   31 1
  31   20   21 ar
  32   20   32 1
  33   21   22 ar
  34   21   33 1
  35   22   23 ar
  36   22   34 1

#	End of record

