#	Name: ASD03092100
#	Creating user name:	WinNT
#	Creation time:	15. 06. 2019 20:31

#	Modifying user name:	WinNT
#	Modification time:	15. 06. 2019 20:31

#	Program:	/corina/corina34_cracker 3.40 0067  02.08.2006

@<TRIPOS>MOLECULE
ASD03092100
  43   45    0    0    0
SMALL
NO_CHARGES


@<TRIPOS>ATOM
   1 N1            -0.1544     0.9708     0.1743 N.am    
   2 C2            -0.3503    -0.3820     0.0710 C.2     
   3 C3            -1.6939    -0.5924    -0.0247 C.2     
   4 C4            -2.3292     0.6591     0.0214 C.2     
   5 N5            -1.4113     1.5885     0.1452 N.2     
   6 N6            -3.7075     0.8775    -0.0474 N.pl3   
   7 C7            -4.2206     2.1697     0.1168 C.ar    
   8 C8            -5.5946     2.3696     0.1851 C.ar    
   9 C9            -6.0985     3.6490     0.3481 C.ar    
  10 C10           -5.2329     4.7279     0.4428 C.ar    
  11 C11           -3.3576     3.2527     0.2175 C.ar    
  12 C12            0.7016    -1.4213     0.0640 C.ar    
  13 C13            1.0347     1.5947     0.2893 C.2     
  14 C14            0.5051    -2.6480     0.7088 C.ar    
  15 C15            1.5131    -3.5889     0.6773 C.ar    
  16 N16            2.6488    -3.3446     0.0517 N.ar    
  17 C17            2.8750    -2.2021    -0.5684 C.ar    
  18 C18            1.9193    -1.2079    -0.5924 C.ar    
  19 C19            4.1930    -1.9830    -1.2654 C.3     
  20 C20           -3.8648     4.5283     0.3743 C.ar    
  21 F21           -7.4335     3.8459     0.4143 F       
  22 N22            1.0940     2.9410     0.2701 N.am    
  23 O23            2.0534     0.9433     0.4103 O.2     
  24 C24            2.3865     3.6192     0.3951 C.3     
  25 C25            1.3148    -4.9139     1.3674 C.3     
  26 F26           -6.4369     1.3174     0.0922 F       
  27 F27           -5.7254     5.9759     0.6018 F       
  28 H28           -2.1825    -1.5508    -0.1195 H       
  29 H29           -4.3090     0.1338    -0.2090 H       
  30 H30           -2.2897     3.0985     0.1691 H       
  31 H31           -0.4217    -2.8545     1.2235 H       
  32 H32            2.1113    -0.2751    -1.1019 H       
  33 H33            4.1184    -2.3221    -2.2986 H       
  34 H34            4.4411    -0.9217    -1.2483 H       
  35 H35            4.9729    -2.5467    -0.7534 H       
  36 H36           -3.1928     5.3705     0.4476 H       
  37 H37            0.2808     3.4610     0.1736 H       
  38 H38            2.8484     3.3488     1.3447 H       
  39 H39            3.0371     3.3152    -0.4250 H       
  40 H40            2.2358     4.6981     0.3586 H       
  41 H41            0.8743    -5.6251     0.6687 H       
  42 H42            2.2774    -5.2917     1.7120 H       
  43 H43            0.6493    -4.7831     2.2207 H       
@<TRIPOS>BOND
   1    1    2 1
   2    1   13 am
   3    1    5 1
   4    2    3 2
   5    2   12 1
   6    3    4 1
   7    3   28 1
   8    4    5 2
   9    4    6 1
  10    6    7 1
  11    6   29 1
  12    7    8 ar
  13    7   11 ar
  14    8    9 ar
  15    8   26 1
  16    9   10 ar
  17    9   21 1
  18   10   20 ar
  19   10   27 1
  20   11   20 ar
  21   11   30 1
  22   12   14 ar
  23   12   18 ar
  24   13   22 am
  25   13   23 2
  26   14   15 ar
  27   14   31 1
  28   15   16 ar
  29   15   25 1
  30   16   17 ar
  31   17   18 ar
  32   17   19 1
  33   18   32 1
  34   19   33 1
  35   19   34 1
  36   19   35 1
  37   20   36 1
  38   22   24 1
  39   22   37 1
  40   24   38 1
  41   24   39 1
  42   24   40 1
  43   25   41 1
  44   25   42 1
  45   25   43 1

#	End of record

