#	Name: ASD07930064
#	Creating user name:	WinNT
#	Creation time:	15. 06. 2019 21:11

#	Modifying user name:	WinNT
#	Modification time:	15. 06. 2019 21:11

#	Program:	/corina/corina34_cracker 3.40 0067  02.08.2006

@<TRIPOS>MOLECULE
ASD07930064
  66   70    0    0    0
SMALL
NO_CHARGES


@<TRIPOS>ATOM
   1 C1             0.7926    -0.4091    -0.6663 C.ar    
   2 C2            -0.3325     0.1735    -0.0979 C.ar    
   3 C3             2.0062     0.2479    -0.6239 C.ar    
   4 C4             2.1017     1.4912    -0.0128 C.ar    
   5 C5             0.9762     2.0739     0.5558 C.ar    
   6 C6            -0.2370     1.4171     0.5133 C.ar    
   7 N7             3.3324     2.1572     0.0306 N.pl3   
   8 C8             1.0797     3.4234     1.2185 C.3     
   9 C9             4.5127     1.4377    -0.0577 C.ar    
  10 N10            4.4626     0.1132    -0.0638 N.ar    
  11 N11            5.6612     2.0905    -0.1393 N.ar    
  12 C12            6.8127     1.4283    -0.2254 C.ar    
  13 C13            6.7916     0.0313    -0.2283 C.ar    
  14 C14            5.5679    -0.6098    -0.1468 C.ar    
  15 C15            8.0982     2.1621    -0.3172 C.ar    
  16 C16            9.2940     1.4738    -0.5114 C.ar    
  17 N17           10.4365     2.1246    -0.5932 N.ar    
  18 C18           10.4977     3.4386    -0.4965 C.ar    
  19 C19            9.3548     4.1935    -0.3036 C.ar    
  20 C20            8.1293     3.5562    -0.2161 C.ar    
  21 N21           -1.5635    -0.4927    -0.1414 N.am    
  22 C22           -2.7080     0.2122    -0.2408 C.2     
  23 O23           -2.6682     1.4182    -0.3888 O.2     
  24 C24           -4.0115    -0.4812    -0.1699 C.ar    
  25 C25           -5.1987     0.2458    -0.2725 C.ar    
  26 C26           -6.4119    -0.4074    -0.2055 C.ar    
  27 C27           -6.4536    -1.7801    -0.0366 C.ar    
  28 C28           -5.2806    -2.5066     0.0659 C.ar    
  29 C29           -4.0606    -1.8665    -0.0058 C.ar    
  30 C30           -7.7826    -2.4868     0.0367 C.3     
  31 N31           -8.2000    -2.8861    -1.3139 N.3     
  32 C32           -9.3654    -3.7799    -1.2623 C.3     
  33 C33           -9.8167    -4.1081    -2.6875 C.3     
  34 N34           -8.7068    -4.7363    -3.4176 N.3     
  35 C35           -7.5414    -3.8425    -3.4692 C.3     
  36 C36           -7.0901    -3.5143    -2.0440 C.3     
  37 O37           -9.1225    -5.1339    -4.7627 O.3     
  38 H38            0.7192    -1.3780    -1.1376 H       
  39 H39            2.8813    -0.2054    -1.0657 H       
  40 H40           -1.1121     1.8703     0.9551 H       
  41 H41            3.3585     3.1225     0.1225 H       
  42 H42            0.8886     4.2049     0.4832 H       
  43 H43            0.3447     3.4916     2.0206 H       
  44 H44            2.0806     3.5497     1.6312 H       
  45 H45            7.7086    -0.5351    -0.2974 H       
  46 H46            5.5158    -1.6886    -0.1463 H       
  47 H47            9.2843     0.3971    -0.5954 H       
  48 H48           11.4552     3.9329    -0.5686 H       
  49 H49            9.4175     5.2689    -0.2259 H       
  50 H50            7.2210     4.1209    -0.0658 H       
  51 H51           -1.5925    -1.4613    -0.0999 H       
  52 H52           -5.1675     1.3174    -0.4038 H       
  53 H53           -7.3312     0.1538    -0.2848 H       
  54 H54           -5.3201    -3.5778     0.1980 H       
  55 H55           -3.1457    -2.4348     0.0739 H       
  56 H56           -7.6888    -3.3727     0.6648 H       
  57 H57           -8.5279    -1.8158     0.4639 H       
  58 H58           -9.0950    -4.7006    -0.7454 H       
  59 H59          -10.1779    -3.2876    -0.7279 H       
  60 H60          -10.6631    -4.7940    -2.6520 H       
  61 H61          -10.1130    -3.1904    -3.1955 H       
  62 H62           -6.7289    -4.3348    -4.0036 H       
  63 H63           -7.8118    -2.9218    -3.9861 H       
  64 H64           -6.2437    -2.8283    -2.0795 H       
  65 H65           -6.7938    -4.4320    -1.5360 H       
  66 H66           -8.4232    -5.5531    -5.2827 H       
@<TRIPOS>BOND
   1    1    2 ar
   2    1    3 ar
   3    1   38 1
   4    2   21 1
   5    2    6 ar
   6    3    4 ar
   7    3   39 1
   8    4    5 ar
   9    4    7 1
  10    5    6 ar
  11    5    8 1
  12    6   40 1
  13    7    9 1
  14    7   41 1
  15    8   42 1
  16    8   43 1
  17    8   44 1
  18    9   10 ar
  19    9   11 ar
  20   10   14 ar
  21   11   12 ar
  22   12   13 ar
  23   12   15 1
  24   13   14 ar
  25   13   45 1
  26   14   46 1
  27   15   16 ar
  28   15   20 ar
  29   16   17 ar
  30   16   47 1
  31   17   18 ar
  32   18   19 ar
  33   18   48 1
  34   19   20 ar
  35   19   49 1
  36   20   50 1
  37   21   22 am
  38   21   51 1
  39   22   23 2
  40   22   24 1
  41   24   25 ar
  42   24   29 ar
  43   25   26 ar
  44   25   52 1
  45   26   27 ar
  46   26   53 1
  47   27   28 ar
  48   27   30 1
  49   28   29 ar
  50   28   54 1
  51   29   55 1
  52   30   31 1
  53   30   56 1
  54   30   57 1
  55   31   32 1
  56   31   36 1
  57   32   33 1
  58   32   58 1
  59   32   59 1
  60   33   34 1
  61   33   60 1
  62   33   61 1
  63   34   35 1
  64   34   37 1
  65   35   36 1
  66   35   62 1
  67   35   63 1
  68   36   64 1
  69   36   65 1
  70   37   66 1

#	End of record

