#	Name: ASD01814815
#	Creating user name:	WinNT
#	Creation time:	15. 06. 2019 19:33

#	Modifying user name:	WinNT
#	Modification time:	15. 06. 2019 19:33

#	Program:	/corina/corina34_cracker 3.40 0067  02.08.2006

@<TRIPOS>MOLECULE
ASD01814815
  58   61    0    0    0
SMALL
NO_CHARGES


@<TRIPOS>ATOM
   1 C1             6.6024   -11.6356    -1.0536 C.3     
   2 N2             5.6059   -10.5746    -1.2192 N.am    
   3 C3             4.5425   -10.5140    -0.3934 C.2     
   4 O4             4.4103   -11.3398     0.4890 O.2     
   5 C5             3.5378    -9.4444    -0.5603 C.ar    
   6 C6             3.6833    -8.4976    -1.5761 C.ar    
   7 C7             2.7417    -7.5014    -1.7266 C.ar    
   8 C8             1.6534    -7.4369    -0.8737 C.ar    
   9 C9             0.6297    -6.3445    -1.0461 C.3     
  10 C10           -0.5273    -6.8641    -1.8600 C.ar    
  11 C11           -1.6485    -7.3474    -1.2219 C.ar    
  12 C12           -2.7160    -7.8265    -1.9785 C.ar    
  13 C13           -3.9381    -8.3537    -1.3532 C.2     
  14 O14           -4.0635    -8.3914    -0.1431 O.2     
  15 N15           -4.9182    -8.7949    -2.1757 N.am    
  16 C16           -4.7635    -8.7458    -3.5246 C.2     
  17 N17           -3.6967    -8.2865    -4.1047 N.2     
  18 C18           -2.6451    -7.8149    -3.3891 C.ar    
  19 C19           -1.4974    -7.3207    -4.0125 C.ar    
  20 C20           -1.4023    -7.2993    -5.5164 C.3     
  21 C21           -0.4563    -6.8463    -3.2469 C.ar    
  22 C22            0.7784    -6.3069    -3.9220 C.3     
  23 C23           -6.1571    -9.3307    -1.6063 C.3     
  24 H24           -6.1045    -9.2929    -0.5182 H       
  25 C25           -7.3467    -8.4964    -2.0911 C.3     
  26 C26           -8.6427    -9.1104    -1.5552 C.3     
  27 O27           -8.7404   -10.4682    -1.9900 O.3     
  28 C28           -7.6798   -11.3067    -1.5272 C.3     
  29 C29           -6.3440   -10.7817    -2.0601 C.3     
  30 H30           -6.3453   -10.8255    -3.1492 H       
  31 O31           -5.2763   -11.5829    -1.5501 O.3     
  32 C32            1.5005    -8.3697     0.1351 C.ar    
  33 C33            2.4330    -9.3782     0.2947 C.ar    
  34 F34            2.2803   -10.2933     1.2768 F       
  35 H35            7.0445   -11.5670    -0.0597 H       
  36 H36            6.1219   -12.6069    -1.1713 H       
  37 H37            7.3822   -11.5224    -1.8068 H       
  38 H38            5.7114    -9.9158    -1.9233 H       
  39 H39            4.5318    -8.5451    -2.2426 H       
  40 H40            2.8540    -6.7689    -2.5122 H       
  41 H41            0.2711    -6.0249    -0.0676 H       
  42 H42            1.0847    -5.4980    -1.5605 H       
  43 H43           -1.6995    -7.3553    -0.1431 H       
  44 H44           -5.5692    -9.1077    -4.1461 H       
  45 H45           -1.7916    -6.3528    -5.8916 H       
  46 H46           -0.3600    -7.4079    -5.8161 H       
  47 H47           -1.9867    -8.1217    -5.9291 H       
  48 H48            1.5139    -7.1046    -4.0252 H       
  49 H49            0.5156    -5.9251    -4.9085 H       
  50 H50            1.1986    -5.5008    -3.3205 H       
  51 H51           -7.2487    -7.4747    -1.7242 H       
  52 H52           -7.3689    -8.4926    -3.1809 H       
  53 H53           -8.6374    -9.0770    -0.4657 H       
  54 H54           -9.4955    -8.5458    -1.9322 H       
  55 H55           -7.6619   -11.3021    -0.4373 H       
  56 H56           -7.8389   -12.3243    -1.8839 H       
  57 H57           -5.3308   -12.5157    -1.7992 H       
  58 H58            0.6489    -8.3132     0.7969 H       
@<TRIPOS>BOND
   1    1    2 1
   2    1   35 1
   3    1   36 1
   4    1   37 1
   5    2    3 am
   6    2   38 1
   7    3    4 2
   8    3    5 1
   9    5   33 ar
  10    5    6 ar
  11    6    7 ar
  12    6   39 1
  13    7    8 ar
  14    7   40 1
  15    8    9 1
  16    8   32 ar
  17    9   10 1
  18    9   41 1
  19    9   42 1
  20   10   21 ar
  21   10   11 ar
  22   11   12 ar
  23   11   43 1
  24   12   18 ar
  25   12   13 1
  26   13   14 2
  27   13   15 am
  28   15   16 1
  29   15   23 1
  30   16   17 2
  31   16   44 1
  32   17   18 1
  33   18   19 ar
  34   19   20 1
  35   19   21 ar
  36   20   45 1
  37   20   46 1
  38   20   47 1
  39   21   22 1
  40   22   48 1
  41   22   49 1
  42   22   50 1
  43   23   24 1
  44   23   29 1
  45   23   25 1
  46   25   26 1
  47   25   51 1
  48   25   52 1
  49   26   27 1
  50   26   53 1
  51   26   54 1
  52   27   28 1
  53   28   29 1
  54   28   55 1
  55   28   56 1
  56   29   30 1
  57   29   31 1
  58   31   57 1
  59   32   33 ar
  60   32   58 1
  61   33   34 1

#	End of record

