#	Name: ASD01000032
#	Creating user name:	WinNT
#	Creation time:	15. 06. 2019 18:54

#	Modifying user name:	WinNT
#	Modification time:	15. 06. 2019 18:54

#	Program:	/corina/corina34_cracker 3.40 0067  02.08.2006

@<TRIPOS>MOLECULE
ASD01000032
  46   48    0    0    0
SMALL
NO_CHARGES


@<TRIPOS>ATOM
   1 C1             1.4143     0.4258    -1.0093 C.ar    
   2 C2             1.0094    -0.7961    -0.4927 C.ar    
   3 C3            -0.3328    -1.0441    -0.2788 C.ar    
   4 C4            -1.2727    -0.0749    -0.5798 C.ar    
   5 C5            -0.8710     1.1445    -1.0957 C.ar    
   6 C6             0.4703     1.3987    -1.3052 C.ar    
   7 C7            -0.7732    -2.3715     0.2825 C.3     
   8 N8             0.1450    -3.4055    -0.2237 N.am    
   9 C9            -0.8844    -2.2288     1.7869 C.2     
  10 C10           -0.1387    -3.0542     2.5536 C.2     
  11 N11            0.6870    -3.9853     1.9899 N.am    
  12 C12            0.8232    -4.1539     0.6686 C.2     
  13 C13           -1.7394    -1.2640     2.3687 C.2     
  14 O14           -2.9453    -1.6332     2.8491 O.3     
  15 S15            1.8937    -5.3600     0.0939 S.2     
  16 O16           -1.3877    -0.1010     2.4362 O.2     
  17 O17            2.7342     0.6719    -1.2200 O.3     
  18 Br18          -3.1092    -0.4173    -0.2866 Br      
  19 C19           -3.7093    -0.6314     3.5234 C.3     
  20 C20           -5.0662    -1.2112     3.9282 C.3     
  21 C21           -0.2186    -2.9458     4.0545 C.3     
  22 C22            1.4330    -4.8093     2.8418 C.ar    
  23 C23            0.8904    -5.9987     3.3104 C.ar    
  24 C24            1.6289    -6.8093     4.1500 C.ar    
  25 C25            2.9072    -6.4378     4.5241 C.ar    
  26 C26            3.4502    -5.2539     4.0596 C.ar    
  27 C27            2.7190    -4.4416     3.2151 C.ar    
  28 H28            1.7429    -1.5534    -0.2581 H       
  29 H29           -1.6065     1.8996    -1.3308 H       
  30 H30            0.7835     2.3508    -1.7075 H       
  31 H31           -1.7680    -2.5849    -0.1087 H       
  32 H32            0.2588    -3.5449    -1.1768 H       
  33 H33            3.0456     0.4201    -2.1002 H       
  34 H34           -3.1736    -0.3043     4.4146 H       
  35 H35           -3.8613     0.2187     2.8583 H       
  36 H36           -5.6777    -0.4272     4.3747 H       
  37 H37           -5.5698    -1.6069     3.0462 H       
  38 H38           -4.9175    -2.0126     4.6519 H       
  39 H39           -0.9403    -3.6697     4.4332 H       
  40 H40            0.7613    -3.1498     4.4862 H       
  41 H41           -0.5346    -1.9396     4.3298 H       
  42 H42           -0.1081    -6.2892     3.0189 H       
  43 H43            1.2073    -7.7342     4.5151 H       
  44 H44            3.4827    -7.0735     5.1808 H       
  45 H45            4.4487    -4.9663     4.3538 H       
  46 H46            3.1454    -3.5195     2.8488 H       
@<TRIPOS>BOND
   1    1    2 ar
   2    1   17 1
   3    1    6 ar
   4    2    3 ar
   5    2   28 1
   6    3    4 ar
   7    3    7 1
   8    4    5 ar
   9    4   18 1
  10    5    6 ar
  11    5   29 1
  12    6   30 1
  13    7    8 1
  14    7    9 1
  15    7   31 1
  16    8   12 am
  17    8   32 1
  18    9   10 2
  19    9   13 1
  20   10   21 1
  21   10   11 1
  22   11   22 1
  23   11   12 am
  24   12   15 2
  25   13   14 1
  26   13   16 2
  27   14   19 1
  28   17   33 1
  29   19   20 1
  30   19   34 1
  31   19   35 1
  32   20   36 1
  33   20   37 1
  34   20   38 1
  35   21   39 1
  36   21   40 1
  37   21   41 1
  38   22   23 ar
  39   22   27 ar
  40   23   24 ar
  41   23   42 1
  42   24   25 ar
  43   24   43 1
  44   25   26 ar
  45   25   44 1
  46   26   27 ar
  47   26   45 1
  48   27   46 1

#	End of record

