#	Name: ASD01913411
#	Creating user name:	WinNT
#	Creation time:	15. 06. 2019 20:01

#	Modifying user name:	WinNT
#	Modification time:	15. 06. 2019 20:01

#	Program:	/corina/corina34_cracker 3.40 0067  02.08.2006

@<TRIPOS>MOLECULE
ASD01913411
  38   41    0    0    0
SMALL
NO_CHARGES


@<TRIPOS>ATOM
   1 C1            -0.3597    -0.7339    -2.2463 C.ar    
   2 C2            -0.6984    -0.0501    -1.0830 C.ar    
   3 C3            -0.5581     1.3339    -1.0673 C.ar    
   4 N4            -0.1108     1.9461    -2.1512 N.ar    
   5 C5             0.1997     1.2628    -3.2345 C.ar    
   6 N6             0.0805    -0.0486    -3.2886 N.ar    
   7 C7            -1.1682    -2.0752    -0.0312 C.ar    
   8 C8            -0.0508    -2.7923     0.3739 C.ar    
   9 C9            -0.0606    -4.1757     0.3398 C.ar    
  10 C10           -1.1824    -4.8515    -0.0981 C.ar    
  11 C11           -2.3106    -4.1379    -0.5074 C.ar    
  12 C12           -2.2988    -2.7434    -0.4718 C.ar    
  13 C13           -3.5133    -4.8577    -0.9768 C.2     
  14 N14           -3.5222    -6.2050    -1.0102 N.am    
  15 C15           -4.6523    -6.8813    -1.4513 C.2     
  16 O16           -4.4944    -4.2344    -1.3326 O.2     
  17 O17           -1.1550    -0.7170     0.0097 O.3     
  18 Cl18           1.3414    -5.0642     0.8483 Cl      
  19 S19           -6.0966    -6.1344    -1.9796 S.3     
  20 C20           -6.8139    -7.7140    -2.2860 C.2     
  21 C21           -5.9137    -8.6461    -1.9673 C.2     
  22 N22           -4.7636    -8.1707    -1.5276 N.2     
  23 C23           -6.1862   -10.1220    -2.1035 C.3     
  24 C24           -6.8999   -10.8186    -0.9432 C.3     
  25 C25           -7.6444   -10.5601    -2.2546 C.3     
  26 H26           -0.4507    -1.8089    -2.2961 H       
  27 H27           -0.8109     1.9002    -0.1831 H       
  28 H28            0.5618     1.7928    -4.1031 H       
  29 H29            0.8295    -2.2687     0.7166 H       
  30 H30           -1.1870    -5.9311    -0.1244 H       
  31 H31           -3.1688    -2.1863    -0.7868 H       
  32 H32           -2.7393    -6.7024    -0.7263 H       
  33 H33           -7.8087    -7.8963    -2.6650 H       
  34 H34           -5.4306   -10.6917    -2.6443 H       
  35 H35           -6.6140   -11.8467    -0.7209 H       
  36 H36           -7.1723   -10.2094    -0.0813 H       
  37 H37           -8.4065    -9.7809    -2.2555 H       
  38 H38           -7.8482   -11.4182    -2.8952 H       
@<TRIPOS>BOND
   1    1    2 ar
   2    1    6 ar
   3    1   26 1
   4    2    3 ar
   5    2   17 1
   6    3    4 ar
   7    3   27 1
   8    4    5 ar
   9    5    6 ar
  10    5   28 1
  11    7    8 ar
  12    7   12 ar
  13    7   17 1
  14    8    9 ar
  15    8   29 1
  16    9   10 ar
  17    9   18 1
  18   10   11 ar
  19   10   30 1
  20   11   12 ar
  21   11   13 1
  22   12   31 1
  23   13   14 am
  24   13   16 2
  25   14   15 1
  26   14   32 1
  27   15   19 1
  28   15   22 2
  29   19   20 1
  30   20   21 2
  31   20   33 1
  32   21   22 1
  33   21   23 1
  34   23   24 1
  35   23   25 1
  36   23   34 1
  37   24   25 1
  38   24   35 1
  39   24   36 1
  40   25   37 1
  41   25   38 1

#	End of record

