#	Name: ASD03900012
#	Creating user name:	WinNT
#	Creation time:	15. 06. 2019 20:47

#	Modifying user name:	WinNT
#	Modification time:	15. 06. 2019 20:47

#	Program:	/corina/corina34_cracker 3.40 0067  02.08.2006

@<TRIPOS>MOLECULE
ASD03900012
  56   58    0    0    0
SMALL
NO_CHARGES


@<TRIPOS>ATOM
   1 C1            -0.0708     1.5282    -0.0403 C.3     
   2 C2            -0.0933     0.0419     0.2080 C.ar    
   3 C3             1.3521     1.9823    -0.2412 C.ar    
   4 C4            -0.8777     1.8438    -1.2733 C.ar    
   5 C5            -0.6731     2.2555     1.1635 C.3     
   6 C6            -1.2983    -0.6064     0.4067 C.ar    
   7 C7            -1.3217    -1.9686     0.6349 C.ar    
   8 C8            -0.1348    -2.6863     0.6641 C.ar    
   9 C9             1.0729    -2.0336     0.4640 C.ar    
  10 C10            1.0905    -0.6720     0.2310 C.ar    
  11 C11            2.0543     1.5768    -1.3611 C.ar    
  12 C12            3.3589     1.9914    -1.5473 C.ar    
  13 C13            3.9641     2.8157    -0.6098 C.ar    
  14 C14            3.2572     3.2215     0.5128 C.ar    
  15 C15            1.9511     2.8084     0.6918 C.ar    
  16 C16           -1.1360     3.1595    -1.6109 C.ar    
  17 C17           -1.8758     3.4515    -2.7404 C.ar    
  18 C18           -2.3594     2.4233    -3.5364 C.ar    
  19 C19           -2.0985     1.1040    -3.1957 C.ar    
  20 C20           -1.3537     0.8174    -2.0680 C.ar    
  21 O21           -0.1551    -4.0267     0.8889 O.3     
  22 O22            5.2477     3.2246    -0.7906 O.3     
  23 C23            5.4581     4.1873    -1.7026 C.2     
  24 O24           -3.0879     2.7080    -4.6480 O.3     
  25 C25           -0.5479    -4.8095    -0.1287 C.2     
  26 O26            4.5198     4.7150    -2.2514 O.2     
  27 C27            6.8644     4.6096    -2.0417 C.3     
  28 O28           -0.7733    -4.3243    -1.2121 O.2     
  29 C29           -0.7078    -6.2934     0.0803 C.3     
  30 Cl30          -1.2418    -7.0632    -1.4601 Cl      
  31 Cl31           6.8169     5.9103    -3.2894 Cl      
  32 C32           -2.4438     3.3078    -5.6619 C.2     
  33 O33           -1.2919     3.6476    -5.5291 O.2     
  34 C34           -3.1575     3.5573    -6.9655 C.3     
  35 Cl35          -2.0356     4.3712    -8.1187 Cl      
  36 H36           -0.0895     2.0272     2.0553 H       
  37 H37           -0.6568     3.3305     0.9839 H       
  38 H38           -1.7022     1.9270     1.3088 H       
  39 H39           -2.2220    -0.0472     0.3838 H       
  40 H40           -2.2631    -2.4745     0.7907 H       
  41 H41            1.9983    -2.5900     0.4867 H       
  42 H42            2.0304    -0.1635     0.0748 H       
  43 H43            1.5827     0.9352    -2.0907 H       
  44 H44            3.9072     1.6739    -2.4219 H       
  45 H45            3.7262     3.8628     1.2442 H       
  46 H46            1.4003     3.1243     1.5654 H       
  47 H47           -0.7593     3.9596    -0.9909 H       
  48 H48           -2.0779     4.4793    -3.0034 H       
  49 H49           -2.4742     0.3018    -3.8136 H       
  50 H50           -1.1501    -0.2094    -1.8025 H       
  51 H51            7.3575     4.9843    -1.1448 H       
  52 H52            7.4171     3.7540    -2.4297 H       
  53 H53            0.2458    -6.7216     0.3891 H       
  54 H54           -1.4543    -6.4729     0.8541 H       
  55 H55           -3.4861     2.6075    -7.3875 H       
  56 H56           -4.0234     4.1956    -6.7894 H       
@<TRIPOS>BOND
   1    1    2 1
   2    1    3 1
   3    1    4 1
   4    1    5 1
   5    2    6 ar
   6    2   10 ar
   7    3   11 ar
   8    3   15 ar
   9    4   16 ar
  10    4   20 ar
  11    5   36 1
  12    5   37 1
  13    5   38 1
  14    6    7 ar
  15    6   39 1
  16    7    8 ar
  17    7   40 1
  18    8    9 ar
  19    8   21 1
  20    9   10 ar
  21    9   41 1
  22   10   42 1
  23   11   12 ar
  24   11   43 1
  25   12   13 ar
  26   12   44 1
  27   13   14 ar
  28   13   22 1
  29   14   15 ar
  30   14   45 1
  31   15   46 1
  32   16   17 ar
  33   16   47 1
  34   17   18 ar
  35   17   48 1
  36   18   19 ar
  37   18   24 1
  38   19   20 ar
  39   19   49 1
  40   20   50 1
  41   21   25 1
  42   22   23 1
  43   23   26 2
  44   23   27 1
  45   24   32 1
  46   25   28 2
  47   25   29 1
  48   27   31 1
  49   27   51 1
  50   27   52 1
  51   29   30 1
  52   29   53 1
  53   29   54 1
  54   32   33 2
  55   32   34 1
  56   34   35 1
  57   34   55 1
  58   34   56 1

#	End of record

