#	Name: ASD01915990
#	Creating user name:	WinNT
#	Creation time:	15. 06. 2019 20:06

#	Modifying user name:	WinNT
#	Modification time:	15. 06. 2019 20:06

#	Program:	/corina/corina34_cracker 3.40 0067  02.08.2006

@<TRIPOS>MOLECULE
ASD01915990
  41   42    0    0    0
SMALL
NO_CHARGES


@<TRIPOS>ATOM
   1 C1            -0.0187     1.4129     0.1431 C.ar    
   2 C2            -0.0052     0.0090     0.1204 C.ar    
   3 C3             1.2376    -0.6415     0.0548 C.ar    
   4 N4             2.3368     0.0847     0.0173 N.ar    
   5 C5             2.2799     1.4097     0.0406 C.ar    
   6 N6             1.1272     2.0629     0.1023 N.ar    
   7 C7             3.5432     2.1840    -0.0029 C.2     
   8 N8             3.5071     3.5268    -0.1137 N.am    
   9 O9             4.6113     1.6082     0.0612 O.2     
  10 C10            4.7471     4.3023    -0.0290 C.3     
  11 C11            5.6994     3.8650    -1.1438 C.3     
  12 C12            4.4292     5.7909    -0.1845 C.3     
  13 C13            5.4076     4.0612     1.3299 C.3     
  14 C14           -1.2255    -0.7391     0.1634 C.1     
  15 C15           -2.2259    -1.3523     0.1987 C.1     
  16 C16           -3.4463    -2.1004     0.2418 C.ar    
  17 C17           -3.4141    -3.4979     0.2183 C.ar    
  18 C18           -4.6745    -1.4364     0.3132 C.ar    
  19 C19           -5.8456    -2.1622     0.3549 C.ar    
  20 C20           -4.5923    -4.2122     0.2605 C.ar    
  21 C21            2.2279     4.2107    -0.3188 C.3     
  22 C22           -5.8073    -3.5477     0.3260 C.ar    
  23 F23           -6.9585    -4.2535     0.3676 F       
  24 H24           -0.9536     1.9517     0.1887 H       
  25 H25            1.2918    -1.7200     0.0358 H       
  26 H26            5.2288     4.0368    -2.1118 H       
  27 H27            6.6219     4.4420    -1.0807 H       
  28 H28            5.9258     2.8045    -1.0329 H       
  29 H29            3.7508     6.1024     0.6097 H       
  30 H30            5.3518     6.3679    -0.1215 H       
  31 H31            3.9586     5.9627    -1.1526 H       
  32 H32            5.6341     3.0007     1.4407 H       
  33 H33            6.3302     4.6382     1.3929 H       
  34 H34            4.7292     4.3728     2.1240 H       
  35 H35           -2.4683    -4.0166     0.1670 H       
  36 H36           -4.7056    -0.3571     0.3361 H       
  37 H37           -6.7950    -1.6504     0.4105 H       
  38 H38           -4.5688    -5.2918     0.2425 H       
  39 H39            1.7419     4.3687     0.6439 H       
  40 H40            2.4034     5.1731    -0.7996 H       
  41 H41            1.5866     3.5991    -0.9535 H       
@<TRIPOS>BOND
   1    1    2 ar
   2    1    6 ar
   3    1   24 1
   4    2    3 ar
   5    2   14 1
   6    3    4 ar
   7    3   25 1
   8    4    5 ar
   9    5    6 ar
  10    5    7 1
  11    7    8 am
  12    7    9 2
  13    8   10 1
  14    8   21 1
  15   10   11 1
  16   10   12 1
  17   10   13 1
  18   11   26 1
  19   11   27 1
  20   11   28 1
  21   12   29 1
  22   12   30 1
  23   12   31 1
  24   13   32 1
  25   13   33 1
  26   13   34 1
  27   14   15 3
  28   15   16 1
  29   16   17 ar
  30   16   18 ar
  31   17   20 ar
  32   17   35 1
  33   18   19 ar
  34   18   36 1
  35   19   22 ar
  36   19   37 1
  37   20   22 ar
  38   20   38 1
  39   21   39 1
  40   21   40 1
  41   21   41 1
  42   22   23 1

#	End of record

