#	Name: ASD04590642
#	Creating user name:	WinNT
#	Creation time:	15. 06. 2019 20:51

#	Modifying user name:	WinNT
#	Modification time:	15. 06. 2019 20:51

#	Program:	/corina/corina34_cracker 3.40 0067  02.08.2006

@<TRIPOS>MOLECULE
ASD04590642
  66   71    0    0    0
SMALL
NO_CHARGES


@<TRIPOS>ATOM
   1 N1            -2.3782    -2.7058     0.0212 N.ar    
   2 C2            -1.2117    -2.0738     0.0044 C.ar    
   3 N3            -0.0574    -2.7202    -0.0182 N.ar    
   4 C4            -0.0260    -4.0495    -0.0251 C.ar    
   5 C5            -1.2487    -4.7505    -0.0077 C.ar    
   6 C6            -2.4371    -4.0274     0.0159 C.ar    
   7 N7             0.9976    -4.9639    -0.0460 N.pl3   
   8 C8             0.4940    -6.2537    -0.0431 C.ar    
   9 C9            -0.9094    -6.1792    -0.0194 C.ar    
  10 C10            1.0908    -7.5094    -0.0580 C.ar    
  11 N11            0.3533    -8.6020    -0.0499 N.ar    
  12 C12           -0.9677    -8.5652    -0.0277 C.ar    
  13 C13           -1.6446    -7.3648    -0.0125 C.ar    
  14 N14           -1.2019    -0.6887     0.0103 N.pl3   
  15 C15           -2.4014     0.0175    -0.0793 C.ar    
  16 C16            2.4223    -4.6232    -0.0691 C.3     
  17 C17            2.7325    -3.7309    -1.2887 C.3     
  18 C18            2.7883    -3.8028     1.1802 C.3     
  19 C19            3.3082    -2.4407     0.6762 C.3     
  20 C20            2.6737    -2.2881    -0.7285 C.3     
  21 N21           -3.5342    -0.6390    -0.2707 N.ar    
  22 C22           -4.6920    -0.0124    -0.3612 C.ar    
  23 C23           -4.7607     1.3687    -0.2580 C.ar    
  24 C24           -3.5876     2.0944    -0.0561 C.ar    
  25 C25           -2.3937     1.4030     0.0394 C.ar    
  26 N26           -5.9927     2.0263    -0.3560 N.3     
  27 C27           -5.9644     3.0417    -1.4164 C.3     
  28 C28           -7.2721     3.8365    -1.3984 C.3     
  29 C29           -7.0853     1.0681    -0.5674 C.3     
  30 C30           -8.4264     1.8040    -0.5240 C.3     
  31 C31           -8.4482     2.8798    -1.6134 C.3     
  32 Cl32           2.8217    -7.6394    -0.0879 Cl      
  33 N33           -9.7099     3.6284    -1.5389 N.3     
  34 C34           -9.7651     4.6713    -2.5720 C.3     
  35 C35          -10.8644     2.7257    -1.6399 C.3     
  36 H36           -3.3899    -4.5355     0.0300 H       
  37 H37           -1.5254    -9.4901    -0.0220 H       
  38 H38           -2.7242    -7.3423     0.0053 H       
  39 H39           -0.3610    -0.2099     0.0767 H       
  40 H40            3.0227    -5.5320    -0.1081 H       
  41 H41            3.7271    -3.9489    -1.6777 H       
  42 H42            1.9795    -3.8699    -2.0645 H       
  43 H43            1.9060    -3.6582     1.8037 H       
  44 H44            3.5670    -4.3132     1.7470 H       
  45 H45            2.9754    -1.6381     1.3344 H       
  46 H46            4.3958    -2.4502     0.6045 H       
  47 H47            3.2618    -1.6095    -1.3464 H       
  48 H48            1.6418    -1.9455    -0.6511 H       
  49 H49           -5.5963    -0.5817    -0.5177 H       
  50 H50           -3.6111     3.1709     0.0277 H       
  51 H51           -1.4659     1.9332     0.1958 H       
  52 H52           -5.1261     3.7180    -1.2494 H       
  53 H53           -5.8496     2.5533    -2.3840 H       
  54 H54           -7.3809     4.3365    -0.4360 H       
  55 H55           -7.2572     4.5798    -2.1956 H       
  56 H56           -6.9652     0.5889    -1.5390 H       
  57 H57           -7.0610     0.3110     0.2163 H       
  58 H58           -9.2362     1.0951    -0.6965 H       
  59 H59           -8.5534     2.2720     0.4522 H       
  60 H60           -8.3603     2.4088    -2.5924 H       
  61 H61           -9.6894     4.2111    -3.5572 H       
  62 H62          -10.7094     5.2101    -2.4943 H       
  63 H63           -8.9374     5.3664    -2.4312 H       
  64 H64          -10.8359     2.0064    -0.8214 H       
  65 H65          -11.7854     3.3058    -1.5820 H       
  66 H66          -10.8285     2.1950    -2.5913 H       
@<TRIPOS>BOND
   1    1    2 ar
   2    1    6 ar
   3    2    3 ar
   4    2   14 1
   5    3    4 ar
   6    4    5 ar
   7    4    7 1
   8    5    6 ar
   9    5    9 1
  10    6   36 1
  11    7    8 1
  12    7   16 1
  13    8    9 ar
  14    8   10 ar
  15    9   13 ar
  16   10   11 ar
  17   10   32 1
  18   11   12 ar
  19   12   13 ar
  20   12   37 1
  21   13   38 1
  22   14   15 1
  23   14   39 1
  24   15   21 ar
  25   15   25 ar
  26   16   18 1
  27   16   17 1
  28   16   40 1
  29   17   20 1
  30   17   41 1
  31   17   42 1
  32   18   19 1
  33   18   43 1
  34   18   44 1
  35   19   20 1
  36   19   45 1
  37   19   46 1
  38   20   47 1
  39   20   48 1
  40   21   22 ar
  41   22   23 ar
  42   22   49 1
  43   23   24 ar
  44   23   26 1
  45   24   25 ar
  46   24   50 1
  47   25   51 1
  48   26   29 1
  49   26   27 1
  50   27   28 1
  51   27   52 1
  52   27   53 1
  53   28   31 1
  54   28   54 1
  55   28   55 1
  56   29   30 1
  57   29   56 1
  58   29   57 1
  59   30   31 1
  60   30   58 1
  61   30   59 1
  62   31   33 1
  63   31   60 1
  64   33   34 1
  65   33   35 1
  66   34   61 1
  67   34   62 1
  68   34   63 1
  69   35   64 1
  70   35   65 1
  71   35   66 1

#	End of record

