#	Name: ASD03240582
#	Creating user name:	WinNT
#	Creation time:	15. 06. 2019 20:35

#	Modifying user name:	WinNT
#	Modification time:	15. 06. 2019 20:35

#	Program:	/corina/corina34_cracker 3.40 0067  02.08.2006

@<TRIPOS>MOLECULE
ASD03240582
  76   83    0    0    0
SMALL
NO_CHARGES


@<TRIPOS>ATOM
   1 C1            -1.0265     2.4570    -0.3408 C.ar    
   2 C2            -1.1882     1.0875    -0.3835 C.ar    
   3 N3            -0.1448     0.2798    -0.3883 N.ar    
   4 C4             1.0983     0.7406    -0.3522 C.ar    
   5 C5             1.3357     2.1134    -0.3226 C.ar    
   6 C6             0.2566     2.9875    -0.3101 C.ar    
   7 N7             2.1559    -0.1642    -0.3234 N.pl3   
   8 C8             3.0148    -0.2178     0.7710 C.ar    
   9 C9             3.7967     0.8898     1.1162 C.ar    
  10 C10            3.7400     2.1231     0.3011 C.2     
  11 N11            2.6388     2.6310    -0.3229 N.pl3   
  12 C12            3.0967    -1.3776     1.5300 C.ar    
  13 C13            3.9385    -1.4302     2.6246 C.ar    
  14 C14            4.7043    -0.3311     2.9737 C.ar    
  15 C15            4.6377     0.8279     2.2270 C.ar    
  16 N16            4.7680     2.9128     0.0628 N.2     
  17 C17            4.3820     3.9377    -0.7125 C.2     
  18 C18            3.0331     3.7831    -0.9745 C.2     
  19 C19            2.1832     4.6723    -1.7892 C.ar    
  20 C20            2.2633     6.0583    -1.6313 C.ar    
  21 C21            1.2985     4.1328    -2.7265 C.ar    
  22 C22            0.5075     4.9701    -3.4849 C.ar    
  23 C23            0.5884     6.3416    -3.3193 C.ar    
  24 C24            1.4661     6.8834    -2.3967 C.ar    
  25 C25            5.2459     5.0378    -1.1997 C.ar    
  26 C26           -0.2790     7.2500    -4.1522 C.3     
  27 N27           -1.4481     6.5625    -4.7165 N.3     
  28 C28           -0.6211     8.5799    -3.4601 C.3     
  29 C29           -0.4206     9.2529    -4.8282 C.3     
  30 C30            0.5068     8.0766    -5.1837 C.3     
  31 C31            5.0289     5.5901    -2.4623 C.ar    
  32 C32            6.2747     5.5274    -0.3946 C.ar    
  33 C33            7.0772     6.5512    -0.8507 C.ar    
  34 C34            6.8623     7.0956    -2.1113 C.ar    
  35 C35            5.8345     6.6137    -2.9132 C.ar    
  36 N36            7.6783     8.1346    -2.5715 N.am    
  37 C37            7.9680     8.2330    -3.8840 C.2     
  38 N38            8.6641     9.2919    -4.3429 N.am    
  39 O39            7.6014     7.3665    -4.6542 O.2     
  40 C40            9.3810     8.1715    -6.3591 C.ar    
  41 C41            9.0584     9.3418    -5.6846 C.ar    
  42 C42            9.7693     8.2241    -7.6834 C.ar    
  43 C43            9.8376     9.4404    -8.3377 C.ar    
  44 C44            9.5166    10.6075    -7.6691 C.ar    
  45 C45            9.1275    10.5616    -6.3447 C.ar    
  46 H46           -1.8875     3.1089    -0.3359 H       
  47 H47           -2.1839     0.6702    -0.4130 H       
  48 H48            0.4117     4.0558    -0.2779 H       
  49 H49            2.2960    -0.7631    -1.0735 H       
  50 H50            2.5024    -2.2393     1.2645 H       
  51 H51            3.9997    -2.3348     3.2113 H       
  52 H52            5.3556    -0.3805     3.8338 H       
  53 H53            5.2358     1.6842     2.5018 H       
  54 H54            2.9476     6.4824    -0.9113 H       
  55 H55            1.2346     3.0626    -2.8570 H       
  56 H56           -0.1765     4.5545    -4.2100 H       
  57 H57            1.5239     7.9547    -2.2727 H       
  58 H58           -1.1763     5.7093    -5.1815 H       
  59 H59           -2.1398     6.3817    -4.0045 H       
  60 H60           -1.6467     8.6308    -3.0946 H       
  61 H61            0.1113     8.8841    -2.7123 H       
  62 H62           -1.3266     9.2911    -5.4330 H       
  63 H63            0.0925    10.2129    -4.7715 H       
  64 H64            1.5481     8.2426    -4.9074 H       
  65 H65            0.3909     7.7234    -6.2083 H       
  66 H66            4.2306     5.2158    -3.0861 H       
  67 H67            6.4420     5.1050     0.5852 H       
  68 H68            7.8736     6.9309    -0.2278 H       
  69 H69            5.6700     7.0384    -3.8925 H       
  70 H70            8.0356     8.7841    -1.9459 H       
  71 H71            8.8918    10.0194    -3.7431 H       
  72 H72            9.3325     7.2217    -5.8472 H       
  73 H73           10.0203     7.3143    -8.2085 H       
  74 H74           10.1422     9.4789    -9.3731 H       
  75 H75            9.5712    11.5559    -8.1827 H       
  76 H76            8.8769    11.4735    -5.8230 H       
@<TRIPOS>BOND
   1    1    2 ar
   2    1    6 ar
   3    1   46 1
   4    2    3 ar
   5    2   47 1
   6    3    4 ar
   7    4    5 ar
   8    4    7 1
   9    5    6 ar
  10    5   11 1
  11    6   48 1
  12    7    8 1
  13    7   49 1
  14    8    9 ar
  15    8   12 ar
  16    9   10 1
  17    9   15 ar
  18   10   11 1
  19   10   16 2
  20   11   18 1
  21   12   13 ar
  22   12   50 1
  23   13   14 ar
  24   13   51 1
  25   14   15 ar
  26   14   52 1
  27   15   53 1
  28   16   17 1
  29   17   18 2
  30   17   25 1
  31   18   19 1
  32   19   20 ar
  33   19   21 ar
  34   20   24 ar
  35   20   54 1
  36   21   22 ar
  37   21   55 1
  38   22   23 ar
  39   22   56 1
  40   23   24 ar
  41   23   26 1
  42   24   57 1
  43   25   32 ar
  44   25   31 ar
  45   26   27 1
  46   26   28 1
  47   26   30 1
  48   27   58 1
  49   27   59 1
  50   28   29 1
  51   28   60 1
  52   28   61 1
  53   29   30 1
  54   29   62 1
  55   29   63 1
  56   30   64 1
  57   30   65 1
  58   31   35 ar
  59   31   66 1
  60   32   33 ar
  61   32   67 1
  62   33   34 ar
  63   33   68 1
  64   34   35 ar
  65   34   36 1
  66   35   69 1
  67   36   37 am
  68   36   70 1
  69   37   38 am
  70   37   39 2
  71   38   41 1
  72   38   71 1
  73   40   41 ar
  74   40   42 ar
  75   40   72 1
  76   41   45 ar
  77   42   43 ar
  78   42   73 1
  79   43   44 ar
  80   43   74 1
  81   44   45 ar
  82   44   75 1
  83   45   76 1

#	End of record

