#	Name: ASD01180002
#	Creating user name:	WinNT
#	Creation time:	15. 06. 2019 19:06

#	Modifying user name:	WinNT
#	Modification time:	15. 06. 2019 19:06

#	Program:	/corina/corina34_cracker 3.40 0067  02.08.2006

@<TRIPOS>MOLECULE
ASD01180002
  31   32    0    0    0
SMALL
NO_CHARGES


@<TRIPOS>ATOM
   1 N1             0.0337     1.3890     0.1285 N.ar    
   2 C2            -0.0069     0.0896     0.3157 C.ar    
   3 C3             1.1500    -0.6841     0.2007 C.ar    
   4 N4             2.3021    -0.1281    -0.0970 N.ar    
   5 C5             2.3696     1.1932    -0.2929 C.ar    
   6 C6             3.5873     1.8181    -0.6121 C.ar    
   7 C7             3.6245     3.1656    -0.8054 C.ar    
   8 C8             2.4679     3.9391    -0.6905 C.ar    
   9 C9             1.2710     3.3670    -0.3825 C.ar    
  10 C10            1.1947     1.9790    -0.1761 C.ar    
  11 S11           -1.5374    -0.6857     0.7169 S.o2    
  12 O12           -1.1964    -1.6396     1.7134 O.2     
  13 O13           -2.4126     0.3956     1.0067 O.2     
  14 C14           -2.0388    -1.5174    -0.8153 C.3     
  15 C15            1.0757    -2.1731     0.4210 C.3     
  16 C16            1.7634    -2.8953    -0.7394 C.3     
  17 C17            1.7785    -2.5303     1.7323 C.3     
  18 Cl18           2.5568     5.6543    -0.9434 Cl      
  19 Cl19           5.1313     3.9324    -1.1995 Cl      
  20 H20            4.4899     1.2321    -0.7034 H       
  21 H21            0.3843     3.9776    -0.2966 H       
  22 H22           -1.2775    -2.2433    -1.1006 H       
  23 H23           -2.9879    -2.0295    -0.6569 H       
  24 H24           -2.1525    -0.7791    -1.6090 H       
  25 H25            0.0315    -2.4811     0.4729 H       
  26 H26            2.8077    -2.5873    -0.7912 H       
  27 H27            1.7097    -3.9722    -0.5800 H       
  28 H28            1.2627    -2.6408    -1.6735 H       
  29 H29            1.2886    -2.0158     2.5589 H       
  30 H30            1.7249    -3.6072     1.8916 H       
  31 H31            2.8228    -2.2223     1.6804 H       
@<TRIPOS>BOND
   1    1    2 ar
   2    1   10 ar
   3    2    3 ar
   4    2   11 1
   5    3    4 ar
   6    3   15 1
   7    4    5 ar
   8    5    6 ar
   9    5   10 ar
  10    6    7 ar
  11    6   20 1
  12    7    8 ar
  13    7   19 1
  14    8    9 ar
  15    8   18 1
  16    9   10 ar
  17    9   21 1
  18   11   12 2
  19   11   13 2
  20   11   14 1
  21   14   22 1
  22   14   23 1
  23   14   24 1
  24   15   16 1
  25   15   17 1
  26   15   25 1
  27   16   26 1
  28   16   27 1
  29   16   28 1
  30   17   29 1
  31   17   30 1
  32   17   31 1

#	End of record

