#	Name: ASD05310004
#	Creating user name:	WinNT
#	Creation time:	15. 06. 2019 20:58

#	Modifying user name:	WinNT
#	Modification time:	15. 06. 2019 20:58

#	Program:	/corina/corina34_cracker 3.40 0067  02.08.2006

@<TRIPOS>MOLECULE
ASD05310004
  86   92    0    0    0
SMALL
NO_CHARGES


@<TRIPOS>ATOM
   1 C1            -0.2343    -1.6288    -5.3576 C.ar    
   2 C2            -1.4002    -0.8641    -5.5197 C.ar    
   3 C3            -1.5329     0.3090    -4.8410 C.ar    
   4 C4            -0.5295     0.7641    -3.9875 C.ar    
   5 C5             0.6152     0.0485    -3.8056 C.ar    
   6 C6             0.7865    -1.1646    -4.4877 C.ar    
   7 C7             1.9450    -1.9496    -4.3426 C.ar    
   8 C8             2.0356    -3.1155    -5.0404 C.ar    
   9 N9             1.0664    -3.5261    -5.8470 N.ar    
  10 C10           -0.0434    -2.8488    -6.0263 C.ar    
  11 S11            1.8711     0.6430    -2.7221 S.o2    
  12 O12            2.9047     1.3586    -3.5800 O.3     
  13 O13            1.2632     1.6393    -1.9115 O.2     
  14 O14            2.5174    -0.5048    -2.1890 O.2     
  15 C15            2.5062     2.5805    -4.0215 C.ar    
  16 C16            2.7679     3.7125    -3.2634 C.ar    
  17 C17            2.3617     4.9535    -3.7143 C.ar    
  18 C18            1.6948     5.0680    -4.9201 C.ar    
  19 C19            1.4324     3.9412    -5.6773 C.ar    
  20 C20            1.8419     2.6987    -5.2337 C.ar    
  21 C21            1.2528     6.4230    -5.4096 C.3     
  22 C22            2.3639     7.0465    -6.2568 C.3     
  23 N23            3.5352     7.3017    -5.4147 N.am    
  24 S24            5.0010     6.6422    -5.8132 S.o2    
  25 C25            3.4098     8.1405    -4.2201 C.3     
  26 C26            1.8770     8.3449    -6.8470 C.2     
  27 C27            5.9370     7.8992    -6.6185 C.ar    
  28 O28            5.6655     6.3705    -4.5869 O.2     
  29 O29            4.7399     5.6465    -6.7929 O.2     
  30 C30            6.3018     9.3977    -8.5067 C.ar    
  31 C31            7.4486     9.8956    -7.8685 C.ar    
  32 C32            7.8106     9.3969    -6.6542 C.ar    
  33 C33            7.0584     8.4024    -6.0314 C.ar    
  34 C34            5.5365     8.3853    -7.8714 C.ar    
  35 C35            4.3919     7.9030    -8.5323 C.ar    
  36 C36            4.0700     8.4266    -9.7475 C.ar    
  37 N37            4.8033     9.3722   -10.3191 N.ar    
  38 C38            5.8825     9.8689    -9.7613 C.ar    
  39 N39            0.9006     8.3386    -7.7760 N.am    
  40 O40            2.3637     9.3954    -6.4859 O.2     
  41 C41            0.3387     9.5972    -8.2892 C.3     
  42 C42            0.3724     9.5567    -9.8207 C.3     
  43 N43           -0.3015     8.3387   -10.2900 N.3     
  44 C44            0.4011     7.1317    -9.8345 C.3     
  45 C45            0.3730     7.0730    -8.3081 C.3     
  46 C46           -0.4359     8.3450   -11.6802 C.ar    
  47 C47           -1.0492     7.2784   -12.3252 C.ar    
  48 C48           -1.1809     7.2881   -13.6999 C.ar    
  49 C49           -0.7030     8.3580   -14.4343 C.ar    
  50 C50           -0.0920     9.4214   -13.7954 C.ar    
  51 C51            0.0382     9.4205   -12.4205 C.ar    
  52 H52           -2.1861    -1.2034    -6.1783 H       
  53 H53           -2.4304     0.8966    -4.9665 H       
  54 H54           -0.6615     1.6986    -3.4624 H       
  55 H55            2.7464    -1.6338    -3.6913 H       
  56 H56            2.9223    -3.7230    -4.9341 H       
  57 H57           -0.8067    -3.2270    -6.6902 H       
  58 H58            3.2884     3.6236    -2.3213 H       
  59 H59            2.5649     5.8350    -3.1243 H       
  60 H60            0.9107     4.0332    -6.6185 H       
  61 H61            1.6410     1.8195    -5.8278 H       
  62 H62            0.3522     6.3150    -6.0140 H       
  63 H63            1.0423     7.0669    -4.5557 H       
  64 H64            2.6361     6.3618    -7.0600 H       
  65 H65            3.1568     7.5165    -3.3630 H       
  66 H66            4.3553     8.6494    -4.0326 H       
  67 H67            2.6240     8.8796    -4.3760 H       
  68 H68            8.0417    10.6660    -8.3388 H       
  69 H69            8.6931     9.7807    -6.1640 H       
  70 H70            7.3693     8.0252    -5.0684 H       
  71 H71            3.7811     7.1328    -8.0851 H       
  72 H72            3.1928     8.0610   -10.2605 H       
  73 H73            6.4467    10.6391   -10.2661 H       
  74 H74           -0.6910     9.7044    -7.9482 H       
  75 H75            0.9349    10.4369    -7.9319 H       
  76 H76           -0.1401    10.4323   -10.2190 H       
  77 H77            1.4076     9.5540   -10.1618 H       
  78 H78           -0.0904     6.2487   -10.2429 H       
  79 H79            1.4360     7.1628   -10.1754 H       
  80 H80            0.9893     6.2432    -7.9621 H       
  81 H81           -0.6531     6.9382    -7.9657 H       
  82 H82           -1.4223     6.4424   -11.7522 H       
  83 H83           -1.6572     6.4591   -14.2020 H       
  84 H84           -0.8069     8.3629   -15.5093 H       
  85 H85            0.2801    10.2554   -14.3719 H       
  86 H86            0.5116    10.2534   -11.9218 H       
@<TRIPOS>BOND
   1    1    2 ar
   2    1    6 ar
   3    1   10 ar
   4    2    3 ar
   5    2   52 1
   6    3    4 ar
   7    3   53 1
   8    4    5 ar
   9    4   54 1
  10    5    6 ar
  11    5   11 1
  12    6    7 ar
  13    7    8 ar
  14    7   55 1
  15    8    9 ar
  16    8   56 1
  17    9   10 ar
  18   10   57 1
  19   11   12 1
  20   11   13 2
  21   11   14 2
  22   12   15 1
  23   15   16 ar
  24   15   20 ar
  25   16   17 ar
  26   16   58 1
  27   17   18 ar
  28   17   59 1
  29   18   19 ar
  30   18   21 1
  31   19   20 ar
  32   19   60 1
  33   20   61 1
  34   21   22 1
  35   21   62 1
  36   21   63 1
  37   22   23 1
  38   22   26 1
  39   22   64 1
  40   23   24 am
  41   23   25 1
  42   24   27 1
  43   24   28 2
  44   24   29 2
  45   25   65 1
  46   25   66 1
  47   25   67 1
  48   26   39 am
  49   26   40 2
  50   27   34 ar
  51   27   33 ar
  52   30   31 ar
  53   30   34 ar
  54   30   38 ar
  55   31   32 ar
  56   31   68 1
  57   32   33 ar
  58   32   69 1
  59   33   70 1
  60   34   35 ar
  61   35   36 ar
  62   35   71 1
  63   36   37 ar
  64   36   72 1
  65   37   38 ar
  66   38   73 1
  67   39   41 1
  68   39   45 1
  69   41   42 1
  70   41   74 1
  71   41   75 1
  72   42   43 1
  73   42   76 1
  74   42   77 1
  75   43   44 1
  76   43   46 1
  77   44   45 1
  78   44   78 1
  79   44   79 1
  80   45   80 1
  81   45   81 1
  82   46   47 ar
  83   46   51 ar
  84   47   48 ar
  85   47   82 1
  86   48   49 ar
  87   48   83 1
  88   49   50 ar
  89   49   84 1
  90   50   51 ar
  91   50   85 1
  92   51   86 1

#	End of record

