#	Name: ASD01811973
#	Creating user name:	WinNT
#	Creation time:	15. 06. 2019 19:27

#	Modifying user name:	WinNT
#	Modification time:	15. 06. 2019 19:27

#	Program:	/corina/corina34_cracker 3.40 0067  02.08.2006

@<TRIPOS>MOLECULE
ASD01811973
  60   62    0    0    0
SMALL
NO_CHARGES


@<TRIPOS>ATOM
   1 I1             5.5594    -5.1145    -0.3211 I       
   2 I2             7.7707     0.2824    -1.8693 I       
   3 O3             2.1437     1.9253    -4.5635 O.3     
   4 O4             7.5583    -2.6780    -0.7324 O.3     
   5 O5             1.6413    -2.0194    -2.7997 O.2     
   6 N6             9.5189    -4.6625     0.1074 N.3     
   7 C7             2.8022    -0.2286    -5.7062 C.3     
   8 C8             2.4248     0.6181    -4.5181 C.2     
   9 C9             2.3189     0.1670    -3.2369 C.2     
  10 C10            1.5383    -0.8227    -6.3311 C.3     
  11 C11            1.9304     1.3417    -2.4306 C.ar    
  12 C12            1.8413     2.4061    -3.3397 C.ar    
  13 C13            9.7701    -3.6352    -0.9121 C.3     
  14 C14            1.9214    -1.6824    -7.5374 C.3     
  15 C15            2.5437    -1.2041    -2.7570 C.2     
  16 C16           10.7747    -5.2824     0.5508 C.3     
  17 C17            8.7768    -4.1043     1.2457 C.3     
  18 C18            8.4643    -3.3088    -1.6397 C.3     
  19 C19            1.6680     1.5483    -1.0807 C.ar    
  20 C20            3.8643    -1.5921    -2.2233 C.ar    
  21 C21            1.4879     3.6670    -2.8761 C.ar    
  22 C22            0.6575    -2.2765    -8.1623 C.3     
  23 C23           10.4644    -6.5589     1.3351 C.3     
  24 C24            9.5141    -2.8755     1.7819 C.3     
  25 C25            6.3440    -2.3211    -1.2227 C.ar    
  26 C26            1.3189     2.8071    -0.6390 C.ar    
  27 C27            1.2293     3.8607    -1.5355 C.ar    
  28 C28            4.0482    -2.8584    -1.6609 C.ar    
  29 C29            4.9354    -0.6963    -2.2844 C.ar    
  30 C30            5.2821    -3.2168    -1.1644 C.ar    
  31 C31            6.1663    -1.0622    -1.7858 C.ar    
  32 H32            3.3165     0.3881    -6.4432 H       
  33 H33            3.4612    -1.0345    -5.3834 H       
  34 H34            1.0240    -1.4395    -5.5941 H       
  35 H35            0.8792    -0.0168    -6.6539 H       
  36 H36           10.1542    -2.7345    -0.4333 H       
  37 H37           10.5025    -4.0062    -1.6290 H       
  38 H38            2.4357    -1.0656    -8.2744 H       
  39 H39            2.5804    -2.4883    -7.2145 H       
  40 H40            7.7772    -3.8152     0.9212 H       
  41 H41            8.7006    -4.8544     2.0328 H       
  42 H42           11.3847    -5.5292    -0.3182 H       
  43 H43           11.3178    -4.5862     1.1899 H       
  44 H44            8.0187    -4.2293    -2.0170 H       
  45 H45            8.6708    -2.6370    -2.4729 H       
  46 H46            1.7367     0.7274    -0.3823 H       
  47 H47            1.4159     4.4954    -3.5653 H       
  48 H48            0.1432    -2.8933    -7.4252 H       
  49 H49           -0.0016    -1.4706    -8.4851 H       
  50 H50            0.9304    -2.8889    -9.0216 H       
  51 H51            8.9968    -2.4975     2.6637 H       
  52 H52           10.5340    -3.1519     2.0496 H       
  53 H53            9.5369    -2.1019     1.0144 H       
  54 H54            9.8561    -6.3119     2.2052 H       
  55 H55            9.9197    -7.2543     0.6965 H       
  56 H56           11.3963    -7.0199     1.6624 H       
  57 H57            1.1142     2.9725     0.4084 H       
  58 H58            0.9552     4.8431    -1.1803 H       
  59 H59            3.2239    -3.5547    -1.6153 H       
  60 H60            4.7984     0.2814    -2.7223 H       
@<TRIPOS>BOND
   1    1   30 1
   2    2   31 1
   3    3    8 1
   4    3   12 1
   5    4   18 1
   6    4   25 1
   7    5   15 2
   8    6   13 1
   9    6   16 1
  10    6   17 1
  11    7    8 1
  12    7   10 1
  13    7   32 1
  14    7   33 1
  15    8    9 2
  16    9   11 1
  17    9   15 1
  18   10   14 1
  19   10   34 1
  20   10   35 1
  21   11   12 ar
  22   11   19 ar
  23   12   21 ar
  24   13   18 1
  25   13   36 1
  26   13   37 1
  27   14   22 1
  28   14   38 1
  29   14   39 1
  30   15   20 1
  31   16   23 1
  32   16   42 1
  33   16   43 1
  34   17   24 1
  35   17   40 1
  36   17   41 1
  37   18   44 1
  38   18   45 1
  39   19   26 ar
  40   19   46 1
  41   20   28 ar
  42   20   29 ar
  43   21   27 ar
  44   21   47 1
  45   22   48 1
  46   22   49 1
  47   22   50 1
  48   23   54 1
  49   23   55 1
  50   23   56 1
  51   24   51 1
  52   24   52 1
  53   24   53 1
  54   25   30 ar
  55   25   31 ar
  56   26   27 ar
  57   26   57 1
  58   27   58 1
  59   28   30 ar
  60   28   59 1
  61   29   31 ar
  62   29   60 1

#	End of record

