#	Name: ASD00461031
#	Creating user name:	WinNT
#	Creation time:	15. 06. 2019 18:36

#	Modifying user name:	WinNT
#	Modification time:	15. 06. 2019 18:36

#	Program:	/corina/corina34_cracker 3.40 0067  02.08.2006

@<TRIPOS>MOLECULE
ASD00461031
  53   55    0    0    0
SMALL
NO_CHARGES


@<TRIPOS>ATOM
   1 C1            -0.0167     1.3783     0.0096 C.ar    
   2 C2             0.0021    -0.0041     0.0020 C.ar    
   3 C3             1.1708     2.0856     0.0021 C.ar    
   4 C4             1.2082    -0.6788    -0.0132 C.ar    
   5 C5             2.3773     1.4107    -0.0131 C.ar    
   6 C6             2.3960     0.0287    -0.0212 C.ar    
   7 C7             3.7112    -0.7069    -0.0368 C.3     
   8 N8             4.6648    -0.0239     0.8476 N.3     
   9 C9             5.6941    -0.9541     1.3306 C.3     
  10 C10            6.6519    -0.2192     2.2326 C.ar    
  11 C11            6.4043    -0.1510     3.5885 C.ar    
  12 C12            7.7795     0.3799     1.6990 C.ar    
  13 C13            7.2892     0.5276     4.4234 C.ar    
  14 C14            8.6640     1.0552     2.5182 C.ar    
  15 C15            8.4246     1.1364     3.8808 C.ar    
  16 H16            5.0828     0.7694     0.3848 H       
  17 C17            7.0276     0.6044     5.8814 C.ar    
  18 C18            5.7774     1.0070     6.3474 C.ar    
  19 C19            5.5395     1.0766     7.7051 C.ar    
  20 C20            6.5393     0.7477     8.6028 C.ar    
  21 C21            7.7820     0.3475     8.1459 C.ar    
  22 C22            8.0292     0.2687     6.7904 C.ar    
  23 O23            9.2933     1.8003     4.6871 O.3     
  24 C24           10.4346     2.3921     4.0632 C.3     
  25 C25           -1.2926    -0.7753     0.0108 C.3     
  26 C26            4.2652    -0.7310    -1.4627 C.3     
  27 C27            6.2736     0.8262    10.0841 C.3     
  28 F28            5.7845    -0.4041    10.5360 F       
  29 F29            7.4626     1.1304    10.7556 F       
  30 F30            5.3272     1.8253    10.3358 F       
  31 H31           -0.9592     1.9056     0.0170 H       
  32 H32            1.1561     3.1655     0.0077 H       
  33 H33            1.2229    -1.7587    -0.0184 H       
  34 H34            3.3051     1.9634    -0.0197 H       
  35 H35            3.5601    -1.7286     0.3117 H       
  36 H36            5.2204    -1.7636     1.8860 H       
  37 H37            6.2387    -1.3663     0.4811 H       
  38 H38            5.5252    -0.6229     4.0020 H       
  39 H39            7.9692     0.3191     0.6376 H       
  40 H40            9.5425     1.5204     2.0961 H       
  41 H41            4.9962     1.2644     5.6474 H       
  42 H42            4.5712     1.3889     8.0674 H       
  43 H43            8.5590     0.0922     8.8512 H       
  44 H44            8.9998    -0.0443     6.4347 H       
  45 H45           11.0238     1.6168     3.5735 H       
  46 H46           10.1066     3.1214     3.3226 H       
  47 H47           11.0441     2.8894     4.8178 H       
  48 H48           -1.6150    -0.9557    -1.0147 H       
  49 H49           -1.1443    -1.7285     0.5181 H       
  50 H50           -2.0550    -0.1993     0.5353 H       
  51 H51            4.4163     0.2907    -1.8112 H       
  52 H52            5.2164    -1.2631    -1.4740 H       
  53 H53            3.5576    -1.2378    -2.1189 H       
@<TRIPOS>BOND
   1    1    2 ar
   2    1    3 ar
   3    1   31 1
   4    2    4 ar
   5    2   25 1
   6    3    5 ar
   7    3   32 1
   8    4    6 ar
   9    4   33 1
  10    5    6 ar
  11    5   34 1
  12    6    7 1
  13    7    8 1
  14    7   26 1
  15    7   35 1
  16    8    9 1
  17    8   16 1
  18    9   10 1
  19    9   36 1
  20    9   37 1
  21   10   11 ar
  22   10   12 ar
  23   11   13 ar
  24   11   38 1
  25   12   14 ar
  26   12   39 1
  27   13   17 1
  28   13   15 ar
  29   14   15 ar
  30   14   40 1
  31   15   23 1
  32   17   18 ar
  33   17   22 ar
  34   18   19 ar
  35   18   41 1
  36   19   20 ar
  37   19   42 1
  38   20   21 ar
  39   20   27 1
  40   21   22 ar
  41   21   43 1
  42   22   44 1
  43   23   24 1
  44   24   45 1
  45   24   46 1
  46   24   47 1
  47   25   48 1
  48   25   49 1
  49   25   50 1
  50   26   51 1
  51   26   52 1
  52   26   53 1
  53   27   28 1
  54   27   29 1
  55   27   30 1

#	End of record

