#	Name: ASD07930022
#	Creating user name:	WinNT
#	Creation time:	15. 06. 2019 21:11

#	Modifying user name:	WinNT
#	Modification time:	15. 06. 2019 21:11

#	Program:	/corina/corina34_cracker 3.40 0067  02.08.2006

@<TRIPOS>MOLECULE
ASD07930022
  52   55    0    0    0
SMALL
NO_CHARGES


@<TRIPOS>ATOM
   1 C1            -0.0167     1.3807     0.0096 C.2     
   2 N2             0.0021    -0.0041     0.0020 N.am    
   3 N3             1.2023     2.0320     0.0015 N.pl3   
   4 C4             2.2545     1.5040    -0.8785 C.3     
   5 C5             2.4301    -0.0046    -0.6026 C.3     
   6 C6             1.1260    -0.6674    -0.3006 C.2     
   7 C7             3.6038     2.1081    -0.4355 C.3     
   8 N8             4.2432     1.1401     0.4737 N.3     
   9 C9             3.3350    -0.0129     0.6493 C.3     
  10 C10            4.5423     1.7266     1.6925 C.ar    
  11 N11            4.2401     3.0015     1.8867 N.ar    
  12 C12            4.5130     3.5933     3.0431 C.ar    
  13 C13            5.1245     2.8529     4.0557 C.ar    
  14 C14            5.4236     1.5241     3.8123 C.ar    
  15 N15            5.1182     0.9969     2.6358 N.ar    
  16 F16            5.4181     3.4206     5.2459 F       
  17 O17            4.2024     4.8985     3.2376 O.3     
  18 C18            6.0845     0.6846     4.8751 C.3     
  19 C19            1.9625     1.7955    -2.3280 C.ar    
  20 C20            0.5392     2.7388    -4.0085 C.ar    
  21 C21            1.4280     2.3302    -4.9911 C.ar    
  22 C22            2.5810     1.6498    -4.6404 C.ar    
  23 C23            2.8481     1.3821    -3.3089 C.ar    
  24 N24           -1.1378     2.0425     0.0186 N.2     
  25 C25           -1.2164    -0.7493     0.3279 C.3     
  26 O26            1.0819    -1.8787    -0.3312 O.2     
  27 C27            0.8084     2.4705    -2.6776 C.ar    
  28 F28            1.1684     2.5957    -6.2900 F       
  29 C29            3.5785     5.5858     2.1511 C.3     
  30 F30           -0.5866     3.4030    -4.3496 F       
  31 F31            3.9733     0.7175    -2.9662 F       
  32 C32            5.0118     0.0166     5.7377 C.3     
  33 H33            1.3581     2.8114     0.5575 H       
  34 H34            2.9183    -0.4925    -1.4462 H       
  35 H35            4.2388     2.2739    -1.3058 H       
  36 H36            3.4343     3.0500     0.0861 H       
  37 H37            2.7352     0.1114     1.5509 H       
  38 H38            3.9056    -0.9403     0.6980 H       
  39 H39            6.6998    -0.0811     4.4028 H       
  40 H40            6.7114     1.3191     5.5016 H       
  41 H41            3.2737     1.3309    -5.4050 H       
  42 H42           -1.9825     1.5657     0.0200 H       
  43 H43           -2.0230    -0.0493     0.5458 H       
  44 H44           -1.4972    -1.3749    -0.5194 H       
  45 H45           -1.0355    -1.3781     1.1996 H       
  46 H46            0.1160     2.7883    -1.9122 H       
  47 H47            4.2377     5.5677     1.2832 H       
  48 H48            2.6376     5.0946     1.9029 H       
  49 H49            3.3842     6.6191     2.4384 H       
  50 H50            4.3965     0.7824     6.2100 H       
  51 H51            4.3849    -0.6179     5.1112 H       
  52 H52            5.4899    -0.5905     6.5064 H       
@<TRIPOS>BOND
   1    1    2 1
   2    1    3 1
   3    1   24 2
   4    2   25 1
   5    2    6 am
   6    3    4 1
   7    3   33 1
   8    4    7 1
   9    4   19 1
  10    4    5 1
  11    5    6 1
  12    5    9 1
  13    5   34 1
  14    6   26 2
  15    7    8 1
  16    7   35 1
  17    7   36 1
  18    8    9 1
  19    8   10 1
  20    9   37 1
  21    9   38 1
  22   10   11 ar
  23   10   15 ar
  24   11   12 ar
  25   12   13 ar
  26   12   17 1
  27   13   14 ar
  28   13   16 1
  29   14   15 ar
  30   14   18 1
  31   17   29 1
  32   18   32 1
  33   18   39 1
  34   18   40 1
  35   19   27 ar
  36   19   23 ar
  37   20   21 ar
  38   20   30 1
  39   20   27 ar
  40   21   22 ar
  41   21   28 1
  42   22   23 ar
  43   22   41 1
  44   23   31 1
  45   24   42 1
  46   25   43 1
  47   25   44 1
  48   25   45 1
  49   27   46 1
  50   29   47 1
  51   29   48 1
  52   29   49 1
  53   32   50 1
  54   32   51 1
  55   32   52 1

#	End of record

