#	Name: ASD05490221
#	Creating user name:	WinNT
#	Creation time:	15. 06. 2019 21:01

#	Modifying user name:	WinNT
#	Modification time:	15. 06. 2019 21:01

#	Program:	/corina/corina34_cracker 3.40 0067  02.08.2006

@<TRIPOS>MOLECULE
ASD05490221
  61   64    0    0    0
SMALL
NO_CHARGES


@<TRIPOS>ATOM
   1 N1            -0.0159     1.3200     0.0093 N.ar    
   2 C2             0.0021    -0.0041     0.0020 C.ar    
   3 C3             1.1991    -0.7028    -0.0109 C.ar    
   4 C4             2.3947     0.0094    -0.0169 C.ar    
   5 C5             2.3384     1.4035    -0.0125 C.ar    
   6 C6             1.1021     2.0355     0.0025 C.ar    
   7 N7             3.6186    -0.6479    -0.0226 N.3     
   8 C8             4.6246     0.0704    -0.8118 C.3     
   9 C9             3.4706    -2.0318    -0.4925 C.3     
  10 C10            4.8335    -2.6336    -0.7195 C.ar    
  11 C11            5.4765    -3.2962     0.3093 C.ar    
  12 C12            6.7267    -3.8482     0.1010 C.ar    
  13 C13            7.3336    -3.7380    -1.1361 C.ar    
  14 C14            6.6901    -3.0762    -2.1651 C.ar    
  15 C15            5.4381    -2.5280    -1.9581 C.ar    
  16 C16            9.8421    -6.2659    -2.2900 C.3     
  17 N17            8.5499    -5.7233    -1.8317 N.3     
  18 C18            7.5829    -5.8051    -2.9471 C.3     
  19 C19            8.1197    -6.9407    -3.8536 C.3     
  20 C20            9.6527    -6.7255    -3.7509 C.3     
  21 N21            3.5337     2.1438    -0.0267 N.am    
  22 N22            1.0349     3.4263     0.0098 N.pl3   
  23 O23           -1.1705    -0.6880     0.0078 O.3     
  24 C24           -2.3723     0.0849     0.0216 C.3     
  25 C25           -3.5815    -0.8524     0.0262 C.3     
  26 C26           -4.8683    -0.0249     0.0410 C.3     
  27 C27           -6.0775    -0.9623     0.0457 C.3     
  28 C28            4.6733     1.5185    -0.3988 C.2     
  29 O29            5.7274     2.1189    -0.3997 O.2     
  30 C30            8.6968    -4.3389    -1.3628 C.3     
  31 H31            1.2039    -1.7827    -0.0159 H       
  32 H32            5.6021    -0.3842    -0.6505 H       
  33 H33            4.3684     0.0048    -1.8692 H       
  34 H34            2.9363    -2.6150     0.2575 H       
  35 H35            2.9095    -2.0402    -1.4269 H       
  36 H36            5.0024    -3.3823     1.2758 H       
  37 H37            7.2294    -4.3653     0.9050 H       
  38 H38            7.1644    -2.9898    -3.1315 H       
  39 H39            4.9354    -2.0110    -2.7621 H       
  40 H40           10.6077    -5.4916    -2.2411 H       
  41 H41           10.1293    -7.1141    -1.6686 H       
  42 H42            6.5909    -6.0562    -2.5715 H       
  43 H43            7.5550    -4.8632    -3.4950 H       
  44 H44            7.8357    -7.9184    -3.4643 H       
  45 H45            7.7759    -6.8161    -4.8805 H       
  46 H46            9.9804    -5.9509    -4.4442 H       
  47 H47           10.1859    -7.6584    -3.9336 H       
  48 H48            3.5406     3.0807     0.2244 H       
  49 H49            1.8505     3.9513     0.0045 H       
  50 H50            0.1725     3.8701     0.0203 H       
  51 H51           -2.3928     0.7088     0.9151 H       
  52 H52           -2.4071     0.7184    -0.8648 H       
  53 H53           -3.5610    -1.4763    -0.8673 H       
  54 H54           -3.5467    -1.4859     0.9126 H       
  55 H55           -4.8888     0.5990     0.9346 H       
  56 H56           -4.9031     0.6086    -0.8453 H       
  57 H57           -6.0570    -1.5862    -0.8478 H       
  58 H58           -6.0427    -1.5958     0.9320 H       
  59 H59           -6.9942    -0.3727     0.0562 H       
  60 H60            9.2307    -3.7558    -2.1132 H       
  61 H61            9.2580    -4.3295    -0.4284 H       
@<TRIPOS>BOND
   1    1    2 ar
   2    1    6 ar
   3    2    3 ar
   4    2   23 1
   5    3    4 ar
   6    3   31 1
   7    4    5 ar
   8    4    7 1
   9    5    6 ar
  10    5   21 1
  11    6   22 1
  12    7    8 1
  13    7    9 1
  14    8   28 1
  15    8   32 1
  16    8   33 1
  17    9   10 1
  18    9   34 1
  19    9   35 1
  20   10   11 ar
  21   10   15 ar
  22   11   12 ar
  23   11   36 1
  24   12   13 ar
  25   12   37 1
  26   13   14 ar
  27   13   30 1
  28   14   15 ar
  29   14   38 1
  30   15   39 1
  31   16   17 1
  32   16   20 1
  33   16   40 1
  34   16   41 1
  35   17   18 1
  36   17   30 1
  37   18   19 1
  38   18   42 1
  39   18   43 1
  40   19   20 1
  41   19   44 1
  42   19   45 1
  43   20   46 1
  44   20   47 1
  45   21   28 am
  46   21   48 1
  47   22   49 1
  48   22   50 1
  49   23   24 1
  50   24   25 1
  51   24   51 1
  52   24   52 1
  53   25   26 1
  54   25   53 1
  55   25   54 1
  56   26   27 1
  57   26   55 1
  58   26   56 1
  59   27   57 1
  60   27   58 1
  61   27   59 1
  62   28   29 2
  63   30   60 1
  64   30   61 1

#	End of record

