#	Name: ASD01410089
#	Creating user name:	WinNT
#	Creation time:	15. 06. 2019 19:16

#	Modifying user name:	WinNT
#	Modification time:	15. 06. 2019 19:16

#	Program:	/corina/corina34_cracker 3.40 0067  02.08.2006

@<TRIPOS>MOLECULE
ASD01410089
  39   42    0    0    0
SMALL
NO_CHARGES


@<TRIPOS>ATOM
   1 C1           -10.0375    -3.3885     0.2677 C.ar    
   2 C2            -8.9733    -4.2789     0.1957 C.ar    
   3 C3            -7.6769    -3.8011     0.1226 C.ar    
   4 C4            -7.4472    -2.4192     0.1217 C.ar    
   5 C5            -8.5232    -1.5190     0.1944 C.ar    
   6 C6            -9.8162    -2.0190     0.2614 C.ar    
   7 C7            -6.2249    -1.6027     0.0561 C.2     
   8 C8            -6.7067    -0.2123     0.0979 C.2     
   9 O9            -8.0574    -0.2507     0.1783 O.3     
  10 O10           -5.0716    -1.9906    -0.0159 O.2     
  11 C11           -5.9370     0.9043     0.0629 C.2     
  12 C12           -6.5667     2.2272    -0.0347 C.ar    
  13 O13          -11.3070    -3.8635     0.3393 O.3     
  14 O14           -6.6340    -4.6661     0.0525 O.3     
  15 C15           -7.9494     2.3333    -0.2325 C.ar    
  16 C16           -8.5326     3.5652    -0.3230 C.ar    
  17 C17           -7.7520     4.7177    -0.2185 C.ar    
  18 C18           -6.3738     4.6148    -0.0219 C.ar    
  19 C19           -5.7865     3.3854     0.0755 C.ar    
  20 C20           -8.3876     6.0531    -0.3171 C.ar    
  21 C21           -7.6116     7.2070    -0.2133 C.ar    
  22 C22           -8.2089     8.4474    -0.3058 C.ar    
  23 C23           -9.5749     8.5476    -0.5007 C.ar    
  24 C24          -10.3499     7.4064    -0.6044 C.ar    
  25 C25           -9.7630     6.1604    -0.5197 C.ar    
  26 H26           -9.1579    -5.3430     0.1972 H       
  27 H27          -10.6533    -1.3389     0.3174 H       
  28 H28           -4.8612     0.8202     0.1068 H       
  29 H29          -11.6221    -4.0093     1.2418 H       
  30 H30           -6.3844    -4.9089    -0.8496 H       
  31 H31           -8.5537     1.4419    -0.3138 H       
  32 H32           -9.5985     3.6475    -0.4759 H       
  33 H33           -5.7721     5.5081     0.0579 H       
  34 H34           -4.7203     3.3064     0.2280 H       
  35 H35           -6.5452     7.1299    -0.0605 H       
  36 H36           -7.6089     9.3418    -0.2256 H       
  37 H37          -10.0381     9.5207    -0.5718 H       
  38 H38          -11.4158     7.4908    -0.7565 H       
  39 H39          -10.3689     5.2702    -0.6012 H       
@<TRIPOS>BOND
   1    1    2 ar
   2    1   13 1
   3    1    6 ar
   4    2    3 ar
   5    2   26 1
   6    3    4 ar
   7    3   14 1
   8    4    5 ar
   9    4    7 1
  10    5    6 ar
  11    5    9 1
  12    6   27 1
  13    7    8 1
  14    7   10 2
  15    8    9 1
  16    8   11 2
  17   11   12 1
  18   11   28 1
  19   12   15 ar
  20   12   19 ar
  21   13   29 1
  22   14   30 1
  23   15   16 ar
  24   15   31 1
  25   16   17 ar
  26   16   32 1
  27   17   18 ar
  28   17   20 1
  29   18   19 ar
  30   18   33 1
  31   19   34 1
  32   20   21 ar
  33   20   25 ar
  34   21   22 ar
  35   21   35 1
  36   22   23 ar
  37   22   36 1
  38   23   24 ar
  39   23   37 1
  40   24   25 ar
  41   24   38 1
  42   25   39 1

#	End of record

