#	Name: ASD01208958
#	Creating user name:	WinNT
#	Creation time:	15. 06. 2019 19:10

#	Modifying user name:	WinNT
#	Modification time:	15. 06. 2019 19:10

#	Program:	/corina/corina34_cracker 3.40 0067  02.08.2006

@<TRIPOS>MOLECULE
ASD01208958
  58   62    0    0    0
SMALL
NO_CHARGES


@<TRIPOS>ATOM
   1 C1            -2.1631     1.6101    -0.9625 C.3     
   2 C2            -2.1461     0.0854    -1.1085 C.3     
   3 C3            -1.4120    -0.2846    -2.4009 C.3     
   4 C4            -2.0977     0.4047    -3.5834 C.3     
   5 C5            -2.8199     2.2262    -2.2005 C.3     
   6 C6            -1.4213    -0.5353     0.0875 C.3     
   7 C7            -1.5299    -2.0597     0.0146 C.3     
   8 C8            -0.7065    -2.6752     1.1166 C.2     
   9 N9             0.6325    -2.5222     1.1230 N.am    
  10 C10            1.3997    -3.1724     2.0767 C.2     
  11 N11           -2.9311    -2.4575     0.1716 N.pl3   
  12 N12           -3.8365    -2.7130    -0.8663 N.2     
  13 C13           -4.9864    -3.0400    -0.3345 C.2     
  14 C14           -4.8504    -3.0033     1.0571 C.2     
  15 C15           -3.5760    -2.6482     1.3416 C.2     
  16 O16           -1.2488    -3.3081     1.9975 O.2     
  17 O17           -2.1068     1.8176    -3.3696 O.3     
  18 N18            2.6811    -3.0922     2.1681 N.2     
  19 C19            3.2863    -3.7855     3.1525 C.ar    
  20 C20            2.3889    -4.5071     3.9451 C.ar    
  21 S21            0.7596    -4.2174     3.3371 S.3     
  22 C22            4.6617    -3.8663     3.4667 C.ar    
  23 C23            5.0562    -4.6448     4.5300 C.ar    
  24 C24            4.0995    -5.3331     5.2706 C.ar    
  25 N25            2.8203    -5.2469     4.9637 N.ar    
  26 O26            4.4879    -6.1015     6.3199 O.3     
  27 C27            3.4592    -6.7830     7.0407 C.3     
  28 S28           -6.1132    -3.3632     2.2320 S.o2    
  29 C29           -5.9576    -5.1454     2.5320 C.3     
  30 O30           -5.7361    -2.6281     3.3881 O.2     
  31 O31           -7.3234    -3.0771     1.5444 O.2     
  32 C32           -7.0034    -5.8039     3.4341 C.3     
  33 C33           -7.0241    -6.0596     1.9257 C.3     
  34 H34           -2.7316     1.8846    -0.0739 H       
  35 H35           -1.1414     1.9786    -0.8707 H       
  36 H36           -3.1692    -0.2883    -1.1505 H       
  37 H37           -0.3751     0.0457    -2.3382 H       
  38 H38           -1.4432    -1.3651    -2.5411 H       
  39 H39           -1.5539     0.1794    -4.5008 H       
  40 H40           -3.1225     0.0436    -3.6702 H       
  41 H41           -3.8541     1.8890    -2.2692 H       
  42 H42           -2.7963     3.3131    -2.1216 H       
  43 H43           -0.3711    -0.2444     0.0667 H       
  44 H44           -1.8779    -0.1823     1.0122 H       
  45 H45           -1.1604    -2.4045    -0.9511 H       
  46 H46            1.0593    -1.9570     0.4603 H       
  47 H47           -5.8854    -3.2940    -0.8764 H       
  48 H48           -3.1528    -2.5310     2.3283 H       
  49 H49            5.3911    -3.3260     2.8815 H       
  50 H50            6.1020    -4.7219     4.7884 H       
  51 H51            2.7613    -6.0546     7.4536 H       
  52 H52            2.9273    -7.4546     6.3669 H       
  53 H53            3.9046    -7.3595     7.8515 H       
  54 H54           -4.9376    -5.5263     2.5829 H       
  55 H55           -6.6715    -6.6182     4.0781 H       
  56 H56           -7.7849    -5.1661     3.8472 H       
  57 H57           -7.8193    -5.5902     1.3465 H       
  58 H58           -6.7058    -7.0422     1.5775 H       
@<TRIPOS>BOND
   1    1    2 1
   2    1    5 1
   3    1   34 1
   4    1   35 1
   5    2    3 1
   6    2    6 1
   7    2   36 1
   8    3    4 1
   9    3   37 1
  10    3   38 1
  11    4   17 1
  12    4   39 1
  13    4   40 1
  14    5   17 1
  15    5   41 1
  16    5   42 1
  17    6    7 1
  18    6   43 1
  19    6   44 1
  20    7    8 1
  21    7   11 1
  22    7   45 1
  23    8    9 am
  24    8   16 2
  25    9   10 1
  26    9   46 1
  27   10   18 2
  28   10   21 1
  29   11   12 1
  30   11   15 1
  31   12   13 2
  32   13   14 1
  33   13   47 1
  34   14   15 2
  35   14   28 1
  36   15   48 1
  37   18   19 1
  38   19   20 ar
  39   19   22 ar
  40   20   21 1
  41   20   25 ar
  42   22   23 ar
  43   22   49 1
  44   23   24 ar
  45   23   50 1
  46   24   25 ar
  47   24   26 1
  48   26   27 1
  49   27   51 1
  50   27   52 1
  51   27   53 1
  52   28   29 1
  53   28   30 2
  54   28   31 2
  55   29   32 1
  56   29   33 1
  57   29   54 1
  58   32   33 1
  59   32   55 1
  60   32   56 1
  61   33   57 1
  62   33   58 1

#	End of record

