#	Name: ASD04590205
#	Creating user name:	WinNT
#	Creation time:	15. 06. 2019 20:50

#	Modifying user name:	WinNT
#	Modification time:	15. 06. 2019 20:50

#	Program:	/corina/corina34_cracker 3.40 0067  02.08.2006

@<TRIPOS>MOLECULE
ASD04590205
  45   47    0    0    0
SMALL
NO_CHARGES


@<TRIPOS>ATOM
   1 N1            -0.0153     1.2802     0.0091 N.pl3   
   2 N2             0.0021    -0.0041     0.0020 N.2     
   3 C3             1.2455    -0.4440    -0.0122 C.2     
   4 C4             2.0903     0.6961    -0.0142 C.2     
   5 C5             1.2523     1.7667    -0.0004 C.2     
   6 C6             1.6765    -1.8547    -0.0235 C.2     
   7 N7             0.7571    -2.8402    -0.0200 N.am    
   8 N8             3.4930     0.7146    -0.0275 N.am    
   9 O9             2.8611    -2.1284    -0.0359 O.2     
  10 C10            4.1514     1.8906    -0.0274 C.2     
  11 C11            5.6264     1.9101    -0.0414 C.ar    
  12 O12            3.5296     2.9356    -0.0159 O.2     
  13 C13            1.1851    -4.2412    -0.0312 C.3     
  14 C14           -0.8307    -4.9570    -1.3237 C.3     
  15 C15           -0.0454    -5.1504    -0.0245 C.3     
  16 C16            6.3414     1.9129     1.1612 C.ar    
  17 C17            7.7233     1.9313     1.1389 C.ar    
  18 C18            8.3992     1.9473    -0.0677 C.ar    
  19 C19            7.7004     1.9452    -1.2612 C.ar    
  20 C20            6.3184     1.9201    -1.2574 C.ar    
  21 F21            5.6831     1.8982     2.3408 F       
  22 F22            5.6376     1.9176    -2.4243 F       
  23 N23           -2.0004    -5.8448    -1.3270 N.3     
  24 C24           -1.5964    -7.2555    -1.2706 C.3     
  25 C25           -0.8340    -7.5176     0.0302 C.3     
  26 C26            0.3992    -6.6116     0.0847 C.3     
  27 H27           -0.8184     1.8242     0.0160 H       
  28 H28            1.5405     2.8076     0.0024 H       
  29 H29           -0.1879    -2.6218    -0.0102 H       
  30 H30            3.9890    -0.1189    -0.0367 H       
  31 H31            1.7744    -4.4340    -0.9277 H       
  32 H32            1.7909    -4.4431     0.8522 H       
  33 H33           -1.1610    -3.9209    -1.3976 H       
  34 H34           -0.1913    -5.1957    -2.1736 H       
  35 H35           -0.6798    -4.8980     0.8252 H       
  36 H36            8.2768     1.9335     2.0662 H       
  37 H37            9.4791     1.9620    -0.0779 H       
  38 H38            8.2361     1.9585    -2.1989 H       
  39 H39           -2.6286    -5.6181    -0.5706 H       
  40 H40           -2.4829    -7.8888    -1.3058 H       
  41 H41           -0.9534    -7.4834    -2.1206 H       
  42 H42           -1.4810    -7.3030     0.8808 H       
  43 H43           -0.5208    -8.5610     0.0646 H       
  44 H44            1.0651    -6.8526    -0.7439 H       
  45 H45            0.9216    -6.7638     1.0292 H       
@<TRIPOS>BOND
   1    1    2 1
   2    1    5 1
   3    1   27 1
   4    2    3 2
   5    3    4 1
   6    3    6 1
   7    4    5 2
   8    4    8 1
   9    5   28 1
  10    6    7 am
  11    6    9 2
  12    7   13 1
  13    7   29 1
  14    8   10 am
  15    8   30 1
  16   10   11 1
  17   10   12 2
  18   11   16 ar
  19   11   20 ar
  20   13   15 1
  21   13   31 1
  22   13   32 1
  23   14   15 1
  24   14   23 1
  25   14   33 1
  26   14   34 1
  27   15   26 1
  28   15   35 1
  29   16   17 ar
  30   16   21 1
  31   17   18 ar
  32   17   36 1
  33   18   19 ar
  34   18   37 1
  35   19   20 ar
  36   19   38 1
  37   20   22 1
  38   23   24 1
  39   23   39 1
  40   24   25 1
  41   24   40 1
  42   24   41 1
  43   25   26 1
  44   25   42 1
  45   25   43 1
  46   26   44 1
  47   26   45 1

#	End of record

