#	Name: ASD08390071
#	Creating user name:	WinNT
#	Creation time:	15. 06. 2019 21:19

#	Modifying user name:	WinNT
#	Modification time:	15. 06. 2019 21:19

#	Program:	/corina/corina34_cracker 3.40 0067  02.08.2006

@<TRIPOS>MOLECULE
ASD08390071
  53   56    0    0    0
SMALL
NO_CHARGES


@<TRIPOS>ATOM
   1 C1            -0.1648     1.5262     0.0964 C.3     
   2 C2             0.0021    -0.0041     0.0020 C.3     
   3 N3             1.2235     2.0158     0.0485 N.pl3   
   4 C4             2.0540     0.9404    -0.0564 C.2     
   5 N5             1.4567    -0.1941    -0.0873 N.2     
   6 C6             3.5533     1.0736    -0.1302 C.3     
   7 C7            -0.9548     2.0491    -1.0756 C.ar    
   8 C8            -0.5524    -0.6832     1.2559 C.3     
   9 C9            -2.2993     2.3357    -0.9302 C.ar    
  10 C10           -3.0240     2.8153    -2.0052 C.ar    
  11 C11           -2.4040     3.0088    -3.2255 C.ar    
  12 C12           -1.0593     2.7231    -3.3706 C.ar    
  13 C13           -0.3337     2.2476    -2.2945 C.ar    
  14 C14            1.6403     3.4192     0.1042 C.3     
  15 C15            1.8599     3.8214     1.5399 C.ar    
  16 C16            3.1065     3.6687     2.1175 C.ar    
  17 C17            3.3080     4.0375     3.4344 C.ar    
  18 C18            2.2629     4.5595     4.1736 C.ar    
  19 C19            1.0166     4.7131     3.5957 C.ar    
  20 C20            0.8163     4.3482     2.2775 C.ar    
  21 C21            4.1744    -0.2951    -0.2401 C.ar    
  22 C22            4.3946    -0.8562    -1.4841 C.ar    
  23 C23            4.9643    -2.1117    -1.5850 C.ar    
  24 C24            5.3141    -2.8058    -0.4419 C.ar    
  25 C25            5.0947    -2.2443     0.8021 C.ar    
  26 C26            4.5290    -0.9870     0.9028 C.ar    
  27 C27           -0.6808    -0.5357    -1.2317 C.2     
  28 O28           -1.8198    -0.9338    -1.1677 O.2     
  29 O29           -0.0237    -0.5670    -2.4018 O.3     
  30 H30           -0.6394     1.8046     1.0373 H       
  31 H31            3.8228     1.6662    -1.0044 H       
  32 H32            3.9189     1.5672     0.7702 H       
  33 H33           -1.6120    -0.4488     1.3577 H       
  34 H34           -0.4256    -1.7625     1.1707 H       
  35 H35           -0.0145    -0.3223     2.1326 H       
  36 H36           -2.7837     2.1845     0.0232 H       
  37 H37           -4.0745     3.0386    -1.8918 H       
  38 H38           -2.9704     3.3829    -4.0656 H       
  39 H39           -0.5751     2.8740    -4.3241 H       
  40 H40            0.7169     2.0244    -2.4078 H       
  41 H41            2.5678     3.5451    -0.4543 H       
  42 H42            0.8641     4.0464    -0.3341 H       
  43 H43            3.9230     3.2608     1.5400 H       
  44 H44            4.2817     3.9176     3.8859 H       
  45 H45            2.4202     4.8471     5.2026 H       
  46 H46            0.2001     5.1206     4.1733 H       
  47 H47           -0.1575     4.4682     1.8260 H       
  48 H48            4.1213    -0.3139    -2.3772 H       
  49 H49            5.1357    -2.5504    -2.5568 H       
  50 H50            5.7585    -3.7870    -0.5206 H       
  51 H51            5.3678    -2.7867     1.6952 H       
  52 H52            4.3576    -0.5483     1.8747 H       
  53 H53           -0.5031    -0.9166    -3.1653 H       
@<TRIPOS>BOND
   1    1    2 1
   2    1    3 1
   3    1    7 1
   4    1   30 1
   5    2    8 1
   6    2   27 1
   7    2    5 1
   8    3    4 1
   9    3   14 1
  10    4    5 2
  11    4    6 1
  12    6   21 1
  13    6   31 1
  14    6   32 1
  15    7    9 ar
  16    7   13 ar
  17    8   33 1
  18    8   34 1
  19    8   35 1
  20    9   10 ar
  21    9   36 1
  22   10   11 ar
  23   10   37 1
  24   11   12 ar
  25   11   38 1
  26   12   13 ar
  27   12   39 1
  28   13   40 1
  29   14   15 1
  30   14   41 1
  31   14   42 1
  32   15   16 ar
  33   15   20 ar
  34   16   17 ar
  35   16   43 1
  36   17   18 ar
  37   17   44 1
  38   18   19 ar
  39   18   45 1
  40   19   20 ar
  41   19   46 1
  42   20   47 1
  43   21   22 ar
  44   21   26 ar
  45   22   23 ar
  46   22   48 1
  47   23   24 ar
  48   23   49 1
  49   24   25 ar
  50   24   50 1
  51   25   26 ar
  52   25   51 1
  53   26   52 1
  54   27   28 2
  55   27   29 1
  56   29   53 1

#	End of record

