#	Name: ASD03451022
#	Creating user name:	WinNT
#	Creation time:	15. 06. 2019 20:42

#	Modifying user name:	WinNT
#	Modification time:	15. 06. 2019 20:42

#	Program:	/corina/corina34_cracker 3.40 0067  02.08.2006

@<TRIPOS>MOLECULE
ASD03451022
  46   49    0    0    0
SMALL
NO_CHARGES


@<TRIPOS>ATOM
   1 C1            -0.0015     1.6149     0.0514 C.ar    
   2 C2            -0.0341     0.2331    -0.0134 C.ar    
   3 C3             1.1559    -0.4692    -0.0581 C.ar    
   4 C4             2.3644     0.2429    -0.0365 C.ar    
   5 C5             2.3221     1.6417     0.0233 C.ar    
   6 N6             1.1395     2.2664     0.0679 N.ar    
   7 C7             3.6176    -0.5258    -0.0726 C.2     
   8 N8             4.6692    -0.2331     0.6231 N.2     
   9 C9             4.6937     0.9305     1.5098 C.3     
  10 C10            4.5149     2.1739     0.6841 C.2     
  11 N11            3.4335     2.4191     0.0330 N.2     
  12 C12            3.6798    -1.7025    -0.9551 C.2     
  13 C13            3.5737     0.8248     2.5125 C.2     
  14 C14            4.7533    -2.5275    -1.1149 C.2     
  15 C15            4.3729    -3.5106    -2.0449 C.2     
  16 C16            3.0998    -3.2436    -2.4058 C.2     
  17 O17            2.6833    -2.1556    -1.7419 O.3     
  18 S18            2.6808     2.1869     3.1743 S.3     
  19 C19            1.6921     1.1106     4.1521 C.2     
  20 C20            2.0694    -0.1659     3.9390 C.2     
  21 C21            3.1115    -0.3130     3.0227 C.2     
  22 C22            1.4496    -1.2780     4.5944 C.1     
  23 C23            0.9415    -2.1898     5.1317 C.1     
  24 C24            0.3044    -3.3330     5.8055 C.3     
  25 C25            0.9666    -4.6320     5.3418 C.3     
  26 O26            0.4581    -3.1985     7.2198 O.3     
  27 N27            5.5367     3.0750     0.6239 N.pl3   
  28 C28            5.3907     4.2957    -0.1729 C.3     
  29 H29           -0.9290     2.1672     0.0845 H       
  30 H30           -0.9784    -0.2908    -0.0285 H       
  31 H31            1.1552    -1.5480    -0.1084 H       
  32 H32            5.6502     0.9725     2.0308 H       
  33 H33            5.7108    -2.4420    -0.6227 H       
  34 H34            4.9842    -4.3256    -2.4034 H       
  35 H35            2.5122    -3.8146    -3.1094 H       
  36 H36            0.9041     1.4240     4.8209 H       
  37 H37            3.5170    -1.2772     2.7541 H       
  38 H38           -0.7564    -3.3567     5.5559 H       
  39 H39            2.0273    -4.6083     5.5913 H       
  40 H40            0.4948    -5.4785     5.8407 H       
  41 H41            0.8493    -4.7346     4.2630 H       
  42 H42            0.0612    -3.9185     7.7288 H       
  43 H43            6.3601     2.9077     1.1085 H       
  44 H44            5.2119     4.0303    -1.2148 H       
  45 H45            4.5490     4.8769     0.2037 H       
  46 H46            6.3028     4.8882    -0.1002 H       
@<TRIPOS>BOND
   1    1    2 ar
   2    1    6 ar
   3    1   29 1
   4    2    3 ar
   5    2   30 1
   6    3    4 ar
   7    3   31 1
   8    4    5 ar
   9    4    7 1
  10    5    6 ar
  11    5   11 1
  12    7    8 2
  13    7   12 1
  14    8    9 1
  15    9   10 1
  16    9   13 1
  17    9   32 1
  18   10   11 2
  19   10   27 1
  20   12   14 2
  21   12   17 1
  22   13   18 1
  23   13   21 2
  24   14   15 1
  25   14   33 1
  26   15   16 2
  27   15   34 1
  28   16   17 1
  29   16   35 1
  30   18   19 1
  31   19   20 2
  32   19   36 1
  33   20   21 1
  34   20   22 1
  35   21   37 1
  36   22   23 3
  37   23   24 1
  38   24   25 1
  39   24   26 1
  40   24   38 1
  41   25   39 1
  42   25   40 1
  43   25   41 1
  44   26   42 1
  45   27   28 1
  46   27   43 1
  47   28   44 1
  48   28   45 1
  49   28   46 1

#	End of record

