#	Name: ASD01870703
#	Creating user name:	WinNT
#	Creation time:	15. 06. 2019 19:39

#	Modifying user name:	WinNT
#	Modification time:	15. 06. 2019 19:39

#	Program:	/corina/corina34_cracker 3.40 0067  02.08.2006

@<TRIPOS>MOLECULE
ASD01870703
  45   48    0    0    0
SMALL
NO_CHARGES


@<TRIPOS>ATOM
   1 C1            -0.0813     1.6307    -0.0204 C.ar    
   2 C2            -0.1361     0.2494     0.1885 C.ar    
   3 C3             2.2659     0.1632     0.2884 C.ar    
   4 C4             2.3188     1.5443     0.0782 C.ar    
   5 C5             1.1353     2.2710    -0.0746 C.ar    
   6 C6            -1.2666    -0.6923     0.2913 C.2     
   7 N7            -0.8162    -1.9416     0.4979 N.am    
   8 C8             0.6499    -1.9134     0.5463 C.3     
   9 C9             1.0511    -0.4737     0.3414 C.ar    
  10 C10            3.6241     2.2348     0.0206 C.2     
  11 O11            4.0180     3.1392    -0.8942 O.3     
  12 N12            5.1416     3.5309    -0.6817 N.2     
  13 C13            5.6609     2.9646     0.3804 C.2     
  14 C14            4.6682     2.0858     0.8893 C.2     
  15 C15           -1.6519    -3.1353     0.6501 C.3     
  16 C16           -2.5790    -2.9585     1.8543 C.3     
  17 C17           -2.4902    -3.3356    -0.6140 C.3     
  18 O18           -2.4387    -0.3826     0.2020 O.2     
  19 C19            4.7483     1.1956     2.1026 C.3     
  20 C20            7.0141     3.1992     0.9420 C.ar    
  21 C21            7.8167     2.1197     1.3059 C.ar    
  22 C22            9.0740     2.3420     1.8278 C.ar    
  23 C23            9.5408     3.6368     1.9915 C.ar    
  24 C24            8.7485     4.7141     1.6320 C.ar    
  25 C25            7.4893     4.5014     1.1023 C.ar    
  26 F26            6.7185     5.5521     0.7458 F       
  27 F27           10.7728     3.8486     2.5040 F       
  28 H28           -0.9941     2.1947    -0.1438 H       
  29 H29            3.1788    -0.4016     0.4068 H       
  30 H30            1.1756     3.3381    -0.2360 H       
  31 H31            0.9995    -2.2652     1.5169 H       
  32 H32            1.0630    -2.5342    -0.2487 H       
  33 H33           -1.0158    -4.0066     0.8061 H       
  34 H34           -3.2151    -2.0872     1.6983 H       
  35 H35           -3.2007    -3.8466     1.9676 H       
  36 H36           -1.9818    -2.8159     2.7549 H       
  37 H37           -1.8297    -3.4615    -1.4719 H       
  38 H38           -3.1120    -4.2236    -0.5007 H       
  39 H39           -3.1263    -2.4642    -0.7699 H       
  40 H40            5.0623     0.1966     1.8002 H       
  41 H41            5.4716     1.6060     2.8073 H       
  42 H42            3.7690     1.1404     2.5780 H       
  43 H43            7.4545     1.1101     1.1798 H       
  44 H44            9.6959     1.5053     2.1097 H       
  45 H45            9.1163     5.7212     1.7613 H       
@<TRIPOS>BOND
   1    1    2 ar
   2    1    5 ar
   3    1   28 1
   4    2    9 ar
   5    2    6 1
   6    3    4 ar
   7    3    9 ar
   8    3   29 1
   9    4    5 ar
  10    4   10 1
  11    5   30 1
  12    6    7 am
  13    6   18 2
  14    7    8 1
  15    7   15 1
  16    8    9 1
  17    8   31 1
  18    8   32 1
  19   10   11 1
  20   10   14 2
  21   11   12 1
  22   12   13 2
  23   13   14 1
  24   13   20 1
  25   14   19 1
  26   15   16 1
  27   15   17 1
  28   15   33 1
  29   16   34 1
  30   16   35 1
  31   16   36 1
  32   17   37 1
  33   17   38 1
  34   17   39 1
  35   19   40 1
  36   19   41 1
  37   19   42 1
  38   20   21 ar
  39   20   25 ar
  40   21   22 ar
  41   21   43 1
  42   22   23 ar
  43   22   44 1
  44   23   24 ar
  45   23   27 1
  46   24   25 ar
  47   24   45 1
  48   25   26 1

#	End of record

