#	Name: ASD01230236
#	Creating user name:	WinNT
#	Creation time:	15. 06. 2019 19:12

#	Modifying user name:	WinNT
#	Modification time:	15. 06. 2019 19:12

#	Program:	/corina/corina34_cracker 3.40 0067  02.08.2006

@<TRIPOS>MOLECULE
ASD01230236
  34   36    0    0    0
SMALL
NO_CHARGES


@<TRIPOS>ATOM
   1 C1            -0.2105     1.3426     1.5460 C.ar    
   2 C2            -0.1487     0.1191     0.8636 C.ar    
   3 C3             1.0862    -0.3286     0.3950 C.ar    
   4 C4             2.2037     0.4590     0.6254 C.ar    
   5 C5             2.0646     1.6530     1.3056 C.ar    
   6 N6             0.8856     2.0573     1.7403 N.ar    
   7 N7            -1.4306     1.8095     2.0157 N.pl3   
   8 C8            -1.3751    -0.6849     0.6443 C.ar    
   9 C9            -1.6790    -1.1621    -0.6299 C.ar    
  10 C10           -2.8204    -1.9095    -0.8306 C.ar    
  11 C11           -3.6665    -2.1871     0.2347 C.ar    
  12 C12           -3.3666    -1.7133     1.5050 C.ar    
  13 C13           -2.2237    -0.9701     1.7131 C.ar    
  14 O14           -4.7906    -2.9234     0.0337 O.3     
  15 C15           -5.9411    -2.2636    -0.2617 C.ar    
  16 C16           -5.9238    -0.8899    -0.4572 C.ar    
  17 C17           -7.0957    -0.2213    -0.7577 C.ar    
  18 C18           -8.2852    -0.9211    -0.8629 C.ar    
  19 C19           -8.3040    -2.2896    -0.6684 C.ar    
  20 C20           -7.1341    -2.9631    -0.3740 C.ar    
  21 Cl21          -7.0756     1.4973    -1.0026 Cl      
  22 H22            1.1700    -1.2663    -0.1342 H       
  23 H23            3.1751     0.1413     0.2762 H       
  24 H24            2.9353     2.2663     1.4850 H       
  25 H25           -2.2369     1.2899     1.8714 H       
  26 H26           -1.4769     2.6554     2.4881 H       
  27 H27           -1.0215    -0.9462    -1.4590 H       
  28 H28           -3.0566    -2.2791    -1.8176 H       
  29 H29           -4.0266    -1.9308     2.3316 H       
  30 H30           -1.9884    -0.6060     2.7023 H       
  31 H31           -4.9957    -0.3438    -0.3744 H       
  32 H32           -9.2001    -0.3972    -1.0970 H       
  33 H33           -9.2334    -2.8334    -0.7511 H       
  34 H34           -7.1489    -4.0330    -0.2270 H       
@<TRIPOS>BOND
   1    1    2 ar
   2    1    6 ar
   3    1    7 1
   4    2    3 ar
   5    2    8 1
   6    3    4 ar
   7    3   22 1
   8    4    5 ar
   9    4   23 1
  10    5    6 ar
  11    5   24 1
  12    7   25 1
  13    7   26 1
  14    8    9 ar
  15    8   13 ar
  16    9   10 ar
  17    9   27 1
  18   10   11 ar
  19   10   28 1
  20   11   12 ar
  21   11   14 1
  22   12   13 ar
  23   12   29 1
  24   13   30 1
  25   14   15 1
  26   15   16 ar
  27   15   20 ar
  28   16   17 ar
  29   16   31 1
  30   17   18 ar
  31   17   21 1
  32   18   19 ar
  33   18   32 1
  34   19   20 ar
  35   19   33 1
  36   20   34 1

#	End of record

