#	Name: ASD00843358
#	Creating user name:	WinNT
#	Creation time:	15. 06. 2019 18:46

#	Modifying user name:	WinNT
#	Modification time:	15. 06. 2019 18:46

#	Program:	/corina/corina34_cracker 3.40 0067  02.08.2006

@<TRIPOS>MOLECULE
ASD00843358
  98  103    0    0    0
SMALL
NO_CHARGES


@<TRIPOS>ATOM
   1 N1             0.9930     1.1258     0.0118 N.ar    
   2 C2             1.1764    -0.1307    -0.3577 C.ar    
   3 C3             1.0452    -1.1649     0.5606 C.ar    
   4 C4             0.7192    -0.8640     1.8713 C.ar    
   5 C5             0.5350     0.4674     2.2189 C.ar    
   6 C6             0.6814     1.4438     1.2541 C.ar    
   7 C7             1.2547    -2.5952     0.1349 C.3     
   8 C8             0.9144    -3.5410     1.2669 C.2     
   9 C9             0.4124    -2.9140    -1.1020 C.3     
  10 C10           -1.0315    -2.5825    -0.8255 C.2     
  11 N11           -1.9789    -2.8879    -1.7341 N.am    
  12 O12           -1.3409    -2.0408     0.2145 O.2     
  13 C13           -3.3729    -2.4702    -1.5314 C.3     
  14 C14           -4.2780    -3.7009    -1.6455 C.3     
  15 C15           -4.0188    -4.3975    -2.9833 C.3     
  16 C16           -2.5619    -4.8620    -3.0446 C.3     
  17 C17           -1.6363    -3.6397    -2.9491 C.3     
  18 N18           -4.9087    -5.5594    -3.1105 N.3     
  19 C19           -4.7723    -6.1847    -4.4334 C.3     
  20 C20           -5.6540    -7.4342    -4.4974 C.3     
  21 N21           -7.0507    -7.0588    -4.2369 N.3     
  22 C22           -7.1870    -6.4334    -2.9140 C.3     
  23 C23           -6.3054    -5.1840    -2.8501 C.3     
  24 C24           -7.9406    -8.2206    -4.3641 C.3     
  25 O25           -0.1669    -3.6637     1.8023 O.2     
  26 N26            2.0344    -4.2196     1.5667 N.am    
  27 C27            2.7187    -2.8589    -0.1350 C.ar    
  28 C28            3.1102    -3.8461     0.7661 C.ar    
  29 C29            3.6096    -2.3277    -1.0329 C.ar    
  30 C30            4.9339    -2.7797    -1.0498 C.ar    
  31 C31            5.3347    -3.7719    -0.1468 C.ar    
  32 C32            4.4296    -4.2986     0.7496 C.ar    
  33 F33            6.6109    -4.2150    -0.1551 F       
  34 C34            1.7343    -6.9189     2.0115 C.ar    
  35 C35            0.4632    -7.1423     1.5019 C.ar    
  36 C36            2.6957    -7.9084     1.9317 C.ar    
  37 C37            2.3943    -9.1219     1.3442 C.ar    
  38 C38            1.1243    -9.3502     0.8329 C.ar    
  39 C39            0.1581    -8.3595     0.9121 C.ar    
  40 O40            0.8282   -10.5443     0.2555 O.3     
  41 O41           -0.4819    -6.1690     1.5810 O.3     
  42 C42           -1.7685    -6.4682     1.0358 C.3     
  43 C43            1.8722   -11.5189     0.2088 C.3     
  44 C44           -9.3625    -7.8201    -3.9656 C.3     
  45 C45           -7.9360    -8.7102    -5.8137 C.3     
  46 O46            1.4953    -0.4125    -1.6460 O.3     
  47 C47            1.5765     0.6908    -2.5505 C.3     
  48 C48            2.0390     0.1934    -3.9214 C.3     
  49 F49            3.2575    -0.4806    -3.7863 F       
  50 F50            1.0801    -0.6779    -4.4492 F       
  51 C51            5.8716    -2.2321    -1.9834 C.1     
  52 N52            6.6154    -1.7977    -2.7240 N.1     
  53 S53            2.1250    -5.3698     2.7546 S.o2    
  54 O54            3.4910    -5.4425     3.1393 O.2     
  55 O55            1.0742    -5.0866     3.6683 O.2     
  56 H56            0.6102    -1.6471     2.6070 H       
  57 H57            0.2795     0.7364     3.2332 H       
  58 H58            0.5396     2.4810     1.5193 H       
  59 H59            0.7663    -2.3211    -1.9453 H       
  60 H60            0.5027    -3.9740    -1.3397 H       
  61 H61           -3.4813    -2.0274    -0.5413 H       
  62 H62           -3.6502    -1.7409    -2.2925 H       
  63 H63           -4.0607    -4.3893    -0.8287 H       
  64 H64           -5.3217    -3.3911    -1.5928 H       
  65 H65           -4.2125    -3.7009    -3.7989 H       
  66 H66           -2.3607    -5.5395    -2.2147 H       
  67 H67           -2.3841    -5.3786    -3.9878 H       
  68 H68           -1.7734    -3.0081    -3.8268 H       
  69 H69           -0.5991    -3.9702    -2.8926 H       
  70 H70           -5.0851    -5.4792    -5.2031 H       
  71 H71           -3.7319    -6.4651    -4.5976 H       
  72 H72           -5.5768    -7.8834    -5.4874 H       
  73 H73           -5.3239    -8.1511    -3.7456 H       
  74 H74           -8.2275    -6.1531    -2.7498 H       
  75 H75           -6.8743    -7.1390    -2.1443 H       
  76 H76           -6.3826    -4.7347    -1.8600 H       
  77 H77           -6.6355    -4.4671    -3.6018 H       
  78 H78           -7.5912    -9.0193    -3.7098 H       
  79 H79            3.2896    -1.5630    -1.7252 H       
  80 H80            4.7441    -5.0638     1.4438 H       
  81 H81            3.6845    -7.7326     2.3289 H       
  82 H82            3.1476    -9.8934     1.2823 H       
  83 H83           -0.8308    -8.5354     0.5152 H       
  84 H84           -2.4263    -5.6087     1.1641 H       
  85 H85           -1.6694    -6.6947    -0.0258 H       
  86 H86           -2.1910    -7.3296     1.5531 H       
  87 H87            2.7154   -11.1215    -0.3561 H       
  88 H88            2.1937   -11.7558     1.2231 H       
  89 H89            1.5038   -12.4230    -0.2760 H       
  90 H90           -9.3657    -7.4713    -2.9330 H       
  91 H91           -9.7118    -7.0214    -4.6200 H       
  92 H92          -10.0227    -8.6822    -4.0601 H       
  93 H93           -6.9230    -8.9955    -6.0976 H       
  94 H94           -8.5963    -9.5723    -5.9081 H       
  95 H95           -8.2854    -7.9115    -6.4680 H       
  96 H96            0.5954     1.1562    -2.6448 H       
  97 H97            2.2901     1.4213    -2.1693 H       
  98 H98            2.1663     1.0431    -4.5923 H       
@<TRIPOS>BOND
   1    1    2 ar
   2    1    6 ar
   3    2    3 ar
   4    2   46 1
   5    3    4 ar
   6    3    7 1
   7    4    5 ar
   8    4   56 1
   9    5    6 ar
  10    5   57 1
  11    6   58 1
  12    7    8 1
  13    7    9 1
  14    7   27 1
  15    8   25 2
  16    8   26 am
  17    9   10 1
  18    9   59 1
  19    9   60 1
  20   10   11 am
  21   10   12 2
  22   11   13 1
  23   11   17 1
  24   13   14 1
  25   13   61 1
  26   13   62 1
  27   14   15 1
  28   14   63 1
  29   14   64 1
  30   15   16 1
  31   15   18 1
  32   15   65 1
  33   16   17 1
  34   16   66 1
  35   16   67 1
  36   17   68 1
  37   17   69 1
  38   18   19 1
  39   18   23 1
  40   19   20 1
  41   19   70 1
  42   19   71 1
  43   20   21 1
  44   20   72 1
  45   20   73 1
  46   21   22 1
  47   21   24 1
  48   22   23 1
  49   22   74 1
  50   22   75 1
  51   23   76 1
  52   23   77 1
  53   24   44 1
  54   24   45 1
  55   24   78 1
  56   26   53 am
  57   26   28 1
  58   27   28 ar
  59   27   29 ar
  60   28   32 ar
  61   29   30 ar
  62   29   79 1
  63   30   31 ar
  64   30   51 1
  65   31   32 ar
  66   31   33 1
  67   32   80 1
  68   34   35 ar
  69   34   36 ar
  70   34   53 1
  71   35   41 1
  72   35   39 ar
  73   36   37 ar
  74   36   81 1
  75   37   38 ar
  76   37   82 1
  77   38   39 ar
  78   38   40 1
  79   39   83 1
  80   40   43 1
  81   41   42 1
  82   42   84 1
  83   42   85 1
  84   42   86 1
  85   43   87 1
  86   43   88 1
  87   43   89 1
  88   44   90 1
  89   44   91 1
  90   44   92 1
  91   45   93 1
  92   45   94 1
  93   45   95 1
  94   46   47 1
  95   47   48 1
  96   47   96 1
  97   47   97 1
  98   48   49 1
  99   48   50 1
 100   48   98 1
 101   51   52 3
 102   53   54 2
 103   53   55 2

#	End of record

