#	Name: ASD01820189
#	Creating user name:	WinNT
#	Creation time:	15. 06. 2019 19:36

#	Modifying user name:	WinNT
#	Modification time:	15. 06. 2019 19:36

#	Program:	/corina/corina34_cracker 3.40 0067  02.08.2006

@<TRIPOS>MOLECULE
ASD01820189
  96  100    0    0    0
SMALL
NO_CHARGES


@<TRIPOS>ATOM
   1 N1            -2.7394     4.0366    -2.2497 N.am    
   2 C2            -3.3687     2.9507    -2.7376 C.2     
   3 C3            -1.2782     4.0180    -2.1463 C.3     
   4 C4            -0.6682     4.5519    -3.4438 C.3     
   5 C5             0.8579     4.5325    -3.3357 C.3     
   6 N6             1.4436     5.0451    -4.5815 N.4     
   7 C7             2.9088     5.0264    -4.4778 C.3     
   8 C8             3.5188     5.5604    -5.7753 C.3     
   9 C9             5.0449     5.5409    -5.6672 C.3     
  10 C10            5.6549     6.0749    -6.9648 C.3     
  11 C11            7.1810     6.0554    -6.8567 C.3     
  12 C12            7.7910     6.5894    -8.1543 C.3     
  13 N13            9.2562     6.5707    -8.0505 N.4     
  14 C14            9.8419     7.0833    -9.2963 C.3     
  15 C15           11.2446     7.6257    -9.0150 C.3     
  16 N16           13.2691     8.5069   -10.0670 N.am    
  17 O17           -2.7215     1.9802    -3.0813 O.2     
  18 C18           11.9259     7.9876   -10.3363 C.3     
  19 C19           14.3782     7.7488    -9.9965 C.2     
  20 C20           15.5318     8.6274    -9.7098 C.ar    
  21 C21           15.0090     9.9338    -9.6215 C.ar    
  22 C22           13.5564     9.8052    -9.8633 C.2     
  23 C23           16.8891     8.4151    -9.5323 C.ar    
  24 C24           17.7243     9.4901    -9.2689 C.ar    
  25 C25           17.2119    10.7706    -9.1824 C.ar    
  26 C26           15.8554    10.9981    -9.3574 C.ar    
  27 O27           14.4239     6.5441   -10.1434 O.2     
  28 O28           12.7553    10.7179    -9.8692 O.2     
  29 C29            9.6783     7.4170    -6.9264 C.3     
  30 C30            9.7136     5.1930    -7.8250 C.3     
  31 C31            1.0215     4.1988    -5.7056 C.3     
  32 C32            0.9862     6.4228    -4.8071 C.3     
  33 C33           -4.8341     2.9317    -2.8567 C.ar    
  34 C34           -5.5626     4.0726    -2.4497 C.ar    
  35 C35           -4.8700     5.1954    -1.9421 C.ar    
  36 C36           -3.4030     5.1411    -1.8586 C.2     
  37 O37           -2.7863     6.0953    -1.4250 O.2     
  38 C38           -5.5227     1.8349    -3.3530 C.ar    
  39 C39           -6.9094     1.8648    -3.4463 C.ar    
  40 C40           -7.6291     2.9581    -3.0580 C.ar    
  41 C41           -6.9692     4.0908    -2.5498 C.ar    
  42 C42           -7.6652     5.2404    -2.1368 C.ar    
  43 C43           -6.9798     6.3162    -1.6500 C.ar    
  44 C44           -5.5937     6.3101    -1.5454 C.ar    
  45 C45           11.1421     8.8734    -8.1356 C.3     
  46 C46           12.0686     6.5583    -8.2920 C.3     
  47 H47           -0.9650     4.6459    -1.3122 H       
  48 H48           -0.9388     2.9958    -1.9789 H       
  49 H49           -0.9814     3.9240    -4.2779 H       
  50 H50           -1.0076     5.5741    -3.6111 H       
  51 H51            1.1711     5.1604    -2.5016 H       
  52 H52            1.1972     3.5102    -3.1684 H       
  53 H53            3.2220     5.6544    -3.6437 H       
  54 H54            3.2482     4.0042    -4.3105 H       
  55 H55            3.2056     4.9324    -6.6094 H       
  56 H56            3.1794     6.5826    -5.9427 H       
  57 H57            5.3581     6.1689    -4.8332 H       
  58 H58            5.3843     4.5187    -5.4999 H       
  59 H59            5.3417     5.4469    -7.7989 H       
  60 H60            5.3155     7.0971    -7.1321 H       
  61 H61            7.4942     6.6834    -6.0226 H       
  62 H62            7.5203     5.0332    -6.6894 H       
  63 H63            7.4778     5.9614    -8.9884 H       
  64 H64            7.4516     7.6116    -8.3216 H       
  65 H65            9.9039     6.2772   -10.0274 H       
  66 H66            9.2152     7.8835    -9.6901 H       
  67 H67           11.9990     7.0986   -10.9629 H       
  68 H68           11.3390     8.7480   -10.8514 H       
  69 H69           17.2950     7.4165    -9.5985 H       
  70 H70           18.7826     9.3255    -9.1301 H       
  71 H71           17.8726    11.5998    -8.9768 H       
  72 H72           15.4605    12.0010    -9.2887 H       
  73 H73            9.1341     7.1257    -6.0280 H       
  74 H74           10.7482     7.2923    -6.7595 H       
  75 H75            9.4658     8.4607    -7.1576 H       
  76 H76            9.5055     4.5917    -8.7099 H       
  77 H77           10.7860     5.1936    -7.6301 H       
  78 H78            9.1887     4.7717    -6.9677 H       
  79 H79           -0.0657     4.2127    -5.7826 H       
  80 H80            1.4561     4.5792    -6.6300 H       
  81 H81            1.3608     3.1766    -5.5383 H       
  82 H82            1.2994     7.0507    -3.9730 H       
  83 H83            1.4208     6.8032    -5.7315 H       
  84 H84           -0.1010     6.4366    -4.8840 H       
  85 H85           -4.9804     0.9557    -3.6680 H       
  86 H86           -7.4300     1.0024    -3.8357 H       
  87 H87           -8.7058     2.9531    -3.1419 H       
  88 H88           -8.7426     5.2727    -2.2050 H       
  89 H89           -7.5280     7.1926    -1.3373 H       
  90 H90           -5.0789     7.1760    -1.1561 H       
  91 H91           11.1017     8.5769    -7.0875 H       
  92 H92           12.0137     9.5069    -8.3006 H       
  93 H93           10.2380     9.4255    -8.3921 H       
  94 H94           11.8346     5.5771    -8.7049 H       
  95 H95           13.1301     6.7656    -8.4269 H       
  96 H96           11.8280     6.5719    -7.2289 H       
@<TRIPOS>BOND
   1    1    2 am
   2    1    3 1
   3    1   36 am
   4    2   17 2
   5    2   33 1
   6    3    4 1
   7    3   47 1
   8    3   48 1
   9    4    5 1
  10    4   49 1
  11    4   50 1
  12    5    6 1
  13    5   51 1
  14    5   52 1
  15    6    7 1
  16    6   31 1
  17    6   32 1
  18    7    8 1
  19    7   53 1
  20    7   54 1
  21    8    9 1
  22    8   55 1
  23    8   56 1
  24    9   10 1
  25    9   57 1
  26    9   58 1
  27   10   11 1
  28   10   59 1
  29   10   60 1
  30   11   12 1
  31   11   61 1
  32   11   62 1
  33   12   13 1
  34   12   63 1
  35   12   64 1
  36   13   14 1
  37   13   29 1
  38   13   30 1
  39   14   15 1
  40   14   65 1
  41   14   66 1
  42   15   18 1
  43   15   45 1
  44   15   46 1
  45   16   19 am
  46   16   18 1
  47   16   22 am
  48   18   67 1
  49   18   68 1
  50   19   20 1
  51   19   27 2
  52   20   21 ar
  53   20   23 ar
  54   21   22 1
  55   21   26 ar
  56   22   28 2
  57   23   24 ar
  58   23   69 1
  59   24   25 ar
  60   24   70 1
  61   25   26 ar
  62   25   71 1
  63   26   72 1
  64   29   73 1
  65   29   74 1
  66   29   75 1
  67   30   76 1
  68   30   77 1
  69   30   78 1
  70   31   79 1
  71   31   80 1
  72   31   81 1
  73   32   82 1
  74   32   83 1
  75   32   84 1
  76   33   34 ar
  77   33   38 ar
  78   34   35 ar
  79   34   41 ar
  80   35   36 1
  81   35   44 ar
  82   36   37 2
  83   38   39 ar
  84   38   85 1
  85   39   40 ar
  86   39   86 1
  87   40   41 ar
  88   40   87 1
  89   41   42 ar
  90   42   43 ar
  91   42   88 1
  92   43   44 ar
  93   43   89 1
  94   44   90 1
  95   45   91 1
  96   45   92 1
  97   45   93 1
  98   46   94 1
  99   46   95 1
 100   46   96 1

#	End of record

