#	Name: ASD01920042
#	Creating user name:	WinNT
#	Creation time:	15. 06. 2019 20:11

#	Modifying user name:	WinNT
#	Modification time:	15. 06. 2019 20:11

#	Program:	/corina/corina34_cracker 3.40 0067  02.08.2006

@<TRIPOS>MOLECULE
ASD01920042
  37   39    0    0    0
SMALL
NO_CHARGES


@<TRIPOS>ATOM
   1 C1            -0.0169     1.3978     0.0097 C.2     
   2 C2             0.0021    -0.0041     0.0020 C.2     
   3 N3             1.1454    -0.6498    -0.0124 N.2     
   4 C4             2.3064     0.0125    -0.0199 C.2     
   5 N5             2.3291     1.3834    -0.0128 N.pl3   
   6 C6             1.1545     2.0800     0.0022 C.2     
   7 C7            -1.2942    -0.7726     0.0108 C.3     
   8 C8             3.6401    -0.4137    -0.0353 C.2     
   9 C9             4.4414     0.7323    -0.0371 C.2     
  10 N10            3.6675     1.7911    -0.0238 N.2     
  11 C11            5.9483     0.7481    -0.0512 C.3     
  12 C12            4.1141    -1.8178    -0.0475 C.ar    
  13 C13            4.8098    -2.3107    -1.1506 C.ar    
  14 C14            5.2501    -3.6186    -1.1595 C.ar    
  15 C15            5.0012    -4.4438    -0.0730 C.ar    
  16 C16            4.3079    -3.9568     1.0291 C.ar    
  17 C17            3.8700    -2.6474     1.0470 C.ar    
  18 O18            5.4359    -5.7323    -0.0860 O.3     
  19 C19            6.1413    -6.1674    -1.2502 C.3     
  20 F20            4.0672    -4.7635     2.0858 F       
  21 C21            1.1605     3.5869     0.0097 C.3     
  22 F22           -0.1565     4.0585     0.0244 F       
  23 F23            1.8325     4.0449     1.1481 F       
  24 F24            1.8112     4.0564    -1.1363 F       
  25 H25           -0.9569     1.9297     0.0171 H       
  26 H26           -1.6169    -0.9524    -1.0147 H       
  27 H27           -1.1478    -1.7262     0.5181 H       
  28 H28           -2.0554    -0.1951     0.5353 H       
  29 H29            6.3019     0.7570    -1.0822 H       
  30 H30            6.3071     1.6393     0.4638 H       
  31 H31            6.3257    -0.1406     0.4547 H       
  32 H32            5.0037    -1.6695    -1.9977 H       
  33 H33            5.7890    -4.0003    -2.0141 H       
  34 H34            3.3314    -2.2688     1.9031 H       
  35 H35            5.4974    -6.0667    -2.1239 H       
  36 H36            7.0336    -5.5558    -1.3840 H       
  37 H37            6.4309    -7.2114    -1.1306 H       
@<TRIPOS>BOND
   1    1    2 1
   2    1    6 2
   3    1   25 1
   4    2    3 2
   5    2    7 1
   6    3    4 1
   7    4    5 1
   8    4    8 2
   9    5    6 1
  10    5   10 1
  11    6   21 1
  12    7   26 1
  13    7   27 1
  14    7   28 1
  15    8    9 1
  16    8   12 1
  17    9   10 2
  18    9   11 1
  19   11   29 1
  20   11   30 1
  21   11   31 1
  22   12   13 ar
  23   12   17 ar
  24   13   14 ar
  25   13   32 1
  26   14   15 ar
  27   14   33 1
  28   15   16 ar
  29   15   18 1
  30   16   17 ar
  31   16   20 1
  32   17   34 1
  33   18   19 1
  34   19   35 1
  35   19   36 1
  36   19   37 1
  37   21   22 1
  38   21   23 1
  39   21   24 1

#	End of record

