#	Name: ASD01812831
#	Creating user name:	WinNT
#	Creation time:	15. 06. 2019 19:29

#	Modifying user name:	WinNT
#	Modification time:	15. 06. 2019 19:29

#	Program:	/corina/corina34_cracker 3.40 0067  02.08.2006

@<TRIPOS>MOLECULE
ASD01812831
  63   67    0    0    0
SMALL
NO_CHARGES


@<TRIPOS>ATOM
   1 C1            -0.0167     1.3792     0.0096 C.ar    
   2 C2             0.0021    -0.0041     0.0020 C.ar    
   3 C3             1.2087    -0.6842    -0.0127 C.ar    
   4 C4             2.3920     0.0166    -0.0202 C.ar    
   5 C5             2.3846     1.4137    -0.0131 C.ar    
   6 C6             1.1648     2.0919     0.0022 C.ar    
   7 C7             3.8409    -0.4022    -0.0358 C.3     
   8 N8             4.6266     0.8371    -0.0369 N.am    
   9 C9             3.7832     1.8837    -0.0238 C.2     
  10 C10            6.0892     0.9201    -0.0501 C.3     
  11 C11            6.5774     0.9557    -1.4754 C.ar    
  12 C12            6.7328     2.1694    -2.1204 C.ar    
  13 C13            7.1796     2.2079    -3.4257 C.ar    
  14 C14            7.4748     1.0211    -4.0936 C.ar    
  15 C15            7.3169    -0.1988    -3.4388 C.ar    
  16 C16            6.8740    -0.2252    -2.1319 C.ar    
  17 C17            1.1382     3.5987     0.0100 C.3     
  18 O18            4.1239     3.0505    -0.0214 O.2     
  19 C19            1.2415     4.1180    -1.4254 C.3     
  20 C20            7.9550     1.0561    -5.4970 C.ar    
  21 C21            8.1205     2.2670    -6.1738 C.ar    
  22 N22            8.5489     2.2644    -7.4204 N.ar    
  23 N23            8.8247     1.1803    -8.0484 N.ar    
  24 C24            8.7003    -0.0115    -7.4942 C.ar    
  25 C25            8.2634    -0.1231    -6.1864 C.ar    
  26 C26            9.0396    -1.2493    -8.2840 C.3     
  27 C27            1.3400     5.6448    -1.4096 C.3     
  28 C28            1.4433     6.1641    -2.8450 C.3     
  29 C29            0.2005     5.7415    -3.6309 C.3     
  30 C30            0.1020     4.2147    -3.6468 C.3     
  31 C31           -0.0013     3.6954    -2.2114 C.3     
  32 C32            2.5828     6.0675    -0.6236 C.3     
  33 H33           -0.9607     1.9038     0.0169 H       
  34 H34           -0.9267    -0.5552     0.0079 H       
  35 H35            1.2202    -1.7641    -0.0179 H       
  36 H36            4.0704    -0.9904     0.8527 H       
  37 H37            4.0537    -0.9813    -0.9343 H       
  38 H38            6.4064     1.8266     0.4653 H       
  39 H39            6.5071     0.0495     0.4554 H       
  40 H40            6.5037     3.0886    -1.6018 H       
  41 H41            7.2999     3.1561    -3.9286 H       
  42 H42            7.5442    -1.1216    -3.9517 H       
  43 H43            6.7548    -1.1699    -1.6222 H       
  44 H44            0.2047     3.9433     0.4548 H       
  45 H45            1.9789     3.9739     0.5935 H       
  46 H46            2.1302     3.7015    -1.8995 H       
  47 H47            7.8982     3.2005    -5.6782 H       
  48 H48            8.1598    -1.0886    -5.7136 H       
  49 H49           10.0921    -1.4942    -8.1413 H       
  50 H50            8.4234    -2.0800    -7.9400 H       
  51 H51            8.8486    -1.0690    -9.3419 H       
  52 H52            0.4513     6.0613    -0.9355 H       
  53 H53            1.5135     7.2518    -2.8337 H       
  54 H54            2.3321     5.7476    -3.3190 H       
  55 H55           -0.6882     6.1580    -3.1569 H       
  56 H56            0.2741     6.1115    -4.6536 H       
  57 H57           -0.7834     3.9136    -4.2068 H       
  58 H58            0.9907     3.7982    -4.1209 H       
  59 H59           -0.0715     2.6077    -2.2227 H       
  60 H60           -0.8901     4.1119    -1.7374 H       
  61 H61            3.4716     5.6509    -1.0977 H       
  62 H62            2.6530     7.1551    -0.6123 H       
  63 H63            2.5093     5.6975     0.3990 H       
@<TRIPOS>BOND
   1    1    2 ar
   2    1    6 ar
   3    1   33 1
   4    2    3 ar
   5    2   34 1
   6    3    4 ar
   7    3   35 1
   8    4    7 1
   9    4    5 ar
  10    5    6 ar
  11    5    9 1
  12    6   17 1
  13    7    8 1
  14    7   36 1
  15    7   37 1
  16    8    9 am
  17    8   10 1
  18    9   18 2
  19   10   11 1
  20   10   38 1
  21   10   39 1
  22   11   12 ar
  23   11   16 ar
  24   12   13 ar
  25   12   40 1
  26   13   14 ar
  27   13   41 1
  28   14   15 ar
  29   14   20 1
  30   15   16 ar
  31   15   42 1
  32   16   43 1
  33   17   19 1
  34   17   44 1
  35   17   45 1
  36   19   27 1
  37   19   31 1
  38   19   46 1
  39   20   21 ar
  40   20   25 ar
  41   21   22 ar
  42   21   47 1
  43   22   23 ar
  44   23   24 ar
  45   24   25 ar
  46   24   26 1
  47   25   48 1
  48   26   49 1
  49   26   50 1
  50   26   51 1
  51   27   28 1
  52   27   32 1
  53   27   52 1
  54   28   29 1
  55   28   53 1
  56   28   54 1
  57   29   30 1
  58   29   55 1
  59   29   56 1
  60   30   31 1
  61   30   57 1
  62   30   58 1
  63   31   59 1
  64   31   60 1
  65   32   61 1
  66   32   62 1
  67   32   63 1

#	End of record

