#	Name: ASD02490006
#	Creating user name:	WinNT
#	Creation time:	15. 06. 2019 20:22

#	Modifying user name:	WinNT
#	Modification time:	15. 06. 2019 20:22

#	Program:	/corina/corina34_cracker 3.40 0067  02.08.2006

@<TRIPOS>MOLECULE
ASD02490006
  50   51    0    0    0
SMALL
NO_CHARGES


@<TRIPOS>ATOM
   1 C1            -0.7070     1.9686     0.5244 C.ar    
   2 N2            -0.7626    -0.2480     2.1548 N.am    
   3 O3            -2.1100    -0.1246     0.0909 O.2     
   4 S4            -0.8127     0.2102     0.5642 S.o2    
   5 C5             0.5273     2.5873     0.5980 C.ar    
   6 N6            -0.4571     6.1261     0.4312 N.am    
   7 O7             0.3818    -0.2772    -0.0315 O.2     
   8 C8            -1.8584     2.7267     0.4139 C.ar    
   9 O9            -2.3561     6.3358     1.5590 O.2     
  10 C10            0.6135     3.9656     0.5675 C.ar    
  11 O11           -0.0449     8.8214     0.9080 O.3     
  12 C12           -1.7789     4.1050     0.3824 C.ar    
  13 C13           -1.9421    -0.3139     2.9001 C.ar    
  14 C14            0.5188    -0.5843     2.7802 C.3     
  15 C15           -0.5410     4.7297     0.4623 C.ar    
  16 C16            1.9591     4.6391     0.6487 C.3     
  17 C17           -2.0267    -1.1636     3.9957 C.ar    
  18 C18           -3.0312     0.4745     2.5507 C.ar    
  19 C19            1.0756     0.6478     3.4965 C.3     
  20 C20           -3.1945    -1.2263     4.7304 C.ar    
  21 C21           -4.1959     0.4068     3.2897 C.ar    
  22 C22           -1.4400     6.8725     0.9727 C.2     
  23 C23           -4.2787    -0.4444     4.3764 C.ar    
  24 C24           -1.4008     8.3740     0.8497 C.3     
  25 C25           -2.1945     9.0007     1.9978 C.3     
  26 C26           -2.0190     8.7926    -0.4858 C.3     
  27 F27           -2.1581    10.3945     1.8836 F       
  28 F28           -3.5219     8.5626     1.9407 F       
  29 F29           -1.6292     8.6179     3.2189 F       
  30 H30            1.4249     1.9923     0.6798 H       
  31 H31            0.3085     6.5569     0.0198 H       
  32 H32           -2.8207     2.2403     0.3518 H       
  33 H33            0.4105     8.5904     1.7291 H       
  34 H34           -2.6784     4.6965     0.2957 H       
  35 H35            0.3712    -1.3881     3.5015 H       
  36 H36            1.2231    -0.9084     2.0141 H       
  37 H37            2.3592     4.7741    -0.3562 H       
  38 H38            1.8505     5.6110     1.1301 H       
  39 H39            2.6411     4.0195     1.2310 H       
  40 H40           -1.1804    -1.7748     4.2725 H       
  41 H41           -2.9671     1.1397     1.7023 H       
  42 H42            1.2232     1.4516     2.7752 H       
  43 H43            0.3713     0.9719     4.2626 H       
  44 H44            2.0290     0.3976     3.9618 H       
  45 H45           -3.2611    -1.8870     5.5821 H       
  46 H46           -5.0429     1.0197     3.0188 H       
  47 H47           -5.1907    -0.4953     4.9526 H       
  48 H48           -1.4536     8.3462    -1.3037 H       
  49 H49           -3.0532     8.4513    -0.5303 H       
  50 H50           -1.9906     9.8786    -0.5748 H       
@<TRIPOS>BOND
   1    1    4 1
   2    1    5 ar
   3    1    8 ar
   4    2    4 am
   5    2   13 1
   6    2   14 1
   7    3    4 2
   8    4    7 2
   9    5   10 ar
  10    5   30 1
  11    6   15 1
  12    6   22 am
  13    6   31 1
  14    8   12 ar
  15    8   32 1
  16    9   22 2
  17   10   15 ar
  18   10   16 1
  19   11   24 1
  20   11   33 1
  21   12   15 ar
  22   12   34 1
  23   13   17 ar
  24   13   18 ar
  25   14   19 1
  26   14   35 1
  27   14   36 1
  28   16   37 1
  29   16   38 1
  30   16   39 1
  31   17   20 ar
  32   17   40 1
  33   18   21 ar
  34   18   41 1
  35   19   42 1
  36   19   43 1
  37   19   44 1
  38   20   23 ar
  39   20   45 1
  40   21   23 ar
  41   21   46 1
  42   22   24 1
  43   23   47 1
  44   24   25 1
  45   24   26 1
  46   25   27 1
  47   25   28 1
  48   25   29 1
  49   26   48 1
  50   26   49 1
  51   26   50 1

#	End of record

