#	Name: ASD01912233
#	Creating user name:	WinNT
#	Creation time:	15. 06. 2019 19:59

#	Modifying user name:	WinNT
#	Modification time:	15. 06. 2019 19:59

#	Program:	/corina/corina34_cracker 3.40 0067  02.08.2006

@<TRIPOS>MOLECULE
ASD01912233
  53   56    0    0    0
SMALL
NO_CHARGES


@<TRIPOS>ATOM
   1 N1            -1.5869     0.7318    -1.4031 N.3     
   2 C2            -1.6875    -0.7348    -1.3940 C.3     
   3 C3            -1.2066    -1.2823    -2.7404 C.3     
   4 O4             0.1294    -0.8328    -2.9824 O.3     
   5 C5             0.2637     0.5910    -2.9985 C.3     
   6 C6            -0.2024     1.1574    -1.6547 C.3     
   7 C7            -2.0652     1.2708    -0.2161 C.ar    
   8 C8            -2.0524     2.6519    -0.0353 C.ar    
   9 C9            -2.5251     3.1809     1.1361 C.ar    
  10 C10           -3.0092     2.3037     2.1195 C.ar    
  11 C11           -2.9916     0.9298     1.8695 C.ar    
  12 N12           -2.5321     0.4642     0.7257 N.ar    
  13 C13           -3.5131     2.8101     3.3606 C.1     
  14 C14           -3.9262     3.2252     4.3780 C.1     
  15 C15           -4.4302     3.7316     5.6191 C.2     
  16 N16           -6.6306     1.2714     8.0278 N.3     
  17 C17           -6.7810     2.7289     8.1216 C.3     
  18 C18           -5.4256     3.3982     7.8666 C.3     
  19 C19           -4.8872     2.8902     6.5455 C.2     
  20 C20           -4.8860     1.3939     6.3124 C.3     
  21 C21           -6.2757     0.8520     6.6662 C.3     
  22 C22           -7.7795     0.6228     8.4653 C.ar    
  23 C23           -7.6714    -0.5776     9.1603 C.ar    
  24 C24           -8.8227    -1.2120     9.5902 C.ar    
  25 C25          -10.0484    -0.6225     9.3095 C.ar    
  26 C26          -10.0820     0.5700     8.6153 C.ar    
  27 N27           -8.9668     1.1557     8.2216 N.ar    
  28 N28           -6.4546    -1.1181     9.4122 N.pl3   
  29 O29           -6.3719    -2.2184     9.9280 O.2     
  30 O30           -5.4436    -0.5036     9.1230 O.2     
  31 H31           -1.0657    -1.1374    -0.5943 H       
  32 H32           -2.7249    -1.0274    -1.2317 H       
  33 H33           -1.2255    -2.3719    -2.7180 H       
  34 H34           -1.8611    -0.9225    -3.5343 H       
  35 H35            1.3081     0.8562    -3.1628 H       
  36 H36           -0.3481     1.0052    -3.8000 H       
  37 H37           -0.1556     2.2461    -1.6828 H       
  38 H38            0.4432     0.7851    -0.8593 H       
  39 H39           -1.6728     3.2996    -0.8116 H       
  40 H40           -2.5252     4.2485     1.2997 H       
  41 H41           -3.3611     0.2441     2.6177 H       
  42 H42           -4.4397     4.7956     5.8042 H       
  43 H43           -7.5003     3.0689     7.3765 H       
  44 H44           -7.1360     2.9944     9.1174 H       
  45 H45           -5.5527     4.4798     7.8203 H       
  46 H46           -4.7329     3.1429     8.6685 H       
  47 H47           -4.6656     1.1852     5.2655 H       
  48 H48           -4.1354     0.9235     6.9475 H       
  49 H49           -6.2661    -0.2366     6.6120 H       
  50 H50           -7.0092     1.2448     5.9620 H       
  51 H51           -8.7697    -2.1450    10.1316 H       
  52 H52          -10.9661    -1.0925     9.6310 H       
  53 H53          -11.0331     1.0317     8.3947 H       
@<TRIPOS>BOND
   1    1    2 1
   2    1    6 1
   3    1    7 1
   4    2    3 1
   5    2   31 1
   6    2   32 1
   7    3    4 1
   8    3   33 1
   9    3   34 1
  10    4    5 1
  11    5    6 1
  12    5   35 1
  13    5   36 1
  14    6   37 1
  15    6   38 1
  16    7    8 ar
  17    7   12 ar
  18    8    9 ar
  19    8   39 1
  20    9   10 ar
  21    9   40 1
  22   10   11 ar
  23   10   13 1
  24   11   12 ar
  25   11   41 1
  26   13   14 3
  27   14   15 1
  28   15   19 2
  29   15   42 1
  30   16   17 1
  31   16   21 1
  32   16   22 1
  33   17   18 1
  34   17   43 1
  35   17   44 1
  36   18   19 1
  37   18   45 1
  38   18   46 1
  39   19   20 1
  40   20   21 1
  41   20   47 1
  42   20   48 1
  43   21   49 1
  44   21   50 1
  45   22   23 ar
  46   22   27 ar
  47   23   24 ar
  48   23   28 1
  49   24   25 ar
  50   24   51 1
  51   25   26 ar
  52   25   52 1
  53   26   27 ar
  54   26   53 1
  55   28   29 2
  56   28   30 2

#	End of record

