#	Name: ASD02508020
#	Creating user name:	WinNT
#	Creation time:	15. 06. 2019 20:23

#	Modifying user name:	WinNT
#	Modification time:	15. 06. 2019 20:23

#	Program:	/corina/corina34_cracker 3.40 0067  02.08.2006

@<TRIPOS>MOLECULE
ASD02508020
  56   58    0    0    0
SMALL
NO_CHARGES


@<TRIPOS>ATOM
   1 C1            -0.5082     1.3620     0.1250 C.3     
   2 C2            -0.3107    -0.0920     0.2333 C.3     
   3 C3             0.6264    -0.4571     1.3969 C.3     
   4 N4             1.9749    -0.2129     0.9723 N.am    
   5 C5             2.6681     1.0766     1.2415 C.3     
   6 C6             1.6708     2.2465     1.0532 C.3     
   7 N7             0.7929     2.0459    -0.0655 N.am    
   8 C8             1.1760     5.2974    -1.3154 C.ar    
   9 C9             0.5196     4.1741    -1.7891 C.ar    
  10 C10            0.6155     6.5509    -1.4873 C.ar    
  11 C11           -0.6043     6.6818    -2.1344 C.ar    
  12 C12           -1.2608     5.5556    -2.6084 C.ar    
  13 C13           -0.6981     4.3033    -2.4352 C.ar    
  14 C14            3.1755    -0.5047    -2.3906 C.ar    
  15 C15            2.3689    -1.2467    -1.5477 C.ar    
  16 C16            2.8513    -0.3789    -3.7292 C.ar    
  17 C17            1.7202    -0.9944    -4.2280 C.ar    
  18 C18            0.9081    -1.7408    -3.3839 C.ar    
  19 C19            1.2364    -1.8652    -2.0405 C.ar    
  20 F20           -1.3371     3.2062    -2.8972 F       
  21 F21            2.3614     5.1691    -0.6802 F       
  22 S22            2.7865    -1.4040     0.1569 S.o2    
  23 O23            4.1688    -1.0918     0.2619 O.2     
  24 O24            2.2330    -2.6378     0.5934 O.2     
  25 O25           -1.1560     7.9122    -2.3034 O.3     
  26 C26           -2.4139     7.9719    -2.9787 C.3     
  27 S27            1.2348     2.5788    -1.5699 S.o2    
  28 O28            2.6421     2.7721    -1.5297 O.2     
  29 O29            0.5946     1.7203    -2.5038 O.2     
  30 N30           -0.2385    -2.3661    -3.8863 N.am    
  31 O31            0.7314    -2.7231    -5.8495 O.2     
  32 C32           -0.2374    -2.8725    -5.1353 C.2     
  33 C33           -1.4400    -3.6246    -5.6444 C.3     
  34 H34           -1.1560     1.5758    -0.7251 H       
  35 H35           -0.9795     1.7309     1.0360 H       
  36 H36           -1.2770    -0.5707     0.3921 H       
  37 H37            0.1185    -0.4623    -0.6977 H       
  38 H38            0.3954     0.1613     2.2642 H       
  39 H39            0.5052    -1.5100     1.6513 H       
  40 H40            3.0440     1.0805     2.2647 H       
  41 H41            3.5007     1.1935     0.5478 H       
  42 H42            1.0715     2.3480     1.9580 H       
  43 H43            2.2328     3.1677     0.8997 H       
  44 H44            1.1276     7.4270    -1.1174 H       
  45 H45           -2.2108     5.6561    -3.1122 H       
  46 H46            4.0582    -0.0187    -2.0020 H       
  47 H47            3.4831     0.2017    -4.3850 H       
  48 H48            1.4673    -0.8954    -5.2733 H       
  49 H49            0.6068    -2.4447    -1.3816 H       
  50 H50           -2.7410     9.0095    -3.0465 H       
  51 H51           -2.3080     7.5581    -3.9816 H       
  52 H52           -3.1523     7.3937    -2.4233 H       
  53 H53           -1.0340    -2.4350    -3.3357 H       
  54 H54           -2.2044    -3.6560    -4.8680 H       
  55 H55           -1.8375    -3.1206    -6.5254 H       
  56 H56           -1.1480    -4.6411    -5.9082 H       
@<TRIPOS>BOND
   1    1    2 1
   2    1    7 1
   3    1   34 1
   4    1   35 1
   5    2    3 1
   6    2   36 1
   7    2   37 1
   8    3    4 1
   9    3   38 1
  10    3   39 1
  11    4    5 1
  12    4   22 am
  13    5    6 1
  14    5   40 1
  15    5   41 1
  16    6    7 1
  17    6   42 1
  18    6   43 1
  19    7   27 am
  20    8    9 ar
  21    8   10 ar
  22    8   21 1
  23    9   27 1
  24    9   13 ar
  25   10   11 ar
  26   10   44 1
  27   11   12 ar
  28   11   25 1
  29   12   13 ar
  30   12   45 1
  31   13   20 1
  32   14   15 ar
  33   14   16 ar
  34   14   46 1
  35   15   22 1
  36   15   19 ar
  37   16   17 ar
  38   16   47 1
  39   17   18 ar
  40   17   48 1
  41   18   19 ar
  42   18   30 1
  43   19   49 1
  44   22   23 2
  45   22   24 2
  46   25   26 1
  47   26   50 1
  48   26   51 1
  49   26   52 1
  50   27   28 2
  51   27   29 2
  52   30   32 am
  53   30   53 1
  54   31   32 2
  55   32   33 1
  56   33   54 1
  57   33   55 1
  58   33   56 1

#	End of record

