#	Name: ASD03240999
#	Creating user name:	WinNT
#	Creation time:	15. 06. 2019 20:35

#	Modifying user name:	WinNT
#	Modification time:	15. 06. 2019 20:35

#	Program:	/corina/corina34_cracker 3.40 0067  02.08.2006

@<TRIPOS>MOLECULE
ASD03240999
  55   60    0    0    0
SMALL
NO_CHARGES


@<TRIPOS>ATOM
   1 C1            -0.0188     1.5336     0.0105 C.3     
   2 C2             0.0021    -0.0041     0.0020 C.3     
   3 C3             1.3815     0.0967    -0.6702 C.3     
   4 C4             1.5179     1.4762    -0.0045 C.3     
   5 O5            -0.5818     2.1049    -1.1721 O.3     
   6 C6            -0.5973     2.1316     1.2944 C.3     
   7 C7             2.3746    -0.9181    -0.1653 C.ar    
   8 C8             3.3681    -1.3872    -1.0061 C.ar    
   9 C9             4.2807    -2.3160    -0.5495 C.ar    
  10 C10            4.2000    -2.7820     0.7628 C.ar    
  11 C11            3.1960    -2.3051     1.6056 C.ar    
  12 C12            2.2926    -1.3725     1.1389 C.ar    
  13 N13            6.9711    -6.5924    -0.0341 N.pl3   
  14 C14            7.8736    -7.5240     0.4049 C.2     
  15 N15            8.3304    -7.5328     1.6696 N.2     
  16 C16            7.9397    -6.6524     2.5545 C.2     
  17 C17            6.9770    -5.6265     2.1587 C.ar    
  18 C18            6.5214    -4.6585     3.0602 C.ar    
  19 C19            5.6043    -3.7197     2.5994 C.ar    
  20 C20            5.1759    -3.7791     1.2589 C.ar    
  21 N21            5.6298    -4.7110     0.4342 N.ar    
  22 C22            6.5012    -5.6222     0.8304 C.ar    
  23 C23            8.1520    -8.3511    -0.6754 C.2     
  24 C24            7.4055    -7.8994    -1.7570 C.2     
  25 N25            6.6991    -6.8602    -1.3812 N.2     
  26 C26            5.0845    -2.6695     3.5078 C.ar    
  27 C27            4.5781    -3.0152     4.7597 C.ar    
  28 C28            4.0955    -2.0334     5.6009 C.ar    
  29 C29            4.1138    -0.7084     5.2040 C.ar    
  30 C30            4.6151    -0.3595     3.9629 C.ar    
  31 C31            5.1056    -1.3321     3.1155 C.ar    
  32 Br32           9.3352    -9.8262    -0.6749 Br      
  33 N33            1.3186     0.1546    -2.1367 N.3     
  34 H34            0.0329    -0.4458     0.9980 H       
  35 H35           -0.7629    -0.4476    -0.6353 H       
  36 H36            1.9766     2.2276    -0.6471 H       
  37 H37            1.9632     1.4391     0.9897 H       
  38 H38           -0.5977     3.0718    -1.1727 H       
  39 H39            0.0010     1.8098     2.1469 H       
  40 H40           -0.5800     3.2195     1.2285 H       
  41 H41           -1.6249     1.7917     1.4227 H       
  42 H42            3.4293    -1.0259    -2.0220 H       
  43 H43            5.0555    -2.6817    -1.2070 H       
  44 H44            3.1283    -2.6624     2.6226 H       
  45 H45            1.5173    -0.9995     1.7917 H       
  46 H46            8.3230    -6.6833     3.5637 H       
  47 H47            6.8704    -4.6412     4.0821 H       
  48 H48            7.4043    -8.3355    -2.7450 H       
  49 H49            4.5630    -4.0495     5.0705 H       
  50 H50            3.7026    -2.3001     6.5709 H       
  51 H51            3.7348     0.0565     5.8655 H       
  52 H52            4.6265     0.6766     3.6581 H       
  53 H53            5.5009    -1.0580     2.1485 H       
  54 H54            2.2430     0.2199    -2.5360 H       
  55 H55            0.8193    -0.6393    -2.5089 H       
@<TRIPOS>BOND
   1    1    2 1
   2    1    4 1
   3    1    5 1
   4    1    6 1
   5    2    3 1
   6    2   34 1
   7    2   35 1
   8    3    4 1
   9    3    7 1
  10    3   33 1
  11    4   36 1
  12    4   37 1
  13    5   38 1
  14    6   39 1
  15    6   40 1
  16    6   41 1
  17    7    8 ar
  18    7   12 ar
  19    8    9 ar
  20    8   42 1
  21    9   10 ar
  22    9   43 1
  23   10   11 ar
  24   10   20 1
  25   11   12 ar
  26   11   44 1
  27   12   45 1
  28   13   14 1
  29   13   22 1
  30   13   25 1
  31   14   15 1
  32   14   23 2
  33   15   16 2
  34   16   17 1
  35   16   46 1
  36   17   18 ar
  37   17   22 ar
  38   18   19 ar
  39   18   47 1
  40   19   20 ar
  41   19   26 1
  42   20   21 ar
  43   21   22 ar
  44   23   24 1
  45   23   32 1
  46   24   25 2
  47   24   48 1
  48   26   27 ar
  49   26   31 ar
  50   27   28 ar
  51   27   49 1
  52   28   29 ar
  53   28   50 1
  54   29   30 ar
  55   29   51 1
  56   30   31 ar
  57   30   52 1
  58   31   53 1
  59   33   54 1
  60   33   55 1

#	End of record

