#	Name: ASD02030072
#	Creating user name:	WinNT
#	Creation time:	15. 06. 2019 20:14

#	Modifying user name:	WinNT
#	Modification time:	15. 06. 2019 20:14

#	Program:	/corina/corina34_cracker 3.40 0067  02.08.2006

@<TRIPOS>MOLECULE
ASD02030072
  66   69    0    0    0
SMALL
NO_CHARGES


@<TRIPOS>ATOM
   1 C1             0.6236     0.3378     1.2570 C.ar    
   2 C2             0.0201    -0.0594     0.0766 C.ar    
   3 C3             0.5903     0.2519    -1.1421 C.ar    
   4 C4             1.7790     0.9690    -1.1984 C.ar    
   5 C5             2.4019     1.3780    -0.0143 C.ar    
   6 C6             1.8141     1.0566     1.2257 C.ar    
   7 O7             2.3343     1.2713    -2.3983 O.3     
   8 C8             3.6647     2.1396    -0.0632 C.2     
   9 O9             3.6410     3.3491    -0.1885 O.2     
  10 C10            4.9548     1.4346     0.0397 C.ar    
  11 C11            6.1512     2.1639     0.1129 C.ar    
  12 C12            4.9897     0.0323     0.0706 C.ar    
  13 C13            6.2034    -0.6256     0.1673 C.ar    
  14 C14            7.3909     0.1033     0.2340 C.ar    
  15 C15            7.3604     1.4978     0.2094 C.ar    
  16 O16            6.1227     3.5201     0.0886 O.3     
  17 O17            3.8353    -0.6776     0.0062 O.3     
  18 C18            8.6862    -0.6045     0.3373 C.2     
  19 O19            9.8339     0.0973     0.4019 O.3     
  20 O20            8.7144    -1.8183     0.3639 O.2     
  21 C21           11.0669    -0.6630     0.5020 C.3     
  22 C22           11.5755    -0.9454    -0.8856 C.3     
  23 C23           12.2846    -2.3182    -0.8877 C.3     
  24 C24           13.6153    -2.2359    -0.2960 C.3     
  25 N25           13.5910    -1.8053     1.1177 N.3     
  26 C26           13.5181    -0.3658     1.1806 C.3     
  27 C27           12.0712     0.1308     1.3633 C.3     
  28 N28           12.0037     1.5456     0.9888 N.am    
  29 C29           12.3141     2.4971     1.8915 C.2     
  30 O30           12.6501     2.1813     3.0165 O.2     
  31 C31           12.2462     3.9224     1.5142 C.ar    
  32 C32           12.5676     4.9104     2.4486 C.ar    
  33 C33           11.8659     4.2872     0.2201 C.ar    
  34 C34           11.8042     5.6180    -0.1281 C.ar    
  35 C35           12.1196     6.5980     0.8058 C.ar    
  36 C36           12.5035     6.2391     2.0927 C.ar    
  37 O37           12.0576     7.9085     0.4589 O.3     
  38 C38            2.4588     1.4815     2.4859 C.2     
  39 O39            3.5434     2.0276     2.4592 O.2     
  40 O40            1.8436     1.2629     3.6642 O.3     
  41 H41            0.1669     0.0929     2.2045 H       
  42 H42           -0.9039    -0.6176     0.1087 H       
  43 H43            0.1097    -0.0641    -2.0562 H       
  44 H44            1.9823     2.0759    -2.8031 H       
  45 H45            6.2312    -1.7050     0.1915 H       
  46 H46            8.2821     2.0583     0.2609 H       
  47 H47            6.0517     3.9277     0.9626 H       
  48 H48            3.6020    -0.9688    -0.8858 H       
  49 H49           10.8547    -1.6105     0.9973 H       
  50 H50           10.7390    -0.9654    -1.5842 H       
  51 H51           12.2816    -0.1692    -1.1807 H       
  52 H52           11.6855    -3.0291    -0.3188 H       
  53 H53           12.3732    -2.6714    -1.9151 H       
  54 H54           14.0877    -3.2163    -0.3564 H       
  55 H55           14.2111    -1.5255    -0.8692 H       
  56 H56           12.8193    -2.2284     1.6113 H       
  57 H57           14.1213    -0.0166     2.0186 H       
  58 H58           13.9218     0.0502     0.2575 H       
  59 H59           11.7931     0.0311     2.4125 H       
  60 H60           11.7357     1.7975     0.0913 H       
  61 H61           12.8656     4.6324     3.4488 H       
  62 H62           11.6210     3.5263    -0.5063 H       
  63 H63           11.5107     5.9008    -1.1282 H       
  64 H64           12.7477     7.0035     2.8155 H       
  65 H65           11.1946     8.3162     0.6145 H       
  66 H66            2.3043     1.5584     4.4615 H       
@<TRIPOS>BOND
   1    1    2 ar
   2    1    6 ar
   3    1   41 1
   4    2    3 ar
   5    2   42 1
   6    3    4 ar
   7    3   43 1
   8    4    5 ar
   9    4    7 1
  10    5    6 ar
  11    5    8 1
  12    6   38 1
  13    7   44 1
  14    8    9 2
  15    8   10 1
  16   10   11 ar
  17   10   12 ar
  18   11   16 1
  19   11   15 ar
  20   12   13 ar
  21   12   17 1
  22   13   14 ar
  23   13   45 1
  24   14   15 ar
  25   14   18 1
  26   15   46 1
  27   16   47 1
  28   17   48 1
  29   18   19 1
  30   18   20 2
  31   19   21 1
  32   21   22 1
  33   21   27 1
  34   21   49 1
  35   22   23 1
  36   22   50 1
  37   22   51 1
  38   23   24 1
  39   23   52 1
  40   23   53 1
  41   24   25 1
  42   24   54 1
  43   24   55 1
  44   25   26 1
  45   25   56 1
  46   26   27 1
  47   26   57 1
  48   26   58 1
  49   27   28 1
  50   27   59 1
  51   28   29 am
  52   28   60 1
  53   29   30 2
  54   29   31 1
  55   31   32 ar
  56   31   33 ar
  57   32   36 ar
  58   32   61 1
  59   33   34 ar
  60   33   62 1
  61   34   35 ar
  62   34   63 1
  63   35   36 ar
  64   35   37 1
  65   36   64 1
  66   37   65 1
  67   38   39 2
  68   38   40 1
  69   40   66 1

#	End of record

