#	Name: ASD01910142
#	Creating user name:	WinNT
#	Creation time:	15. 06. 2019 19:55

#	Modifying user name:	WinNT
#	Modification time:	15. 06. 2019 19:55

#	Program:	/corina/corina34_cracker 3.40 0067  02.08.2006

@<TRIPOS>MOLECULE
ASD01910142
  44   46    0    0    0
SMALL
NO_CHARGES


@<TRIPOS>ATOM
   1 C1             0.0701     1.1992    -0.3536 C.ar    
   2 C2             0.0477    -0.0757     0.1841 C.ar    
   3 C3             1.2046    -0.6405     0.6917 C.ar    
   4 C4             2.3895     0.0645     0.6649 C.ar    
   5 C5             2.4201     1.3526     0.1234 C.ar    
   6 C6             1.2476     1.9165    -0.3874 C.ar    
   7 C7             3.6466     2.0911     0.0919 C.1     
   8 C8             4.6521     2.6965     0.0662 C.1     
   9 C9             5.8786     3.4349     0.0348 C.ar    
  10 C10            5.9056     4.7244    -0.5081 C.ar    
  11 C11            7.0756     5.4283    -0.5373 C.ar    
  12 C12            8.2461     4.8608    -0.0250 C.ar    
  13 C13            8.2200     3.5724     0.5171 C.ar    
  14 C14            7.0495     2.8697     0.5522 C.ar    
  15 C15            9.5105     5.6223    -0.0569 C.2     
  16 O16            9.5467     6.7588     0.3737 O.2     
  17 N17           10.6246     5.0578    -0.5634 N.am    
  18 C18           11.8692     5.8300    -0.6783 C.3     
  19 C19           12.3698     5.7462    -2.1238 C.3     
  20 C20           12.5023     4.2764    -2.5291 C.3     
  21 C21           11.1322     3.5988    -2.4524 C.3     
  22 C22           10.6191     3.6566    -1.0055 C.3     
  23 C23           13.0349     4.1885    -3.9607 C.3     
  24 H24           -0.8357     1.6319    -0.7520 H       
  25 H25           -0.8774    -0.6325     0.2081 H       
  26 H26            1.1794    -1.6359     1.1101 H       
  27 H27            3.2916    -0.3774     1.0617 H       
  28 H28            1.2637     2.9112    -0.8077 H       
  29 H29            5.0016     5.1627    -0.9043 H       
  30 H30            7.0967     6.4233    -0.9566 H       
  31 H31            9.1246     3.1346     0.9124 H       
  32 H32            7.0293     1.8745     0.9714 H       
  33 H33           11.6788     6.8710    -0.4174 H       
  34 H34           12.6205     5.4143    -0.0068 H       
  35 H35           11.6592     6.2431    -2.7842 H       
  36 H36           13.3415     6.2339    -2.2011 H       
  37 H37           13.1942     3.7742    -1.8529 H       
  38 H38           10.4333     4.1159    -3.1097 H       
  39 H39           11.2231     2.5581    -2.7636 H       
  40 H40           11.2694     3.0627    -0.3632 H       
  41 H41            9.6028     3.2650    -0.9622 H       
  42 H42           14.0113     4.6700    -4.0153 H       
  43 H43           13.1294     3.1417    -4.2496 H       
  44 H44           12.3436     4.6911    -4.6371 H       
@<TRIPOS>BOND
   1    1    2 ar
   2    1    6 ar
   3    1   24 1
   4    2    3 ar
   5    2   25 1
   6    3    4 ar
   7    3   26 1
   8    4    5 ar
   9    4   27 1
  10    5    6 ar
  11    5    7 1
  12    6   28 1
  13    7    8 3
  14    8    9 1
  15    9   10 ar
  16    9   14 ar
  17   10   11 ar
  18   10   29 1
  19   11   12 ar
  20   11   30 1
  21   12   13 ar
  22   12   15 1
  23   13   14 ar
  24   13   31 1
  25   14   32 1
  26   15   16 2
  27   15   17 am
  28   17   18 1
  29   17   22 1
  30   18   19 1
  31   18   33 1
  32   18   34 1
  33   19   20 1
  34   19   35 1
  35   19   36 1
  36   20   21 1
  37   20   23 1
  38   20   37 1
  39   21   22 1
  40   21   38 1
  41   21   39 1
  42   22   40 1
  43   22   41 1
  44   23   42 1
  45   23   43 1
  46   23   44 1

#	End of record

