#	Name: ASD05380295
#	Creating user name:	WinNT
#	Creation time:	15. 06. 2019 20:59

#	Modifying user name:	WinNT
#	Modification time:	15. 06. 2019 20:59

#	Program:	/corina/corina34_cracker 3.40 0067  02.08.2006

@<TRIPOS>MOLECULE
ASD05380295
  45   46    0    0    0
SMALL
NO_CHARGES


@<TRIPOS>ATOM
   1 C1             0.0882     1.9798     0.0161 C.ar    
   2 C2            -0.2513     0.6536    -0.1983 C.ar    
   3 C3             0.7249    -0.2808    -0.4796 C.ar    
   4 C4             2.0570     0.1044    -0.5496 C.ar    
   5 C5             2.4043     1.4462    -0.3331 C.ar    
   6 C6             1.4051     2.3803    -0.0493 C.ar    
   7 N7             3.0438    -0.8370    -0.8329 N.am    
   8 C8             2.7490    -1.9177    -1.5825 C.2     
   9 N9             4.5829     1.8452     0.7032 N.am    
  10 C10            3.8157     1.8681    -0.4047 C.2     
  11 C11            5.9464     2.1434     0.6159 C.ar    
  12 C12            6.5871     2.7860     1.6674 C.ar    
  13 C13            7.9338     3.0786     1.5781 C.ar    
  14 C14            8.6443     2.7330     0.4432 C.ar    
  15 C15            8.0094     2.0932    -0.6056 C.ar    
  16 C16            6.6642     1.7926    -0.5203 C.ar    
  17 C17            1.7669     3.8244     0.1844 C.3     
  18 O18            4.2872     2.2366    -1.4632 O.2     
  19 O19            1.6080    -2.1109    -1.9454 O.2     
  20 C20            3.8370    -2.8858    -1.9695 C.3     
  21 C21            4.8418    -2.1843    -2.8855 C.3     
  22 O22            3.2526    -4.0166    -2.6682 O.3     
  23 O23            4.8818    -5.2839    -1.8788 O.2     
  24 C24            3.8787    -5.1977    -2.5468 C.2     
  25 C25            3.3304    -6.4163    -3.2436 C.3     
  26 H26           -0.6836     2.7040     0.2311 H       
  27 H27           -1.2861     0.3491    -0.1446 H       
  28 H28            0.4523    -1.3126    -0.6451 H       
  29 H29            3.9432    -0.7149    -0.4908 H       
  30 H30            4.1893     1.6219     1.5612 H       
  31 H31            6.0326     3.0568     2.5538 H       
  32 H32            8.4326     3.5782     2.3954 H       
  33 H33            9.6972     2.9636     0.3756 H       
  34 H34            8.5671     1.8246    -1.4906 H       
  35 H35            6.1690     1.2925    -1.3395 H       
  36 H36            1.7462     4.3622    -0.7634 H       
  37 H37            1.0492     4.2721     0.8719 H       
  38 H38            2.7670     3.8835     0.6139 H       
  39 H39            4.3468    -3.2371    -1.0724 H       
  40 H40            5.2805    -1.3354    -2.3610 H       
  41 H41            5.6288    -2.8846    -3.1655 H       
  42 H42            4.3320    -1.8330    -3.7826 H       
  43 H43            2.4289    -6.1457    -3.7933 H       
  44 H44            4.0762    -6.8045    -3.9373 H       
  45 H45            3.0896    -7.1801    -2.5042 H       
@<TRIPOS>BOND
   1    1    2 ar
   2    1    6 ar
   3    1   26 1
   4    2    3 ar
   5    2   27 1
   6    3    4 ar
   7    3   28 1
   8    4    5 ar
   9    4    7 1
  10    5    6 ar
  11    5   10 1
  12    6   17 1
  13    7    8 am
  14    7   29 1
  15    8   19 2
  16    8   20 1
  17    9   10 am
  18    9   11 1
  19    9   30 1
  20   10   18 2
  21   11   12 ar
  22   11   16 ar
  23   12   13 ar
  24   12   31 1
  25   13   14 ar
  26   13   32 1
  27   14   15 ar
  28   14   33 1
  29   15   16 ar
  30   15   34 1
  31   16   35 1
  32   17   36 1
  33   17   37 1
  34   17   38 1
  35   20   21 1
  36   20   22 1
  37   20   39 1
  38   21   40 1
  39   21   41 1
  40   21   42 1
  41   22   24 1
  42   23   24 2
  43   24   25 1
  44   25   43 1
  45   25   44 1
  46   25   45 1

#	End of record

