#	Name: ASD03320085
#	Creating user name:	WinNT
#	Creation time:	15. 06. 2019 20:36

#	Modifying user name:	WinNT
#	Modification time:	15. 06. 2019 20:36

#	Program:	/corina/corina34_cracker 3.40 0067  02.08.2006

@<TRIPOS>MOLECULE
ASD03320085
  49   52    0    0    0
SMALL
NO_CHARGES


@<TRIPOS>ATOM
   1 C1             0.2212     1.1337    -0.3786 C.2     
   2 C2            -0.0260    -0.3201    -0.3320 C.ar    
   3 C3             0.9619    -1.2216    -0.7509 C.ar    
   4 C4             0.6805    -2.5834    -0.6877 C.ar    
   5 C5            -0.5753    -2.9981    -0.2093 C.ar    
   6 N6            -1.4794    -2.1103     0.1757 N.ar    
   7 C7            -1.2450    -0.8152     0.1354 C.ar    
   8 O8             1.2875     1.5565    -0.7824 O.2     
   9 N9            -0.7368     1.9934     0.0210 N.am    
  10 C10           -0.4667     3.3664     0.0766 C.ar    
  11 C11           -1.4722     4.2839    -0.1979 C.ar    
  12 C12           -1.2051     5.6375    -0.1429 C.ar    
  13 C13            0.0674     6.0809     0.1865 C.ar    
  14 C14            1.0725     5.1650     0.4609 C.ar    
  15 C15            0.8054     3.8111     0.4119 C.ar    
  16 O16            0.3298     7.4140     0.2401 O.3     
  17 C17            1.6617     7.7997     0.5857 C.3     
  18 F18            2.5571     7.2778    -0.3540 F       
  19 F19            1.7556     9.1955     0.5942 F       
  20 F20            1.9762     7.3034     1.8554 F       
  21 N21           -0.8694    -4.3477    -0.1407 N.3     
  22 C22           -1.2398    -4.7386     1.2319 C.3     
  23 C23           -2.6428    -5.3775     1.1624 C.3     
  24 C24           -2.7487    -5.8283    -0.3183 C.3     
  25 C25           -1.9859    -4.6933    -1.0461 C.3     
  26 O26           -2.7300    -6.5018     2.0403 O.3     
  27 N27            2.1668    -3.7513    -2.3834 N.pl3   
  28 N28            3.0979    -4.7967    -2.3488 N.2     
  29 C29            3.1840    -5.2433    -1.1215 C.2     
  30 C30            2.3142    -4.5063    -0.3153 C.2     
  31 C31            1.6862    -3.5786    -1.1173 C.2     
  32 F32            2.1226    -4.6730     1.0116 F       
  33 H33            1.9161    -0.8690    -1.1134 H       
  34 H34           -2.0087    -0.1257     0.4638 H       
  35 H35           -1.6134     1.6611     0.2701 H       
  36 H36           -2.4629     3.9388    -0.4547 H       
  37 H37           -1.9870     6.3512    -0.3567 H       
  38 H38            2.0629     5.5109     0.7173 H       
  39 H39            1.5867     3.0981     0.6303 H       
  40 H40           -0.5216    -5.4620     1.6180 H       
  41 H41           -1.2646    -3.8584     1.8742 H       
  42 H42           -3.4129    -4.6429     1.3977 H       
  43 H43           -2.2568    -6.7891    -0.4701 H       
  44 H44           -3.7891    -5.8687    -0.6406 H       
  45 H45           -2.6370    -3.8314    -1.1919 H       
  46 H46           -1.6027    -5.0468    -2.0033 H       
  47 H47           -3.5922    -6.9395     2.0343 H       
  48 H48            1.9120    -3.2385    -3.1664 H       
  49 H49            3.8218    -6.0485    -0.7878 H       
@<TRIPOS>BOND
   1    1    2 1
   2    1    8 2
   3    1    9 am
   4    2    3 ar
   5    2    7 ar
   6    3    4 ar
   7    3   33 1
   8    4    5 ar
   9    4   31 1
  10    5    6 ar
  11    5   21 1
  12    6    7 ar
  13    7   34 1
  14    9   10 1
  15    9   35 1
  16   10   11 ar
  17   10   15 ar
  18   11   12 ar
  19   11   36 1
  20   12   13 ar
  21   12   37 1
  22   13   14 ar
  23   13   16 1
  24   14   15 ar
  25   14   38 1
  26   15   39 1
  27   16   17 1
  28   17   18 1
  29   17   19 1
  30   17   20 1
  31   21   22 1
  32   21   25 1
  33   22   23 1
  34   22   40 1
  35   22   41 1
  36   23   24 1
  37   23   26 1
  38   23   42 1
  39   24   25 1
  40   24   43 1
  41   24   44 1
  42   25   45 1
  43   25   46 1
  44   26   47 1
  45   27   28 1
  46   27   31 1
  47   27   48 1
  48   28   29 2
  49   29   30 1
  50   29   49 1
  51   30   31 2
  52   30   32 1

#	End of record

