#	Name: ASD01800012
#	Creating user name:	WinNT
#	Creation time:	15. 06. 2019 19:23

#	Modifying user name:	WinNT
#	Modification time:	15. 06. 2019 19:23

#	Program:	/corina/corina34_cracker 3.40 0067  02.08.2006

@<TRIPOS>MOLECULE
ASD01800012
  53   56    0    0    0
SMALL
NO_CHARGES


@<TRIPOS>ATOM
   1 C1            -0.2530     0.8531     0.3095 C.ar    
   2 C2             0.0009    -0.4892     0.5750 C.ar    
   3 C3             1.2964    -0.9880     0.4579 C.ar    
   4 C4             2.3318    -0.1489     0.0776 C.ar    
   5 C5             2.0822     1.1884    -0.1869 C.ar    
   6 C6             0.7887     1.6931    -0.0721 C.ar    
   7 C7             0.5222     3.1252    -0.3561 C.ar    
   8 C8            -1.1073    -1.3883     0.9827 C.ar    
   9 C9             1.5640     3.9679    -0.7379 C.ar    
  10 C10            1.3105     5.2988    -1.0013 C.ar    
  11 C11            0.0249     5.7964    -0.8868 C.ar    
  12 C12           -1.0130     4.9642    -0.5081 C.ar    
  13 C13           -0.7716     3.6305    -0.2474 C.ar    
  14 C14           -0.8551    -2.7324     1.2489 C.ar    
  15 C15           -1.8893    -3.5640     1.6282 C.ar    
  16 C16           -3.1741    -3.0652     1.7443 C.ar    
  17 C17           -3.4301    -1.7316     1.4813 C.ar    
  18 C18           -2.4025    -0.8899     1.1064 C.ar    
  19 O19            3.5950    -0.6386    -0.0357 O.3     
  20 C20            3.8697    -1.3741    -1.1299 C.2     
  21 N21            5.0691    -1.9764    -1.2533 N.am    
  22 C22            5.3679    -2.7765    -2.4436 C.3     
  23 O23            3.0362    -1.4948    -2.0059 O.2     
  24 C24            6.8818    -2.8215    -2.6609 C.3     
  25 C25            7.1939    -3.6572    -3.9040 C.3     
  26 C26            6.6642    -5.0792    -3.7088 C.3     
  27 C27            5.1503    -5.0342    -3.4914 C.3     
  28 C28            4.8382    -4.1985    -2.2484 C.3     
  29 H29           -1.2573     1.2411     0.3952 H       
  30 H30            1.4942    -2.0295     0.6641 H       
  31 H31            2.8913     1.8400    -0.4824 H       
  32 H32            2.5682     3.5805    -0.8273 H       
  33 H33            2.1173     5.9530    -1.2970 H       
  34 H34           -0.1690     6.8385    -1.0934 H       
  35 H35           -2.0149     5.3579    -0.4202 H       
  36 H36           -1.5828     2.9816     0.0482 H       
  37 H37            0.1477    -3.1230     1.1582 H       
  38 H38           -1.6950    -4.6062     1.8345 H       
  39 H39           -3.9805    -3.7195     2.0411 H       
  40 H40           -4.4352    -1.3473     1.5735 H       
  41 H41           -2.6034     0.1512     0.9012 H       
  42 H42            5.7344    -1.8800    -0.5541 H       
  43 H43            4.8892    -2.3267    -3.3134 H       
  44 H44            7.2591    -1.8084    -2.8000 H       
  45 H45            7.3605    -3.2714    -1.7911 H       
  46 H46            6.7152    -3.2073    -4.7738 H       
  47 H47            8.2723    -3.6892    -4.0588 H       
  48 H48            6.8865    -5.6745    -4.5943 H       
  49 H49            7.1429    -5.5290    -2.8390 H       
  50 H50            4.6716    -4.5843    -4.3612 H       
  51 H51            4.7730    -6.0473    -3.3523 H       
  52 H52            5.3169    -4.6484    -1.3786 H       
  53 H53            3.7598    -4.1665    -2.0935 H       
@<TRIPOS>BOND
   1    1    2 ar
   2    1    6 ar
   3    1   29 1
   4    2    3 ar
   5    2    8 1
   6    3    4 ar
   7    3   30 1
   8    4    5 ar
   9    4   19 1
  10    5    6 ar
  11    5   31 1
  12    6    7 1
  13    7    9 ar
  14    7   13 ar
  15    8   14 ar
  16    8   18 ar
  17    9   10 ar
  18    9   32 1
  19   10   11 ar
  20   10   33 1
  21   11   12 ar
  22   11   34 1
  23   12   13 ar
  24   12   35 1
  25   13   36 1
  26   14   15 ar
  27   14   37 1
  28   15   16 ar
  29   15   38 1
  30   16   17 ar
  31   16   39 1
  32   17   18 ar
  33   17   40 1
  34   18   41 1
  35   19   20 1
  36   20   21 am
  37   20   23 2
  38   21   22 1
  39   21   42 1
  40   22   24 1
  41   22   28 1
  42   22   43 1
  43   24   25 1
  44   24   44 1
  45   24   45 1
  46   25   26 1
  47   25   46 1
  48   25   47 1
  49   26   27 1
  50   26   48 1
  51   26   49 1
  52   27   28 1
  53   27   50 1
  54   27   51 1
  55   28   52 1
  56   28   53 1

#	End of record

