#	Name: ASD01917203
#	Creating user name:	WinNT
#	Creation time:	15. 06. 2019 20:08

#	Modifying user name:	WinNT
#	Modification time:	15. 06. 2019 20:08

#	Program:	/corina/corina34_cracker 3.40 0067  02.08.2006

@<TRIPOS>MOLECULE
ASD01917203
  58   59    0    0    0
SMALL
NO_CHARGES


@<TRIPOS>ATOM
   1 N1            -0.0169     1.3961     0.0097 N.2     
   2 N2             0.0021    -0.0041     0.0020 N.pl3   
   3 C3             1.3093    -0.4042    -0.0126 C.2     
   4 C4             2.0839     0.7387    -0.0139 C.2     
   5 C5             1.2196     1.8356     0.0003 C.2     
   6 C6             1.7982    -1.7906    -0.0240 C.2     
   7 O7             2.9931    -2.0136    -0.0367 O.2     
   8 O8             0.9214    -2.8147    -0.0204 O.3     
   9 O9             1.5968     3.1422     0.0033 O.3     
  10 C10            1.4752    -4.1568    -0.0322 C.3     
  11 C11            0.3364    -5.1786    -0.0260 C.3     
  12 C12           -1.1697    -0.8833     0.0085 C.3     
  13 C13           -1.5911    -1.1821    -1.4317 C.3     
  14 C14           -2.8149    -2.1003    -1.4249 C.3     
  15 C15            0.5534     4.1186     0.0186 C.3     
  16 C16            1.1574     5.4993     0.0197 C.ar    
  17 C17            1.4227     6.1386    -1.1768 C.ar    
  18 C18            1.9768     7.4051    -1.1758 C.ar    
  19 C19            2.2652     8.0323     0.0219 C.ar    
  20 C20            1.9991     7.3933     1.2184 C.ar    
  21 C21            1.4410     6.1286     1.2174 C.ar    
  22 N22           -3.2183    -2.3865    -2.8039 N.am    
  23 O23           -4.6513    -3.4434    -4.3116 O.3     
  24 C24           -5.8045    -4.3063    -4.4955 C.3     
  25 C25           -7.0281    -3.6705    -3.8327 C.3     
  26 C26           -6.0716    -4.4888    -5.9909 C.3     
  27 C27           -5.5288    -5.6690    -3.8567 C.3     
  28 C28           -4.2805    -3.1804    -3.0443 C.2     
  29 O29           -4.9035    -3.6590    -2.1173 O.2     
  30 H30            3.1632     0.7774    -0.0237 H       
  31 H31            2.0801    -4.2924    -0.9287 H       
  32 H32            2.0974    -4.3009     0.8511 H       
  33 H33            0.7522    -6.1861    -0.0348 H       
  34 H34           -0.2685    -5.0430     0.8706 H       
  35 H35           -0.2858    -5.0345    -0.9093 H       
  36 H36           -0.9215    -1.8158     0.5154 H       
  37 H37           -1.9897    -0.3920     0.5324 H       
  38 H38           -1.8393    -0.2496    -1.9385 H       
  39 H39           -0.7712    -1.6733    -1.9556 H       
  40 H40           -2.5667    -3.0328    -0.9181 H       
  41 H41           -3.6348    -1.6091    -0.9010 H       
  42 H42           -0.0717     3.9962    -0.8659 H       
  43 H43           -0.0542     3.9871     0.9139 H       
  44 H44            1.1973     5.6486    -2.1125 H       
  45 H45            2.1847     7.9043    -2.1106 H       
  46 H46            2.6987     9.0215     0.0227 H       
  47 H47            2.2248     7.8832     2.1541 H       
  48 H48            1.2331     5.6294     2.1522 H       
  49 H49           -2.7210    -2.0045    -3.5439 H       
  50 H50           -7.2245    -2.6997    -4.2878 H       
  51 H51           -7.8938    -4.3183    -3.9708 H       
  52 H52           -6.8378    -3.5405    -2.7674 H       
  53 H53           -5.1999    -4.9418    -6.4631 H       
  54 H54           -6.9373    -5.1366    -6.1290 H       
  55 H55           -6.2680    -3.5181    -6.4460 H       
  56 H56           -5.3385    -5.5390    -2.7913 H       
  57 H57           -6.3945    -6.3168    -3.9947 H       
  58 H58           -4.6571    -6.1220    -4.3289 H       
@<TRIPOS>BOND
   1    1    2 1
   2    1    5 2
   3    2    3 1
   4    2   12 1
   5    3    4 2
   6    3    6 1
   7    4    5 1
   8    4   30 1
   9    5    9 1
  10    6    7 2
  11    6    8 1
  12    8   10 1
  13    9   15 1
  14   10   11 1
  15   10   31 1
  16   10   32 1
  17   11   33 1
  18   11   34 1
  19   11   35 1
  20   12   13 1
  21   12   36 1
  22   12   37 1
  23   13   14 1
  24   13   38 1
  25   13   39 1
  26   14   22 1
  27   14   40 1
  28   14   41 1
  29   15   16 1
  30   15   42 1
  31   15   43 1
  32   16   17 ar
  33   16   21 ar
  34   17   18 ar
  35   17   44 1
  36   18   19 ar
  37   18   45 1
  38   19   20 ar
  39   19   46 1
  40   20   21 ar
  41   20   47 1
  42   21   48 1
  43   22   28 am
  44   22   49 1
  45   23   24 1
  46   23   28 1
  47   24   25 1
  48   24   26 1
  49   24   27 1
  50   25   50 1
  51   25   51 1
  52   25   52 1
  53   26   53 1
  54   26   54 1
  55   26   55 1
  56   27   56 1
  57   27   57 1
  58   27   58 1
  59   28   29 2

#	End of record

