#	Name: ASD05720099
#	Creating user name:	WinNT
#	Creation time:	15. 06. 2019 21:01

#	Modifying user name:	WinNT
#	Modification time:	15. 06. 2019 21:01

#	Program:	/corina/corina34_cracker 3.40 0067  02.08.2006

@<TRIPOS>MOLECULE
ASD05720099
  51   56    0    0    0
SMALL
NO_CHARGES


@<TRIPOS>ATOM
   1 O1            -0.0161     1.3334     0.0094 O.3     
   2 C2             0.0021    -0.0041     0.0020 C.2     
   3 N3             1.2348    -0.5293    -0.0126 N.am    
   4 C4             2.2183     0.5645    -0.0161 C.3     
   5 C5             1.3508     1.8379    -0.0010 C.3     
   6 O6            -1.0069    -0.6808     0.0084 O.2     
   7 C7             2.5370     0.1786     2.4417 C.ar    
   8 C8             3.0858     0.5003     1.2145 C.ar    
   9 C9             4.4444     0.7627     1.1300 C.ar    
  10 C10            5.2037     0.6914     2.2882 C.ar    
  11 C11            4.5853     0.3635     3.4796 C.ar    
  12 N12            3.2897     0.1205     3.5227 N.ar    
  13 C13            5.4006     0.2831     4.7444 C.3     
  14 C14            3.0997    -3.5830    -0.0446 C.2     
  15 N15            2.7934    -2.2820    -0.0358 N.2     
  16 C16            1.5348    -1.8852    -0.0220 C.2     
  17 C17            0.4948    -2.8369    -0.0165 C.2     
  18 C18            0.8012    -4.1542    -0.0253 C.2     
  19 N19            2.1144    -4.5345    -0.0395 N.pl3   
  20 N20            2.7294    -5.7914    -0.0515 N.2     
  21 C21            4.0306    -5.6364    -0.0634 C.2     
  22 C22            4.3226    -4.2670    -0.0650 C.2     
  23 C23            5.6706    -3.6561    -0.0831 C.ar    
  24 C24            6.6407    -4.0788     0.8272 C.ar    
  25 C25            7.8966    -3.5089     0.8095 C.ar    
  26 C26            8.1963    -2.5093    -0.1195 C.ar    
  27 C27            7.2260    -2.0883    -1.0281 C.ar    
  28 C28            5.9737    -2.6612    -1.0144 C.ar    
  29 N29           11.2830    -0.6691    -0.6320 N.pl3   
  30 N30            9.9472    -0.9508    -0.9614 N.2     
  31 C31            9.5460    -1.8958    -0.1389 C.2     
  32 N32           10.5598    -2.2120     0.6787 N.2     
  33 C33           11.6046    -1.4818     0.3903 C.2     
  34 F34            8.8363    -3.9168     1.6903 F       
  35 H35            2.8286     0.5277    -0.9184 H       
  36 H36            1.5314     2.4339    -0.8956 H       
  37 H37            1.5485     2.4243     0.8964 H       
  38 H38            1.4786    -0.0229     2.5168 H       
  39 H39            4.9007     1.0163     0.1845 H       
  40 H40            6.2650     0.8893     2.2593 H       
  41 H41            5.4161     1.2591     5.2294 H       
  42 H42            4.9559    -0.4500     5.4174 H       
  43 H43            6.4196    -0.0181     4.5013 H       
  44 H44           -0.5367    -2.5172    -0.0049 H       
  45 H45            0.0174    -4.8972    -0.0209 H       
  46 H46            4.7584    -6.4342    -0.0738 H       
  47 H47            6.4080    -4.8513     1.5451 H       
  48 H48            7.4581    -1.3156    -1.7461 H       
  49 H49            5.2243    -2.3375    -1.7215 H       
  50 H50           11.8615    -0.0190    -1.0605 H       
  51 H51           12.5623    -1.5238     0.8878 H       
@<TRIPOS>BOND
   1    1    2 1
   2    1    5 1
   3    2    3 am
   4    2    6 2
   5    3    4 1
   6    3   16 1
   7    4    5 1
   8    4    8 1
   9    4   35 1
  10    5   36 1
  11    5   37 1
  12    7    8 ar
  13    7   12 ar
  14    7   38 1
  15    8    9 ar
  16    9   10 ar
  17    9   39 1
  18   10   11 ar
  19   10   40 1
  20   11   12 ar
  21   11   13 1
  22   13   41 1
  23   13   42 1
  24   13   43 1
  25   14   15 1
  26   14   19 1
  27   14   22 2
  28   15   16 2
  29   16   17 1
  30   17   18 2
  31   17   44 1
  32   18   19 1
  33   18   45 1
  34   19   20 1
  35   20   21 2
  36   21   22 1
  37   21   46 1
  38   22   23 1
  39   23   24 ar
  40   23   28 ar
  41   24   25 ar
  42   24   47 1
  43   25   26 ar
  44   25   34 1
  45   26   27 ar
  46   26   31 1
  47   27   28 ar
  48   27   48 1
  49   28   49 1
  50   29   30 1
  51   29   33 1
  52   29   50 1
  53   30   31 2
  54   31   32 1
  55   32   33 2
  56   33   51 1

#	End of record

