#	Name: ASD09810010
#	Creating user name:	WinNT
#	Creation time:	15. 06. 2019 21:24

#	Modifying user name:	WinNT
#	Modification time:	15. 06. 2019 21:24

#	Program:	/corina/corina34_cracker 3.40 0067  02.08.2006

@<TRIPOS>MOLECULE
ASD09810010
  37   40    0    0    0
SMALL
NO_CHARGES


@<TRIPOS>ATOM
   1 C1            -0.0992     1.5286     0.5613 C.ar    
   2 C2            -0.1666     0.2574     1.1568 C.ar    
   3 C3             0.9382    -0.2686     1.7537 C.ar    
   4 C4             2.1402     0.4337     1.7855 C.ar    
   5 C5             2.2425     1.6685     1.2184 C.ar    
   6 C6             1.1245     2.2395     0.5951 C.ar    
   7 C7             1.1896     3.5191    -0.0054 C.ar    
   8 C8             0.0419     4.0146    -0.6007 C.ar    
   9 C9            -1.1212     3.2548    -0.5919 C.ar    
  10 N10           -1.1681     2.0668    -0.0366 N.ar    
  11 N11            2.3693     4.2561     0.0025 N.am    
  12 C12            2.3250     5.5999    -0.0917 C.2     
  13 C13            3.5945     6.4049     0.0140 C.3     
  14 O14            1.2634     6.1611    -0.2616 O.2     
  15 N15            3.2817     7.8299    -0.1192 N.am    
  16 C16            2.9773     8.6763     0.8845 C.2     
  17 O17            2.7508     9.9008     0.3834 O.3     
  18 C18            2.9060     9.8668    -0.9628 C.ar    
  19 C19            2.7928    10.8311    -1.9521 C.ar    
  20 C20            3.0151    10.4927    -3.2726 C.ar    
  21 C21            3.3505     9.1939    -3.6140 C.ar    
  22 C22            3.4656     8.2262    -2.6351 C.ar    
  23 C23            3.2503     8.5599    -1.3071 C.ar    
  24 O24            2.9166     8.3769     2.0615 O.2     
  25 H25           -1.0916    -0.3000     1.1414 H       
  26 H26            0.8814    -1.2459     2.2099 H       
  27 H27            3.0019    -0.0056     2.2659 H       
  28 H28            3.1798     2.2042     1.2491 H       
  29 H29            0.0508     4.9875    -1.0694 H       
  30 H30           -2.0105     3.6511    -1.0592 H       
  31 H31            3.2238     3.8030     0.0759 H       
  32 H32            4.0598     6.2241     0.9830 H       
  33 H33            4.2803     6.1078    -0.7794 H       
  34 H34            2.5307    11.8456    -1.6907 H       
  35 H35            2.9266    11.2450    -4.0424 H       
  36 H36            3.5222     8.9364    -4.6487 H       
  37 H37            3.7274     7.2133    -2.9033 H       
@<TRIPOS>BOND
   1    1    2 ar
   2    1    6 ar
   3    1   10 ar
   4    2    3 ar
   5    2   25 1
   6    3    4 ar
   7    3   26 1
   8    4    5 ar
   9    4   27 1
  10    5    6 ar
  11    5   28 1
  12    6    7 ar
  13    7    8 ar
  14    7   11 1
  15    8    9 ar
  16    8   29 1
  17    9   10 ar
  18    9   30 1
  19   11   12 am
  20   11   31 1
  21   12   13 1
  22   12   14 2
  23   13   15 1
  24   13   32 1
  25   13   33 1
  26   15   16 am
  27   15   23 1
  28   16   17 1
  29   16   24 2
  30   17   18 1
  31   18   19 ar
  32   18   23 ar
  33   19   20 ar
  34   19   34 1
  35   20   21 ar
  36   20   35 1
  37   21   22 ar
  38   21   36 1
  39   22   23 ar
  40   22   37 1

#	End of record

