#	Name: ASD03091363
#	Creating user name:	WinNT
#	Creation time:	15. 06. 2019 20:30

#	Modifying user name:	WinNT
#	Modification time:	15. 06. 2019 20:30

#	Program:	/corina/corina34_cracker 3.40 0067  02.08.2006

@<TRIPOS>MOLECULE
ASD03091363
  62   64    0    0    0
SMALL
NO_CHARGES


@<TRIPOS>ATOM
   1 C1            -0.0169     1.3929     0.0097 C.ar    
   2 C2             0.0021    -0.0041     0.0020 C.ar    
   3 C3             1.2417    -0.6725    -0.0134 C.ar    
   4 N4             2.3780     0.0065    -0.0202 N.ar    
   5 C5             2.4009     1.3297    -0.0133 C.ar    
   6 C6             1.2036     2.0720     0.0017 C.ar    
   7 C7            -1.2225    -0.7464     0.0102 C.1     
   8 C8             1.2374     3.5036     0.0086 C.1     
   9 N9             1.2721    -2.0523    -0.0211 N.pl3   
  10 N10            3.6126     1.9905    -0.0208 N.pl3   
  11 C11            4.8631     1.2274    -0.0364 C.3     
  12 C12            6.0048     2.1565    -0.0419 C.1     
  13 C13            2.5566    -2.7567    -0.0372 C.3     
  14 C14            2.3102    -4.2667    -0.0429 C.3     
  15 C15            3.6516    -5.0023    -0.0597 C.3     
  16 N16           -2.1939    -1.3352     0.0167 N.1     
  17 N17            1.2643     4.6392     0.0141 N.1     
  18 C18            6.9155     2.8974    -0.0462 C.1     
  19 C19            3.4053    -6.5123    -0.0654 C.3     
  20 C20            4.7467    -7.2479    -0.0822 C.3     
  21 C21            5.8446    -9.4886    -0.1687 C.3     
  22 N22            6.5234    -9.1935     1.0996 N.3     
  23 C23            6.8104    -7.7590     1.2269 C.3     
  24 C24            5.4976    -6.9725     1.2235 C.3     
  25 C25            4.5029    -8.7538    -0.2137 C.3     
  26 C26            7.7499    -9.9901     1.2380 C.3     
  27 C27            8.5425    -9.4909     2.4185 C.ar    
  28 C28            8.3270   -10.0295     3.6733 C.ar    
  29 C29            9.0540    -9.5716     4.7562 C.ar    
  30 C30            9.9969    -8.5754     4.5842 C.ar    
  31 C31           10.2130    -8.0374     3.3293 C.ar    
  32 C32            9.4891    -8.4984     2.2457 C.ar    
  33 H33           -0.9515     1.9339     0.0171 H       
  34 H34            0.4429    -2.5558    -0.0159 H       
  35 H35            3.6363     2.9602    -0.0158 H       
  36 H36            4.9137     0.5947     0.8498 H       
  37 H37            4.8974     0.6043    -0.9301 H       
  38 H38            3.1137    -2.4760    -0.9310 H       
  39 H39            3.1307    -2.4856     0.8489 H       
  40 H40            1.7531    -4.5473     0.8509 H       
  41 H41            1.7361    -4.5378    -0.9289 H       
  42 H42            4.2088    -4.7216    -0.9535 H       
  43 H43            4.2258    -4.7312     0.8263 H       
  44 H44            7.7299     3.5601    -0.0501 H       
  45 H45            2.8481    -6.7929     0.8284 H       
  46 H46            2.8311    -6.7834    -0.9514 H       
  47 H47            5.3423    -6.9002    -0.9263 H       
  48 H48            6.4678    -9.1582    -0.9997 H       
  49 H49            5.6735   -10.5622    -0.2477 H       
  50 H50            7.3409    -7.5763     2.1615 H       
  51 H51            7.4291    -7.4366     0.3894 H       
  52 H52            5.7118    -5.9066     1.3023 H       
  53 H53            4.8843    -7.2845     2.0688 H       
  54 H54            3.8740    -9.0938     0.6090 H       
  55 H55            4.0064    -8.9606    -1.1618 H       
  56 H56            7.4879   -11.0367     1.3927 H       
  57 H57            8.3488    -9.8955     0.3322 H       
  58 H58            7.5904   -10.8078     3.8076 H       
  59 H59            8.8852    -9.9919     5.7366 H       
  60 H60           10.5644    -8.2172     5.4304 H       
  61 H61           10.9494    -7.2589     3.1951 H       
  62 H62            9.6579    -8.0781     1.2653 H       
@<TRIPOS>BOND
   1    1    2 ar
   2    1    6 ar
   3    1   33 1
   4    2    3 ar
   5    2    7 1
   6    3    4 ar
   7    3    9 1
   8    4    5 ar
   9    5    6 ar
  10    5   10 1
  11    6    8 1
  12    7   16 3
  13    8   17 3
  14    9   13 1
  15    9   34 1
  16   10   11 1
  17   10   35 1
  18   11   12 1
  19   11   36 1
  20   11   37 1
  21   12   18 3
  22   13   14 1
  23   13   38 1
  24   13   39 1
  25   14   15 1
  26   14   40 1
  27   14   41 1
  28   15   19 1
  29   15   42 1
  30   15   43 1
  31   18   44 1
  32   19   20 1
  33   19   45 1
  34   19   46 1
  35   20   25 1
  36   20   24 1
  37   20   47 1
  38   21   22 1
  39   21   25 1
  40   21   48 1
  41   21   49 1
  42   22   23 1
  43   22   26 1
  44   23   24 1
  45   23   50 1
  46   23   51 1
  47   24   52 1
  48   24   53 1
  49   25   54 1
  50   25   55 1
  51   26   27 1
  52   26   56 1
  53   26   57 1
  54   27   28 ar
  55   27   32 ar
  56   28   29 ar
  57   28   58 1
  58   29   30 ar
  59   29   59 1
  60   30   31 ar
  61   30   60 1
  62   31   32 ar
  63   31   61 1
  64   32   62 1

#	End of record

