#	Name: ASD02038609
#	Creating user name:	WinNT
#	Creation time:	15. 06. 2019 20:17

#	Modifying user name:	WinNT
#	Modification time:	15. 06. 2019 20:17

#	Program:	/corina/corina34_cracker 3.40 0067  02.08.2006

@<TRIPOS>MOLECULE
ASD02038609
  43   45    0    0    0
SMALL
NO_CHARGES


@<TRIPOS>ATOM
   1 C1            -0.0173     1.4248     0.0099 C.3     
   2 O2             0.0021    -0.0041     0.0020 O.3     
   3 C3            -1.2010    -0.6378     0.0101 C.ar    
   4 C4            -1.2548    -2.0238     0.0032 C.ar    
   5 C5            -2.3742     0.1016     0.0310 C.ar    
   6 C6            -3.5963    -0.5422     0.0392 C.ar    
   7 C7            -3.6502    -1.9280     0.0261 C.ar    
   8 C8            -2.4769    -2.6675     0.0113 C.ar    
   9 O9            -4.8533    -2.5618     0.0346 O.3     
  10 C10            1.3965     1.9464    -0.0008 C.2     
  11 N11            1.6248     3.2747     0.0041 N.am    
  12 O12            2.3289     1.1709    -0.0139 O.2     
  13 C13            2.9966     3.8049    -0.0061 C.3     
  14 C14            0.5086     4.2324     0.0137 C.3     
  15 C15            0.7267     5.2454    -1.1152 C.3     
  16 N16            2.0608     5.8450    -0.9798 N.3     
  17 C17            3.1117     4.8356    -1.1343 C.3     
  18 C18            2.2352     6.8898    -1.8913 C.ar    
  19 C19            3.4336     7.5903    -1.9254 C.ar    
  20 C20            1.2118     7.2256    -2.7689 C.ar    
  21 C21            1.3864     8.2581    -3.6692 C.ar    
  22 C22            2.5793     8.9586    -3.6983 C.ar    
  23 C23            3.6033     8.6230    -2.8285 C.ar    
  24 Cl24           2.7951    10.2559    -4.8315 Cl      
  25 Cl25           5.0984     9.5045    -2.8675 Cl      
  26 H26           -0.5445     1.7859    -0.8732 H       
  27 H27           -0.5275     1.7763     0.9067 H       
  28 H28           -0.3412    -2.5996    -0.0090 H       
  29 H29           -2.3323     1.1807     0.0412 H       
  30 H30           -4.5099     0.0336     0.0562 H       
  31 H31           -2.5188    -3.7467     0.0007 H       
  32 H32           -5.2121    -2.7364    -0.8462 H       
  33 H33            3.2116     4.2827     0.9497 H       
  34 H34            3.7020     2.9922    -0.1793 H       
  35 H35           -0.4302     3.7022    -0.1463 H       
  36 H36            0.4802     4.7521     0.9715 H       
  37 H37            0.6513     4.7392    -2.0776 H       
  38 H38           -0.0311     6.0266    -1.0544 H       
  39 H39            4.0885     5.3167    -1.0835 H       
  40 H40            3.0001     4.3389    -2.0981 H       
  41 H41            4.2321     7.3289    -1.2468 H       
  42 H42            0.2805     6.6792    -2.7472 H       
  43 H43            0.5910     8.5189    -4.3517 H       
@<TRIPOS>BOND
   1    1    2 1
   2    1   10 1
   3    1   26 1
   4    1   27 1
   5    2    3 1
   6    3    4 ar
   7    3    5 ar
   8    4    8 ar
   9    4   28 1
  10    5    6 ar
  11    5   29 1
  12    6    7 ar
  13    6   30 1
  14    7    8 ar
  15    7    9 1
  16    8   31 1
  17    9   32 1
  18   10   11 am
  19   10   12 2
  20   11   13 1
  21   11   14 1
  22   13   17 1
  23   13   33 1
  24   13   34 1
  25   14   15 1
  26   14   35 1
  27   14   36 1
  28   15   16 1
  29   15   37 1
  30   15   38 1
  31   16   17 1
  32   16   18 1
  33   17   39 1
  34   17   40 1
  35   18   19 ar
  36   18   20 ar
  37   19   23 ar
  38   19   41 1
  39   20   21 ar
  40   20   42 1
  41   21   22 ar
  42   21   43 1
  43   22   23 ar
  44   22   24 1
  45   23   25 1

#	End of record

