#	Name: ASD00311492
#	Creating user name:	WinNT
#	Creation time:	15. 06. 2019 18:34

#	Modifying user name:	WinNT
#	Modification time:	15. 06. 2019 18:34

#	Program:	/corina/corina34_cracker 3.40 0067  02.08.2006

@<TRIPOS>MOLECULE
ASD00311492
  50   54    0    0    0
SMALL
NO_CHARGES


@<TRIPOS>ATOM
   1 C1            -0.0167     1.3777     0.0096 C.2     
   2 C2             0.0021    -0.0041     0.0020 C.2     
   3 C3             1.2588    -0.6767    -0.0140 C.2     
   4 C4             2.4315     0.0672    -0.0217 C.2     
   5 C5             2.3574     1.4752    -0.0134 C.2     
   6 N6             1.1648     2.0903     0.0022 N.am    
   7 C7            -1.3432    -0.5752     0.0123 C.2     
   8 C8            -2.3228     0.3261     0.0268 C.2     
   9 S9            -1.6793     1.9562     0.0358 S.3     
  10 O10            3.3822     2.1373    -0.0200 O.2     
  11 C11            3.7476    -0.6120    -0.0379 C.ar    
  12 C12            4.5930    -0.4746    -1.1387 C.ar    
  13 C13            5.8178    -1.1099    -1.1479 C.ar    
  14 C14            6.2078    -1.8823    -0.0684 C.ar    
  15 C15            5.3736    -2.0224     1.0264 C.ar    
  16 C16            4.1490    -1.3870     1.0501 C.ar    
  17 O17            1.3087    -2.0292    -0.0214 O.3     
  18 C18           -2.0652    -4.7706    -0.0094 C.ar    
  19 C19           -2.7055    -3.9564     0.9320 C.ar    
  20 C20           -2.4703    -2.5942     0.9381 C.ar    
  21 C21           -1.5956    -2.0348     0.0070 C.ar    
  22 C22           -0.9583    -2.8493    -0.9301 C.ar    
  23 C23           -1.1918    -4.2069    -0.9380 C.ar    
  24 C24           -2.3106    -6.2326    -0.0145 C.ar    
  25 C25           -2.6483    -6.8808    -1.2018 C.ar    
  26 C26           -2.8758    -8.2415    -1.2017 C.ar    
  27 C27           -2.7697    -8.9637    -0.0240 C.ar    
  28 C28           -2.4345    -8.3239     1.1583 C.ar    
  29 C29           -2.1990    -6.9645     1.1668 C.ar    
  30 O30           -3.5574    -4.5038     1.8376 O.3     
  31 C31           -4.1752    -3.6127     2.7684 C.3     
  32 F32           -2.9943   -10.2959    -0.0285 F       
  33 H33            1.1326     3.0597     0.0073 H       
  34 H34           -3.3754     0.0846     0.0356 H       
  35 H35            4.2894     0.1275    -1.9823 H       
  36 H36            6.4733    -1.0043    -1.9997 H       
  37 H37            7.1671    -2.3782    -0.0805 H       
  38 H38            5.6834    -2.6270     1.8660 H       
  39 H39            3.5008    -1.4932     1.9073 H       
  40 H40            2.2060    -2.3896    -0.0322 H       
  41 H41           -2.9634    -1.9638     1.6632 H       
  42 H42           -0.2812    -2.4145    -1.6505 H       
  43 H43           -0.6974    -4.8351    -1.6642 H       
  44 H44           -2.7319    -6.3185    -2.1201 H       
  45 H45           -3.1374    -8.7445    -2.1209 H       
  46 H46           -2.3529    -8.8910     2.0739 H       
  47 H47           -1.9330    -6.4674     2.0880 H       
  48 H48           -3.4064    -3.1105     3.3557 H       
  49 H49           -4.7612    -2.8704     2.2265 H       
  50 H50           -4.8291    -4.1774     3.4328 H       
@<TRIPOS>BOND
   1    1    2 2
   2    1    6 1
   3    1    9 1
   4    2    3 1
   5    2    7 1
   6    3    4 2
   7    3   17 1
   8    4    5 1
   9    4   11 1
  10    5    6 am
  11    5   10 2
  12    6   33 1
  13    7    8 2
  14    7   21 1
  15    8    9 1
  16    8   34 1
  17   11   12 ar
  18   11   16 ar
  19   12   13 ar
  20   12   35 1
  21   13   14 ar
  22   13   36 1
  23   14   15 ar
  24   14   37 1
  25   15   16 ar
  26   15   38 1
  27   16   39 1
  28   17   40 1
  29   18   19 ar
  30   18   23 ar
  31   18   24 1
  32   19   20 ar
  33   19   30 1
  34   20   21 ar
  35   20   41 1
  36   21   22 ar
  37   22   23 ar
  38   22   42 1
  39   23   43 1
  40   24   25 ar
  41   24   29 ar
  42   25   26 ar
  43   25   44 1
  44   26   27 ar
  45   26   45 1
  46   27   28 ar
  47   27   32 1
  48   28   29 ar
  49   28   46 1
  50   29   47 1
  51   30   31 1
  52   31   48 1
  53   31   49 1
  54   31   50 1

#	End of record

