#	Name: ASD01720075
#	Creating user name:	WinNT
#	Creation time:	15. 06. 2019 19:23

#	Modifying user name:	WinNT
#	Modification time:	15. 06. 2019 19:23

#	Program:	/corina/corina34_cracker 3.40 0067  02.08.2006

@<TRIPOS>MOLECULE
ASD01720075
  66   69    0    0    0
SMALL
NO_CHARGES


@<TRIPOS>ATOM
   1 C1            -0.0187     1.5261     0.0104 C.3     
   2 C2             0.0021    -0.0041     0.0020 C.3     
   3 C3             0.7612    -0.5061     1.2334 C.3     
   4 C4             2.1767     0.0777     1.2237 C.3     
   5 C5             2.0929     1.6055     1.1967 C.3     
   6 N6             1.3585     2.0357     0.0000 N.3     
   7 C7             1.3765     3.4143    -0.1242 C.ar    
   8 C8             2.5992     4.0846    -0.1532 C.ar    
   9 C9             2.6201     5.4472    -0.2764 C.ar    
  10 C10            1.3989     6.1315    -0.3704 C.ar    
  11 C11            0.2014     5.3945    -0.3347 C.ar    
  12 N12            0.2321     4.0751    -0.2192 N.ar    
  13 C13           -1.4326    -0.5346     0.0350 C.3     
  14 C14           -1.4163    -2.0357    -0.0970 C.2     
  15 O15           -0.3650    -2.6211    -0.2063 O.2     
  16 O16           -2.5697    -2.7223    -0.0932 O.3     
  17 S17           -1.3460     6.2292    -0.4503 S.3     
  18 C18            1.3713     7.5959    -0.5036 C.2     
  19 O19            0.3069     8.1794    -0.5844 O.2     
  20 N20            2.5252     8.2915    -0.5362 N.am    
  21 C21            2.4977     9.7502    -0.6690 C.3     
  22 C22            2.3249    10.3848     0.7125 C.3     
  23 C23            3.8108    10.2307    -1.2902 C.3     
  24 C24            3.7821    11.7541    -1.4288 C.3     
  25 C25            3.6092    12.3887    -0.0474 C.3     
  26 C26            2.2962    11.9083     0.5739 C.3     
  27 C27           -2.4733     4.8165    -0.3517 C.3     
  28 C28           -3.8971     5.3034    -0.4326 C.ar    
  29 C29           -4.5193     5.4189    -1.6616 C.ar    
  30 C30           -5.8254     5.8656    -1.7359 C.ar    
  31 C31           -6.5095     6.1964    -0.5811 C.ar    
  32 C32           -5.8876     6.0800     0.6480 C.ar    
  33 C33           -4.5829     5.6292     0.7226 C.ar    
  34 H34           -0.5461     1.8871    -0.8725 H       
  35 H35           -0.5291     1.8775     0.9071 H       
  36 H36            0.5002    -0.3563    -0.9012 H       
  37 H37            0.2416    -0.1869     2.1368 H       
  38 H38            0.8159    -1.5945     1.2088 H       
  39 H39            2.7082    -0.2418     2.1201 H       
  40 H40            2.7091    -0.2732     0.3397 H       
  41 H41            1.5725     1.9565     2.0879 H       
  42 H42            3.0991     2.0241     1.1754 H       
  43 H43            3.5238     3.5316    -0.0785 H       
  44 H44            3.5567     5.9845    -0.3004 H       
  45 H45           -1.9006    -0.2580     0.9798 H       
  46 H46           -1.9985    -0.1033    -0.7908 H       
  47 H47           -2.5087    -3.6835    -0.1805 H       
  48 H48            3.3740     7.8263    -0.4718 H       
  49 H49            1.6650    10.0412    -1.3092 H       
  50 H50            1.3895    10.0426     1.1551 H       
  51 H51            3.1577    10.0939     1.3527 H       
  52 H52            4.6436     9.9397    -0.6500 H       
  53 H53            3.9339     9.7786    -2.2744 H       
  54 H54            4.7175    12.0964    -1.8714 H       
  55 H55            2.9493    12.0451    -2.0691 H       
  56 H56            4.4420    12.0978     0.5929 H       
  57 H57            3.5888    13.4740    -0.1462 H       
  58 H58            1.4634    12.1992    -0.0664 H       
  59 H59            2.1730    12.3604     1.5580 H       
  60 H60           -2.2748     4.1349    -1.1788 H       
  61 H61           -2.3207     4.2952     0.5933 H       
  62 H62           -3.9849     5.1605    -2.5639 H       
  63 H63           -6.3113     5.9565    -2.6961 H       
  64 H64           -7.5296     6.5460    -0.6391 H       
  65 H65           -6.4219     6.3388     1.5502 H       
  66 H66           -4.0983     5.5348     1.6831 H       
@<TRIPOS>BOND
   1    1    2 1
   2    1    6 1
   3    1   34 1
   4    1   35 1
   5    2    3 1
   6    2   13 1
   7    2   36 1
   8    3    4 1
   9    3   37 1
  10    3   38 1
  11    4    5 1
  12    4   39 1
  13    4   40 1
  14    5    6 1
  15    5   41 1
  16    5   42 1
  17    6    7 1
  18    7    8 ar
  19    7   12 ar
  20    8    9 ar
  21    8   43 1
  22    9   10 ar
  23    9   44 1
  24   10   11 ar
  25   10   18 1
  26   11   12 ar
  27   11   17 1
  28   13   14 1
  29   13   45 1
  30   13   46 1
  31   14   15 2
  32   14   16 1
  33   16   47 1
  34   17   27 1
  35   18   19 2
  36   18   20 am
  37   20   21 1
  38   20   48 1
  39   21   23 1
  40   21   22 1
  41   21   49 1
  42   22   26 1
  43   22   50 1
  44   22   51 1
  45   23   24 1
  46   23   52 1
  47   23   53 1
  48   24   25 1
  49   24   54 1
  50   24   55 1
  51   25   26 1
  52   25   56 1
  53   25   57 1
  54   26   58 1
  55   26   59 1
  56   27   28 1
  57   27   60 1
  58   27   61 1
  59   28   29 ar
  60   28   33 ar
  61   29   30 ar
  62   29   62 1
  63   30   31 ar
  64   30   63 1
  65   31   32 ar
  66   31   64 1
  67   32   33 ar
  68   32   65 1
  69   33   66 1

#	End of record

