#	Name: ASD01912873
#	Creating user name:	WinNT
#	Creation time:	15. 06. 2019 20:00

#	Modifying user name:	WinNT
#	Modification time:	15. 06. 2019 20:00

#	Program:	/corina/corina34_cracker 3.40 0067  02.08.2006

@<TRIPOS>MOLECULE
ASD01912873
  42   45    0    0    0
SMALL
NO_CHARGES


@<TRIPOS>ATOM
   1 C1            -0.0175     1.3662    -0.0400 C.2     
   2 N2             0.0021    -0.0040     0.0056 N.pl3   
   3 C3            -1.2012    -0.6912     0.0642 C.2     
   4 C4            -2.3619    -0.0487     0.0768 C.2     
   5 N5            -2.4358     1.3307     0.0320 N.am    
   6 C6            -1.3028     2.0662    -0.0204 C.2     
   7 C7             1.2997     1.7823    -0.0928 C.2     
   8 C8             2.0538     0.6102    -0.0755 C.2     
   9 N9             1.2242    -0.4046    -0.0168 N.2     
  10 O10           -1.3507     3.2825    -0.0599 O.2     
  11 C11           -3.6826     1.9657     0.0469 C.ar    
  12 C12            3.5578     0.5237    -0.1169 C.3     
  13 O13            4.1091     1.8406    -0.1775 O.3     
  14 C14            5.4615     1.9408    -0.2207 C.ar    
  15 N15            6.2003     0.8440    -0.2055 N.ar    
  16 C16            7.5183     0.8963    -0.2461 C.ar    
  17 C17            8.1768     2.1081    -0.3059 C.ar    
  18 C18            7.4372     3.2829    -0.3237 C.ar    
  19 C19            6.0568     3.1943    -0.2862 C.ar    
  20 C20           -4.0612     2.7282     1.1435 C.ar    
  21 C21           -4.5408     1.8387    -1.0380 C.ar    
  22 C22           -5.7716     2.4662    -1.0234 C.ar    
  23 C23           -6.1522     3.2212     0.0695 C.ar    
  24 C24           -5.2966     3.3559     1.1543 C.ar    
  25 O25           -5.6724     4.0989     2.2284 O.3     
  26 C26           -6.9615     4.7130     2.1735 C.3     
  27 H27           -1.1932    -1.7705     0.1000 H       
  28 H28           -3.2767    -0.6210     0.1230 H       
  29 H29            1.6658     2.7974    -0.1383 H       
  30 H30            3.9176     0.0201     0.7804 H       
  31 H31            3.8652    -0.0399    -0.9978 H       
  32 H32            8.0889    -0.0205    -0.2320 H       
  33 H33            9.2558     2.1419    -0.3381 H       
  34 H34            7.9279     4.2438    -0.3702 H       
  35 H35            5.4505     4.0880    -0.2987 H       
  36 H36           -3.3944     2.8316     1.9867 H       
  37 H37           -4.2456     1.2495    -1.8936 H       
  38 H38           -6.4373     2.3667    -1.8679 H       
  39 H39           -7.1148     3.7108     0.0779 H       
  40 H40           -7.7263     3.9435     2.0676 H       
  41 H41           -7.1358     5.2746     3.0913 H       
  42 H42           -7.0058     5.3892     1.3198 H       
@<TRIPOS>BOND
   1    1    2 1
   2    1    7 2
   3    1    6 1
   4    2    3 1
   5    2    9 1
   6    3    4 2
   7    3   27 1
   8    4    5 1
   9    4   28 1
  10    5    6 am
  11    5   11 1
  12    6   10 2
  13    7    8 1
  14    7   29 1
  15    8    9 2
  16    8   12 1
  17   11   20 ar
  18   11   21 ar
  19   12   13 1
  20   12   30 1
  21   12   31 1
  22   13   14 1
  23   14   15 ar
  24   14   19 ar
  25   15   16 ar
  26   16   17 ar
  27   16   32 1
  28   17   18 ar
  29   17   33 1
  30   18   19 ar
  31   18   34 1
  32   19   35 1
  33   20   24 ar
  34   20   36 1
  35   21   22 ar
  36   21   37 1
  37   22   23 ar
  38   22   38 1
  39   23   24 ar
  40   23   39 1
  41   24   25 1
  42   25   26 1
  43   26   40 1
  44   26   41 1
  45   26   42 1

#	End of record

