#	Name: ASD07301114
#	Creating user name:	WinNT
#	Creation time:	15. 06. 2019 21:11

#	Modifying user name:	WinNT
#	Modification time:	15. 06. 2019 21:11

#	Program:	/corina/corina34_cracker 3.40 0067  02.08.2006

@<TRIPOS>MOLECULE
ASD07301114
  27   28    0    0    0
SMALL
NO_CHARGES


@<TRIPOS>ATOM
   1 N1            -0.0169     1.3974     0.0097 N.pl3   
   2 C2             0.0021    -0.0041     0.0020 C.ar    
   3 C3             1.2154    -0.6828    -0.0132 C.ar    
   4 C4             1.2342    -2.0653    -0.0203 C.ar    
   5 C5             0.0416    -2.7757    -0.0127 C.ar    
   6 C6            -1.1714    -2.0972     0.0025 C.ar    
   7 C7            -1.1901    -0.7143     0.0154 C.ar    
   8 N8             0.0606    -4.1772    -0.0209 N.3     
   9 C9             0.7423    -4.6878    -1.2191 C.3     
  10 C10            0.7929    -6.2168    -1.1582 C.3     
  11 O11           -0.5368    -6.7281    -1.0325 O.3     
  12 C12           -1.2298    -6.2517     0.1242 C.3     
  13 C13           -1.3010    -4.7231     0.0763 C.3     
  14 F14           -2.3321    -2.7886     0.0094 F       
  15 F15            2.3761     0.0086    -0.0215 F       
  16 H16            0.8164     1.8938     0.0044 H       
  17 H17           -0.8635     1.8709     0.0163 H       
  18 H18            2.1767    -2.5925    -0.0322 H       
  19 H19           -2.1326    -0.1871     0.0317 H       
  20 H20            0.1955    -4.3769    -2.1093 H       
  21 H21            1.7569    -4.2913    -1.2575 H       
  22 H22            1.2464    -6.6026    -2.0712 H       
  23 H23            1.3852    -6.5273    -0.2975 H       
  24 H24           -2.2393    -6.6627     0.1387 H       
  25 H25           -0.6964    -6.5632     1.0222 H       
  26 H26           -1.7779    -4.3523     0.9836 H       
  27 H27           -1.8805    -4.4128    -0.7932 H       
@<TRIPOS>BOND
   1    1    2 1
   2    1   16 1
   3    1   17 1
   4    2    3 ar
   5    2    7 ar
   6    3    4 ar
   7    3   15 1
   8    4    5 ar
   9    4   18 1
  10    5    6 ar
  11    5    8 1
  12    6    7 ar
  13    6   14 1
  14    7   19 1
  15    8    9 1
  16    8   13 1
  17    9   10 1
  18    9   20 1
  19    9   21 1
  20   10   11 1
  21   10   22 1
  22   10   23 1
  23   11   12 1
  24   12   13 1
  25   12   24 1
  26   12   25 1
  27   13   26 1
  28   13   27 1

#	End of record

