#	Name: ASD03730179
#	Creating user name:	WinNT
#	Creation time:	15. 06. 2019 20:44

#	Modifying user name:	WinNT
#	Modification time:	15. 06. 2019 20:44

#	Program:	/corina/corina34_cracker 3.40 0067  02.08.2006

@<TRIPOS>MOLECULE
ASD03730179
  46   50    0    0    0
SMALL
NO_CHARGES


@<TRIPOS>ATOM
   1 C1            -0.0187     1.5021     0.0185 C.2     
   2 C2             0.0011    -0.0045    -0.0114 C.3     
   3 O3             1.0236     2.1220     0.0366 O.2     
   4 N4            -1.1946     2.1607     0.0195 N.am    
   5 C5            -1.2153     3.5564     0.1329 C.ar    
   6 C6            -2.3326     4.1965     0.6587 C.ar    
   7 C7            -2.3489     5.5747     0.7689 C.ar    
   8 C8            -1.2559     6.3153     0.3567 C.ar    
   9 C9            -0.1445     5.6810    -0.1662 C.ar    
  10 C10           -0.1190     4.3036    -0.2739 C.ar    
  11 F11           -3.4003     3.4729     1.0609 F       
  12 O12            5.6379    -1.2444     1.4423 O.3     
  13 C13            4.5686    -0.3041     1.2258 C.3     
  14 C14            3.4543    -1.1912     0.6537 C.3     
  15 C15            3.8014    -2.5597     1.1751 C.ar    
  16 C16            5.1153    -2.4887     1.6308 C.ar    
  17 C17            5.6970    -3.6246     2.1857 C.ar    
  18 C18            4.9823    -4.8028     2.2721 C.ar    
  19 C19            3.6805    -4.8642     1.8074 C.ar    
  20 C20            3.0932    -3.7383     1.2590 C.ar    
  21 N21            1.3886    -0.4747    -0.0131 N.am    
  22 C22            2.0949    -0.7389     1.1041 C.2     
  23 C23            3.4128    -1.1440    -0.8448 C.ar    
  24 C24            4.3285    -1.4333    -1.8319 C.ar    
  25 C25            3.9821    -1.2860    -3.1632 C.ar    
  26 C26            2.7145    -0.8477    -3.5005 C.ar    
  27 C27            1.7939    -0.5564    -2.5156 C.ar    
  28 C28            2.1335    -0.7023    -1.1727 C.ar    
  29 O29            1.7084    -0.6321     2.2488 O.2     
  30 Cl30           5.7201    -6.2128     2.9659 Cl      
  31 H31           -0.5129    -0.3921     0.8682 H       
  32 H32           -0.5030    -0.3567    -0.9114 H       
  33 H33           -2.0265     1.6680    -0.0584 H       
  34 H34           -3.2158     6.0733     1.1767 H       
  35 H35           -1.2709     7.3917     0.4433 H       
  36 H36            0.7070     6.2627    -0.4870 H       
  37 H37            0.7519     3.8092    -0.6783 H       
  38 H38            4.2568     0.1504     2.1662 H       
  39 H39            4.8641     0.4586     0.5054 H       
  40 H40            6.7128    -3.5845     2.5503 H       
  41 H41            3.1249    -5.7880     1.8724 H       
  42 H42            2.0769    -3.7833     0.8961 H       
  43 H43            5.3180    -1.7750    -1.5664 H       
  44 H44            4.7002    -1.5125    -3.9374 H       
  45 H45            2.4443    -0.7328    -4.5398 H       
  46 H46            0.8058    -0.2149    -2.7867 H       
@<TRIPOS>BOND
   1    1    2 1
   2    1    3 2
   3    1    4 am
   4    2   21 1
   5    2   31 1
   6    2   32 1
   7    4    5 1
   8    4   33 1
   9    5    6 ar
  10    5   10 ar
  11    6    7 ar
  12    6   11 1
  13    7    8 ar
  14    7   34 1
  15    8    9 ar
  16    8   35 1
  17    9   10 ar
  18    9   36 1
  19   10   37 1
  20   12   13 1
  21   12   16 1
  22   13   14 1
  23   13   38 1
  24   13   39 1
  25   14   15 1
  26   14   22 1
  27   14   23 1
  28   15   16 ar
  29   15   20 ar
  30   16   17 ar
  31   17   18 ar
  32   17   40 1
  33   18   19 ar
  34   18   30 1
  35   19   20 ar
  36   19   41 1
  37   20   42 1
  38   21   22 am
  39   21   28 1
  40   22   29 2
  41   23   24 ar
  42   23   28 ar
  43   24   25 ar
  44   24   43 1
  45   25   26 ar
  46   25   44 1
  47   26   27 ar
  48   26   45 1
  49   27   28 ar
  50   27   46 1

#	End of record

