#	Name: ASD01880323
#	Creating user name:	WinNT
#	Creation time:	15. 06. 2019 19:40

#	Modifying user name:	WinNT
#	Modification time:	15. 06. 2019 19:40

#	Program:	/corina/corina34_cracker 3.40 0067  02.08.2006

@<TRIPOS>MOLECULE
ASD01880323
  35   37    0    0    0
SMALL
NO_CHARGES


@<TRIPOS>ATOM
   1 C1            -0.0192     1.3175    -0.0165 C.ar    
   2 N2             0.0001    -0.0030    -0.0108 N.ar    
   3 C3            -1.1233    -0.7056    -0.0047 C.ar    
   4 C4            -2.3635    -0.0169    -0.0044 C.ar    
   5 C5            -2.3269     1.3803    -0.0106 C.ar    
   6 N6            -1.1404     2.0007    -0.0111 N.ar    
   7 C7            -3.7223    -0.5248     0.0014 C.2     
   8 C8            -4.6600     0.4028    -0.0001 C.2     
   9 S9            -3.9665     2.0133    -0.0089 S.3     
  10 C10            1.2893     2.0650    -0.0233 C.3     
  11 C11           -6.1393     0.1151     0.0046 C.3     
  12 N12           -1.0874    -2.0890     0.0007 N.pl3   
  13 C13            0.1365    -2.7579    -0.1206 C.ar    
  14 C14            0.3419    -3.9575     0.5481 C.ar    
  15 C15            1.5492    -4.6169     0.4274 C.ar    
  16 C16            2.5567    -4.0813    -0.3615 C.ar    
  17 C17            2.3525    -2.8829    -1.0295 C.ar    
  18 C18            1.1437    -2.2251    -0.9145 C.ar    
  19 O19            3.7453    -4.7313    -0.4798 O.3     
  20 C20            4.7378    -4.1227    -1.3084 C.3     
  21 H21           -3.9487    -1.5808     0.0062 H       
  22 H22            1.6021     2.2408    -1.0526 H       
  23 H23            1.1647     3.0202     0.4867 H       
  24 H24            2.0477     1.4747     0.4911 H       
  25 H25           -6.4934     0.0499     1.0334 H       
  26 H26           -6.6671     0.9173    -0.5112 H       
  27 H27           -6.3273    -0.8300    -0.5049 H       
  28 H28           -1.9101    -2.5952     0.0887 H       
  29 H29           -0.4422    -4.3745     1.1627 H       
  30 H30            1.7093    -5.5497     0.9478 H       
  31 H31            3.1376    -2.4662    -1.6430 H       
  32 H32            0.9849    -1.2920    -1.4346 H       
  33 H33            4.3541    -4.0267    -2.3241 H       
  34 H34            4.9818    -3.1350    -0.9173 H       
  35 H35            5.6346    -4.7422    -1.3158 H       
@<TRIPOS>BOND
   1    1    2 ar
   2    1   10 1
   3    1    6 ar
   4    2    3 ar
   5    3    4 ar
   6    3   12 1
   7    4    5 ar
   8    4    7 1
   9    5    6 ar
  10    5    9 1
  11    7    8 2
  12    7   21 1
  13    8    9 1
  14    8   11 1
  15   10   22 1
  16   10   23 1
  17   10   24 1
  18   11   25 1
  19   11   26 1
  20   11   27 1
  21   12   13 1
  22   12   28 1
  23   13   14 ar
  24   13   18 ar
  25   14   15 ar
  26   14   29 1
  27   15   16 ar
  28   15   30 1
  29   16   17 ar
  30   16   19 1
  31   17   18 ar
  32   17   31 1
  33   18   32 1
  34   19   20 1
  35   20   33 1
  36   20   34 1
  37   20   35 1

#	End of record

