#	Name: ASD03330003
#	Creating user name:	WinNT
#	Creation time:	15. 06. 2019 20:36

#	Modifying user name:	WinNT
#	Modification time:	15. 06. 2019 20:36

#	Program:	/corina/corina34_cracker 3.40 0067  02.08.2006

@<TRIPOS>MOLECULE
ASD03330003
  57   60    0    0    0
SMALL
NO_CHARGES


@<TRIPOS>ATOM
   1 C1            -0.0168     1.3857     0.0097 C.ar    
   2 C2             0.0021    -0.0041     0.0020 C.ar    
   3 C3            -1.1731    -0.7218     0.0098 C.ar    
   4 C4            -2.3931    -0.0521     0.0256 C.ar    
   5 C5            -2.4101     1.3565     0.0333 C.ar    
   6 C6            -1.2016     2.0646     0.0303 C.ar    
   7 N7            -3.7005    -0.4788     0.0370 N.pl3   
   8 C8            -4.5290     0.6265     0.0516 C.2     
   9 C9            -3.7693     1.7530     0.0497 C.2     
  10 C10           -4.2815     3.1702     0.0631 C.3     
  11 C11           -4.4398     3.6416     1.5101 C.3     
  12 C12           -5.9991     0.5898     0.0661 C.2     
  13 N13           -6.6436    -0.5938     0.0663 N.am    
  14 C14           -8.1081    -0.6304     0.0808 C.3     
  15 C15           -8.5820    -2.0851     0.0778 C.3     
  16 C16          -10.0885    -2.1228     0.0926 C.ar    
  17 Cl17           1.4792     2.2664     0.0001 Cl      
  18 O18           -6.6333     1.6278     0.0780 O.2     
  19 C19          -10.7900    -2.1336    -1.0990 C.ar    
  20 C20          -12.1706    -2.1681    -1.0889 C.ar    
  21 C21          -12.8545    -2.1918     0.1199 C.ar    
  22 C22          -12.1466    -2.1808     1.3151 C.ar    
  23 C23          -10.7659    -2.1520     1.2978 C.ar    
  24 N24          -14.2507    -2.2262     0.1337 N.3     
  25 C25          -14.7631    -2.2467     1.5098 C.3     
  26 C26          -16.2894    -2.1373     1.4889 C.3     
  27 C27          -16.8693    -3.3085     0.6910 C.3     
  28 C28          -16.2828    -3.2924    -0.7233 C.3     
  29 C29          -14.7566    -3.3683    -0.6383 C.3     
  30 H30            0.9475    -0.5261    -0.0105 H       
  31 H31           -1.1482    -1.8015     0.0034 H       
  32 H32           -1.2067     3.1446     0.0362 H       
  33 H33           -3.9928    -1.4037     0.0351 H       
  34 H34           -3.5733     3.8174    -0.4544 H       
  35 H35           -5.2472     3.2123    -0.4404 H       
  36 H36           -4.8102     4.6667     1.5198 H       
  37 H37           -5.1479     2.9944     2.0276 H       
  38 H38           -3.4740     3.5995     2.0137 H       
  39 H39           -6.1379    -1.4215     0.0569 H       
  40 H40           -8.4752    -0.1305     0.9771 H       
  41 H41           -8.4930    -0.1211    -0.8027 H       
  42 H42           -8.2149    -2.5850    -0.8186 H       
  43 H43           -8.1971    -2.5945     0.9613 H       
  44 H44          -10.2578    -2.1148    -2.0385 H       
  45 H45          -12.7180    -2.1762    -2.0199 H       
  46 H46          -12.6752    -2.1992     2.2567 H       
  47 H47          -10.2149    -2.1438     2.2267 H       
  48 H48          -14.4724    -3.1802     1.9916 H       
  49 H49          -14.3463    -1.4064     2.0650 H       
  50 H50          -16.6704    -2.1683     2.5096 H       
  51 H51          -16.5805    -1.1976     1.0195 H       
  52 H52          -16.6111    -4.2469     1.1817 H       
  53 H53          -17.9536    -3.2109     0.6368 H       
  54 H54          -16.6591    -4.1486    -1.2831 H       
  55 H55          -16.5738    -2.3709    -1.2275 H       
  56 H56          -14.3352    -3.3426    -1.6432 H       
  57 H57          -14.4660    -4.2965    -0.1464 H       
@<TRIPOS>BOND
   1    1    2 ar
   2    1   17 1
   3    1    6 ar
   4    2    3 ar
   5    2   30 1
   6    3    4 ar
   7    3   31 1
   8    4    5 ar
   9    4    7 1
  10    5    6 ar
  11    5    9 1
  12    6   32 1
  13    7    8 1
  14    7   33 1
  15    8    9 2
  16    8   12 1
  17    9   10 1
  18   10   11 1
  19   10   34 1
  20   10   35 1
  21   11   36 1
  22   11   37 1
  23   11   38 1
  24   12   13 am
  25   12   18 2
  26   13   14 1
  27   13   39 1
  28   14   15 1
  29   14   40 1
  30   14   41 1
  31   15   16 1
  32   15   42 1
  33   15   43 1
  34   16   19 ar
  35   16   23 ar
  36   19   20 ar
  37   19   44 1
  38   20   21 ar
  39   20   45 1
  40   21   22 ar
  41   21   24 1
  42   22   23 ar
  43   22   46 1
  44   23   47 1
  45   24   25 1
  46   24   29 1
  47   25   26 1
  48   25   48 1
  49   25   49 1
  50   26   27 1
  51   26   50 1
  52   26   51 1
  53   27   28 1
  54   27   52 1
  55   27   53 1
  56   28   29 1
  57   28   54 1
  58   28   55 1
  59   29   56 1
  60   29   57 1

#	End of record

