#	Name: ASD09530063
#	Creating user name:	WinNT
#	Creation time:	15. 06. 2019 21:22

#	Modifying user name:	WinNT
#	Modification time:	15. 06. 2019 21:22

#	Program:	/corina/corina34_cracker 3.40 0067  02.08.2006

@<TRIPOS>MOLECULE
ASD09530063
  49   51    0    0    0
SMALL
NO_CHARGES


@<TRIPOS>ATOM
   1 C1             0.2227     1.8271     0.4663 C.2     
   2 C2             0.2053     0.3540     0.7836 C.3     
   3 O3             1.2491     2.3550     0.0938 O.2     
   4 N4            -0.9035     2.5568     0.5911 N.am    
   5 C5            -0.8865     3.9888     0.2825 C.3     
   6 C6            -0.4191     4.7699     1.5123 C.3     
   7 C7            -2.2737     4.4368    -0.0997 C.ar    
   8 C8            -2.4329     5.5492    -0.9055 C.ar    
   9 C9            -3.7105     5.9552    -1.2534 C.ar    
  10 C10           -4.7922     5.2202    -0.7734 C.ar    
  11 C11           -4.5511     4.1142     0.0314 C.ar    
  12 N12           -3.3183     3.7594     0.3344 N.ar    
  13 N13           -6.1000     5.5904    -1.0964 N.pl3   
  14 C14           -7.2296     4.8097    -0.5856 C.3     
  15 C15           -8.5399     5.4231    -1.0832 C.3     
  16 F16           -8.5591     5.4107    -2.4820 F       
  17 F17           -9.6186     4.6775    -0.5955 F       
  18 F18           -8.6404     6.7418    -0.6271 F       
  19 C19            1.5783    -0.2247     0.5583 C.ar    
  20 C20            2.4957    -0.2481     1.5926 C.ar    
  21 C21            3.7549    -0.7781     1.3887 C.ar    
  22 C22            4.0988    -1.2876     0.1447 C.ar    
  23 C23            3.1762    -1.2633    -0.8914 C.ar    
  24 C24            1.9166    -0.7366    -0.6808 C.ar    
  25 O25            5.3371    -1.8091    -0.0586 O.3     
  26 S26            7.1233    -3.8129     0.3978 S.3     
  27 C27            5.5975    -3.0428     0.4387 C.2     
  28 N28            4.7268    -3.8094     1.0147 N.2     
  29 C29            5.1539    -4.9834     1.4425 C.2     
  30 C30            6.4473    -5.2188     1.2165 C.2     
  31 H31           -0.0833     0.2101     1.8249 H       
  32 H32           -0.5120    -0.1489     0.1350 H       
  33 H33           -1.7254     2.1337     0.8852 H       
  34 H34           -0.2036     4.1738    -0.5466 H       
  35 H35           -1.1021     4.5850     2.3414 H       
  36 H36            0.5842     4.4459     1.7888 H       
  37 H37           -0.4065     5.8354     1.2827 H       
  38 H38           -1.5709     6.0953    -1.2591 H       
  39 H39           -3.8644     6.8205    -1.8811 H       
  40 H40           -5.3818     3.5370     0.4096 H       
  41 H41           -6.2602     6.3643    -1.6587 H       
  42 H42           -7.1513     3.7822    -0.9410 H       
  43 H43           -7.2147     4.8193     0.5042 H       
  44 H44            2.2275     0.1486     2.5607 H       
  45 H45            4.4713    -0.7954     2.1967 H       
  46 H46            3.4414    -1.6590    -1.8607 H       
  47 H47            1.1969    -0.7209    -1.4859 H       
  48 H48            4.5084    -5.6952     1.9356 H       
  49 H49            6.9859    -6.1149     1.4875 H       
@<TRIPOS>BOND
   1    1    2 1
   2    1    3 2
   3    1    4 am
   4    2   19 1
   5    2   31 1
   6    2   32 1
   7    4    5 1
   8    4   33 1
   9    5    6 1
  10    5    7 1
  11    5   34 1
  12    6   35 1
  13    6   36 1
  14    6   37 1
  15    7    8 ar
  16    7   12 ar
  17    8    9 ar
  18    8   38 1
  19    9   10 ar
  20    9   39 1
  21   10   11 ar
  22   10   13 1
  23   11   12 ar
  24   11   40 1
  25   13   14 1
  26   13   41 1
  27   14   15 1
  28   14   42 1
  29   14   43 1
  30   15   16 1
  31   15   17 1
  32   15   18 1
  33   19   20 ar
  34   19   24 ar
  35   20   21 ar
  36   20   44 1
  37   21   22 ar
  38   21   45 1
  39   22   23 ar
  40   22   25 1
  41   23   24 ar
  42   23   46 1
  43   24   47 1
  44   25   27 1
  45   26   27 1
  46   26   30 1
  47   27   28 2
  48   28   29 1
  49   29   30 2
  50   29   48 1
  51   30   49 1

#	End of record

