#	Name: ASD01120136
#	Creating user name:	WinNT
#	Creation time:	15. 06. 2019 18:59

#	Modifying user name:	WinNT
#	Modification time:	15. 06. 2019 18:59

#	Program:	/corina/corina34_cracker 3.40 0067  02.08.2006

@<TRIPOS>MOLECULE
ASD01120136
  42   44    0    0    0
SMALL
NO_CHARGES


@<TRIPOS>ATOM
   1 C1            -0.0585     1.4180     0.6826 C.ar    
   2 C2            -0.0451     0.0191     0.7722 C.ar    
   3 C3            -1.2118    -0.7042     0.6589 C.ar    
   4 C4            -2.4227    -0.0324     0.4522 C.ar    
   5 C5            -2.4283     1.3817     0.3627 C.ar    
   6 C6            -1.2293     2.0937     0.4863 C.ar    
   7 N7            -3.5866    -0.6906     0.3347 N.ar    
   8 C8            -4.7054    -0.0337     0.1410 C.ar    
   9 N9            -4.7590     1.2857     0.0505 N.ar    
  10 C10           -3.6674     2.0325     0.1530 C.ar    
  11 C11           -6.0861     3.4973     0.6118 C.ar    
  12 C12           -4.9821     4.0391    -0.0336 C.ar    
  13 C13           -5.1166     5.2099    -0.7692 C.ar    
  14 C14           -6.3472     5.8313    -0.8563 C.ar    
  15 C15           -7.4448     5.2888    -0.2116 C.ar    
  16 C16           -7.3138     4.1238     0.5211 C.ar    
  17 O17            1.1062     2.1103     0.7980 O.3     
  18 C18            1.0275     3.5336     0.6979 C.3     
  19 C19            2.4266     4.1338     0.8510 C.3     
  20 O20            1.1313    -0.6301     0.9724 O.3     
  21 C21            1.0796    -2.0558     1.0549 C.3     
  22 C22            2.4896    -2.6051     1.2805 C.3     
  23 N23           -3.7382     3.4079     0.0570 N.pl3   
  24 I24           -6.5518     7.5970    -1.9651 I       
  25 H25           -1.1926    -1.7818     0.7288 H       
  26 H26           -1.2289     3.1716     0.4188 H       
  27 H27           -5.6239    -0.5946     0.0510 H       
  28 H28           -5.9857     2.5848     1.1808 H       
  29 H29           -4.2599     5.6339    -1.2719 H       
  30 H30           -8.4058     5.7768    -0.2805 H       
  31 H31           -8.1725     3.7028     1.0229 H       
  32 H32            0.6192     3.8075    -0.2749 H       
  33 H33            0.3792     3.9179     1.4854 H       
  34 H34            2.3666     5.2194     0.7747 H       
  35 H35            2.8349     3.8599     1.8238 H       
  36 H36            3.0749     3.7495     0.0636 H       
  37 H37            0.4382    -2.3487     1.8861 H       
  38 H38            0.6769    -2.4591     0.1257 H       
  39 H39            3.1310    -2.3122     0.4492 H       
  40 H40            2.8923    -2.2018     2.2096 H       
  41 H41            2.4502    -3.6926     1.3434 H       
  42 H42           -2.9247     3.9363     0.0526 H       
@<TRIPOS>BOND
   1    1    2 ar
   2    1   17 1
   3    1    6 ar
   4    2    3 ar
   5    2   20 1
   6    3    4 ar
   7    3   25 1
   8    4    5 ar
   9    4    7 ar
  10    5    6 ar
  11    5   10 ar
  12    6   26 1
  13    7    8 ar
  14    8    9 ar
  15    8   27 1
  16    9   10 ar
  17   10   23 1
  18   11   12 ar
  19   11   16 ar
  20   11   28 1
  21   12   13 ar
  22   12   23 1
  23   13   14 ar
  24   13   29 1
  25   14   15 ar
  26   14   24 1
  27   15   16 ar
  28   15   30 1
  29   16   31 1
  30   17   18 1
  31   18   19 1
  32   18   32 1
  33   18   33 1
  34   19   34 1
  35   19   35 1
  36   19   36 1
  37   20   21 1
  38   21   22 1
  39   21   37 1
  40   21   38 1
  41   22   39 1
  42   22   40 1
  43   22   41 1
  44   23   42 1

#	End of record

