#	Name: ASD01881622
#	Creating user name:	WinNT
#	Creation time:	15. 06. 2019 19:43

#	Modifying user name:	WinNT
#	Modification time:	15. 06. 2019 19:43

#	Program:	/corina/corina34_cracker 3.40 0067  02.08.2006

@<TRIPOS>MOLECULE
ASD01881622
  45   47    0    0    0
SMALL
NO_CHARGES


@<TRIPOS>ATOM
   1 N1             0.0447     1.1976    -0.7520 N.pl3   
   2 N2             0.0358    -0.0526    -0.4418 N.2     
   3 N3             1.2110    -0.4761    -0.1335 N.2     
   4 C4             2.0906     0.5408    -0.2352 C.ar    
   5 C5             1.3354     1.6565    -0.6437 C.ar    
   6 C6             3.4664     0.6768    -0.0314 C.ar    
   7 C7             4.0650     1.9046    -0.2339 C.ar    
   8 C8             3.3068     3.0010    -0.6380 C.ar    
   9 C9             1.9604     2.8808    -0.8415 C.ar    
  10 O10            5.4033     2.0444    -0.0370 O.3     
  11 C11            5.9405     3.3642    -0.1452 C.3     
  12 C12            6.2466     3.6715    -1.6124 C.3     
  13 C13            7.2091     3.4579     0.6629 C.ar    
  14 C14            7.2581     4.2931     1.7632 C.ar    
  15 C15            8.4297     4.3717     2.5001 C.ar    
  16 C16            9.5131     3.6037     2.1009 C.ar    
  17 C17            9.3899     2.7914     0.9899 C.ar    
  18 N18            8.2578     2.7380     0.3154 N.ar    
  19 C19           -1.1185     1.9912    -1.1562 C.3     
  20 C20           -1.7678     2.6119     0.0824 C.3     
  21 C21           -0.7556     3.5147     0.7905 C.3     
  22 C22           -2.9826     3.4407    -0.3398 C.3     
  23 C23           -2.2143     1.5011     1.0350 C.3     
  24 Br24           4.5000    -0.8084     0.5179 Br      
  25 H25            3.7876     3.9556    -0.7924 H       
  26 H26            1.3828     3.7378    -1.1551 H       
  27 H27            5.2148     4.0841     0.2331 H       
  28 H28            5.3291     3.6037    -2.1969 H       
  29 H29            6.6564     4.6782    -1.6949 H       
  30 H30            6.9724     2.9516    -1.9907 H       
  31 H31            6.3946     4.8774     2.0450 H       
  32 H32            8.4971     5.0160     3.3642 H       
  33 H33           10.4417     3.6403     2.6512 H       
  34 H34           10.2291     2.1902     0.6725 H       
  35 H35           -0.8004     2.7826    -1.8349 H       
  36 H36           -1.8396     1.3480    -1.6607 H       
  37 H37           -0.4375     4.3061     0.1118 H       
  38 H38           -1.2182     3.9569     1.6729 H       
  39 H39            0.1098     2.9243     1.0913 H       
  40 H40           -3.7037     2.7975    -0.8443 H       
  41 H41           -3.4451     3.8829     0.5426 H       
  42 H42           -2.6644     4.2321    -1.0185 H       
  43 H43           -1.3489     0.9106     1.3358 H       
  44 H44           -2.6769     1.9433     1.9174 H       
  45 H45           -2.9354     0.8579     0.5305 H       
@<TRIPOS>BOND
   1    1    2 1
   2    1    5 1
   3    1   19 1
   4    2    3 2
   5    3    4 1
   6    4    5 ar
   7    4    6 ar
   8    5    9 ar
   9    6    7 ar
  10    6   24 1
  11    7    8 ar
  12    7   10 1
  13    8    9 ar
  14    8   25 1
  15    9   26 1
  16   10   11 1
  17   11   12 1
  18   11   13 1
  19   11   27 1
  20   12   28 1
  21   12   29 1
  22   12   30 1
  23   13   14 ar
  24   13   18 ar
  25   14   15 ar
  26   14   31 1
  27   15   16 ar
  28   15   32 1
  29   16   17 ar
  30   16   33 1
  31   17   18 ar
  32   17   34 1
  33   19   20 1
  34   19   35 1
  35   19   36 1
  36   20   21 1
  37   20   22 1
  38   20   23 1
  39   21   37 1
  40   21   38 1
  41   21   39 1
  42   22   40 1
  43   22   41 1
  44   22   42 1
  45   23   43 1
  46   23   44 1
  47   23   45 1

#	End of record

