#	Name: ASD01811479
#	Creating user name:	WinNT
#	Creation time:	15. 06. 2019 19:26

#	Modifying user name:	WinNT
#	Modification time:	15. 06. 2019 19:26

#	Program:	/corina/corina34_cracker 3.40 0067  02.08.2006

@<TRIPOS>MOLECULE
ASD01811479
  65   70    0    0    0
SMALL
NO_CHARGES


@<TRIPOS>ATOM
   1 C1             3.7910    15.0016    -3.8402 C.1     
   2 C2             3.0649    13.9159    -3.2532 C.ar    
   3 C3             3.7125    12.7124    -2.9671 C.ar    
   4 C4             3.0070    11.6706    -2.4017 C.ar    
   5 C5             1.6604    11.8160    -2.1186 C.ar    
   6 C6             1.0123    13.0056    -2.3999 C.ar    
   7 C7             1.7073    14.0579    -2.9591 C.ar    
   8 N8             4.3670    15.8630    -4.3058 N.1     
   9 N9            -1.4289     9.4431    -0.4615 N.am    
  10 C10           -0.4232     9.9381     0.4883 C.3     
  11 C11            0.3236    11.1126    -0.1519 C.3     
  12 C12            0.8961    10.6732    -1.5014 C.3     
  13 C13           -0.2465    10.2620    -2.4327 C.3     
  14 C14           -0.9997     9.0779    -1.8184 C.3     
  15 C15           -2.7196     9.3209    -0.0933 C.2     
  16 C16           -3.1166     9.5800     1.3072 C.ar    
  17 C17           -4.2580    10.3309     1.5821 C.ar    
  18 C18           -4.6251    10.5699     2.9040 C.ar    
  19 C19           -3.8485    10.0565     3.9450 C.ar    
  20 C20           -2.7186     9.3137     3.6660 C.ar    
  21 C21           -2.3519     9.0680     2.3575 C.ar    
  22 O22           -3.5573     8.9977    -0.9126 O.2     
  23 C23           -5.8349    11.3663     3.2049 C.2     
  24 N24           -6.5919    12.0468     2.2917 N.pl3   
  25 C25           -7.6024    12.6374     2.9813 C.2     
  26 C26           -7.4431    12.3111     4.2876 C.2     
  27 N27           -6.3691    11.5356     4.3976 N.2     
  28 C28           -8.7270    13.5028     2.4746 C.3     
  29 C29           -8.3821    12.7926     5.3677 C.3     
  30 C30           -9.2025    13.9550     4.7900 C.3     
  31 O31           -9.7187    13.5897     3.5075 O.3     
  32 C32           -4.2444    10.3142     5.3760 C.3     
  33 C33           -4.6844     9.0487     6.1309 C.3     
  34 C34           -3.9194     9.6020     7.3448 C.3     
  35 C35           -3.0505    10.3808     6.3430 C.3     
  36 H36            4.7634    12.5974    -3.1882 H       
  37 H37            3.5067    10.7392    -2.1799 H       
  38 H38           -0.0390    13.1122    -2.1767 H       
  39 H39            1.2013    14.9875    -3.1737 H       
  40 H40           -0.9161    10.2725     1.4012 H       
  41 H41            0.2821     9.1407     0.7224 H       
  42 H42           -0.3658    11.9434    -0.3023 H       
  43 H43            1.1361    11.4274     0.5029 H       
  44 H44            1.5661     9.8263    -1.3532 H       
  45 H45           -0.9305    11.1009    -2.5617 H       
  46 H46            0.1603     9.9714    -3.4013 H       
  47 H47           -0.3415     8.2103    -1.7724 H       
  48 H48           -1.8730     8.8447    -2.4275 H       
  49 H49           -4.8550    10.7260     0.7735 H       
  50 H50           -2.1211     8.9196     4.4748 H       
  51 H51           -1.4694     8.4825     2.1460 H       
  52 H52           -6.4369    12.0984     1.3356 H       
  53 H53           -8.3496    14.4984     2.2414 H       
  54 H54           -9.1632    13.0549     1.5818 H       
  55 H55           -9.0481    11.9829     5.6660 H       
  56 H56           -7.8092    13.1369     6.2287 H       
  57 H57          -10.0296    14.1844     5.4620 H       
  58 H58           -8.5650    14.8332     4.6876 H       
  59 H59           -4.9389    11.1480     5.4795 H       
  60 H60           -5.7615     8.9849     6.2857 H       
  61 H61           -4.2584     8.1298     5.7282 H       
  62 H62           -4.5242    10.2415     7.9876 H       
  63 H63           -3.3706     8.8407     7.8991 H       
  64 H64           -2.1779     9.8260     5.9983 H       
  65 H65           -2.8086    11.3924     6.6690 H       
@<TRIPOS>BOND
   1    1    2 1
   2    1    8 3
   3    2    3 ar
   4    2    7 ar
   5    3    4 ar
   6    3   36 1
   7    4    5 ar
   8    4   37 1
   9    5    6 ar
  10    5   12 1
  11    6    7 ar
  12    6   38 1
  13    7   39 1
  14    9   10 1
  15    9   14 1
  16    9   15 am
  17   10   11 1
  18   10   40 1
  19   10   41 1
  20   11   12 1
  21   11   42 1
  22   11   43 1
  23   12   13 1
  24   12   44 1
  25   13   14 1
  26   13   45 1
  27   13   46 1
  28   14   47 1
  29   14   48 1
  30   15   16 1
  31   15   22 2
  32   16   17 ar
  33   16   21 ar
  34   17   18 ar
  35   17   49 1
  36   18   19 ar
  37   18   23 1
  38   19   20 ar
  39   19   32 1
  40   20   21 ar
  41   20   50 1
  42   21   51 1
  43   23   24 1
  44   23   27 2
  45   24   25 1
  46   24   52 1
  47   25   26 2
  48   25   28 1
  49   26   27 1
  50   26   29 1
  51   28   31 1
  52   28   53 1
  53   28   54 1
  54   29   30 1
  55   29   55 1
  56   29   56 1
  57   30   31 1
  58   30   57 1
  59   30   58 1
  60   32   33 1
  61   32   35 1
  62   32   59 1
  63   33   34 1
  64   33   60 1
  65   33   61 1
  66   34   35 1
  67   34   62 1
  68   34   63 1
  69   35   64 1
  70   35   65 1

#	End of record

