#	Name: ASD01900817
#	Creating user name:	WinNT
#	Creation time:	15. 06. 2019 19:52

#	Modifying user name:	WinNT
#	Modification time:	15. 06. 2019 19:52

#	Program:	/corina/corina34_cracker 3.40 0067  02.08.2006

@<TRIPOS>MOLECULE
ASD01900817
  32   34    0    0    0
SMALL
NO_CHARGES


@<TRIPOS>ATOM
   1 C1             0.3952     3.9751     0.6420 C.ar    
   2 C2             0.8289     5.0019     1.5021 C.ar    
   3 C3             2.1951     5.2556     1.6184 C.ar    
   4 C4             3.0685     4.4825     0.8790 C.ar    
   5 C5             2.5704     3.4858     0.0500 C.ar    
   6 N6             1.2802     3.2596    -0.0481 N.ar    
   7 N7            -1.4228     4.8908     1.5776 N.2     
   8 N8            -0.2914     5.5522     2.0665 N.pl3   
   9 C9            -1.0667     3.9599     0.7327 C.2     
  10 N10           -1.9266     3.0976     0.0452 N.pl3   
  11 C11           -3.3097     3.2650     0.1446 C.ar    
  12 C12           -3.8439     4.5289     0.3615 C.ar    
  13 C13           -5.2138     4.6908     0.4594 C.ar    
  14 C14           -6.0517     3.5938     0.3416 C.ar    
  15 C15           -5.5213     2.3355     0.1262 C.ar    
  16 C16           -4.1542     2.1688     0.0210 C.ar    
  17 S17           -7.7968     3.8027     0.4673 S.o2    
  18 O18           -8.0908     4.8513    -0.4454 O.2     
  19 O19           -8.3209     2.4959     0.2753 O.2     
  20 C20           -8.0651     4.3515     2.1753 C.3     
  21 F21           -5.7352     5.9192     0.6704 F       
  22 H22            2.5606     6.0363     2.2691 H       
  23 H23            4.1331     4.6523     0.9449 H       
  24 H24            3.2581     2.8845    -0.5261 H       
  25 H25           -0.2988     6.2812     2.7063 H       
  26 H26           -1.5625     2.3832    -0.5006 H       
  27 H27           -3.1903     5.3837     0.4540 H       
  28 H28           -6.1771     1.4822     0.0356 H       
  29 H29           -3.7416     1.1859    -0.1525 H       
  30 H30           -7.5302     5.2859     2.3450 H       
  31 H31           -9.1307     4.5071     2.3438 H       
  32 H32           -7.6957     3.5912     2.8635 H       
@<TRIPOS>BOND
   1    1    2 ar
   2    1    6 ar
   3    1    9 1
   4    2    3 ar
   5    2    8 1
   6    3    4 ar
   7    3   22 1
   8    4    5 ar
   9    4   23 1
  10    5    6 ar
  11    5   24 1
  12    7    8 1
  13    7    9 2
  14    8   25 1
  15    9   10 1
  16   10   11 1
  17   10   26 1
  18   11   12 ar
  19   11   16 ar
  20   12   13 ar
  21   12   27 1
  22   13   14 ar
  23   13   21 1
  24   14   15 ar
  25   14   17 1
  26   15   16 ar
  27   15   28 1
  28   16   29 1
  29   17   18 2
  30   17   19 2
  31   17   20 1
  32   20   30 1
  33   20   31 1
  34   20   32 1

#	End of record

