#	Name: ASD02038287
#	Creating user name:	WinNT
#	Creation time:	15. 06. 2019 20:16

#	Modifying user name:	WinNT
#	Modification time:	15. 06. 2019 20:16

#	Program:	/corina/corina34_cracker 3.40 0067  02.08.2006

@<TRIPOS>MOLECULE
ASD02038287
  60   63    0    0    0
SMALL
NO_CHARGES


@<TRIPOS>ATOM
   1 C1             1.6805     1.6534    -0.7215 C.3     
   2 C2             1.8478     0.1332    -0.7783 C.3     
   3 N3             0.6057    -0.4755    -1.2747 N.3     
   4 C4             0.7003    -1.9415    -1.2723 C.3     
   5 C5             1.5633    -2.3988    -2.4500 C.3     
   6 C6             1.5388    -3.9261    -2.5374 C.3     
   7 O7             2.2482    -4.3478    -3.7040 O.3     
   8 C8             2.3214    -5.6863    -3.9317 C.ar    
   9 C9             2.9952    -6.1641    -5.0462 C.ar    
  10 C10            1.7272    -6.5739    -3.0462 C.ar    
  11 C11            1.8019    -7.9333    -3.2759 C.ar    
  12 C12            2.4715    -8.4120    -4.3941 C.ar    
  13 C13            3.0698    -7.5233    -5.2773 C.ar    
  14 C14            0.2744     0.0287    -2.6147 C.3     
  15 C15            0.1071     1.5489    -2.5579 C.3     
  16 N16            1.3492     2.1576    -2.0615 N.3     
  17 C17            1.2594     3.5501    -2.0638 C.ar    
  18 C18            2.3354     4.3155    -1.6282 C.ar    
  19 C19            2.2495     5.6908    -1.6288 C.ar    
  20 C20            1.0808     6.3156    -2.0678 C.ar    
  21 C21            0.0023     5.5444    -2.5050 C.ar    
  22 C22            0.0961     4.1696    -2.5070 C.ar    
  23 N23            2.5490    -9.7900    -4.6307 N.am    
  24 C24            3.4773   -10.2866    -5.4688 C.2     
  25 C25            4.4615    -9.3770    -6.1535 C.3     
  26 C26            3.7950    -8.0456    -6.4903 C.3     
  27 O27            3.5215   -11.4812    -5.6745 O.2     
  28 C28            0.9882     7.7446    -2.0693 C.1     
  29 O29            2.9075    -1.9542    -2.2565 O.3     
  30 C30            0.9124     8.9161    -2.0705 C.1     
  31 C31            0.8173    10.3850    -2.0719 C.3     
  32 H32            0.8770     1.9052    -0.0293 H       
  33 H33            2.6103     2.1091    -0.3811 H       
  34 H34            2.6691    -0.1175    -1.4496 H       
  35 H35            2.0650    -0.2464     0.2202 H       
  36 H36            1.1535    -2.2748    -0.3387 H       
  37 H37           -0.2976    -2.3701    -1.3650 H       
  38 H38            1.1702    -1.9756    -3.3744 H       
  39 H39            2.0130    -4.3484    -1.6514 H       
  40 H40            0.5062    -4.2702    -2.5958 H       
  41 H41            3.4610    -5.4731    -5.7331 H       
  42 H42            1.2063    -6.2012    -2.1766 H       
  43 H43            1.3400    -8.6240    -2.5860 H       
  44 H44            1.0779    -0.2231    -3.3069 H       
  45 H45           -0.6554    -0.4270    -2.9551 H       
  46 H46           -0.1101     1.9285    -3.5563 H       
  47 H47           -0.7142     1.7996    -1.8866 H       
  48 H48            3.2393     3.8316    -1.2886 H       
  49 H49            3.0853     6.2848    -1.2897 H       
  50 H50           -0.9031     6.0249    -2.8452 H       
  51 H51           -0.7379     3.5724    -2.8451 H       
  52 H52            1.9297   -10.3906    -4.1872 H       
  53 H53            5.3091    -9.1973    -5.4921 H       
  54 H54            4.8134    -9.8492    -7.0707 H       
  55 H55            3.0829    -8.1913    -7.3025 H       
  56 H56            4.5545    -7.3269    -6.7980 H       
  57 H57            3.3216    -2.2928    -1.4509 H       
  58 H58           -0.1619    10.6854    -2.4451 H       
  59 H59            0.9493    10.7587    -1.0566 H       
  60 H60            1.5938    10.7988    -2.7152 H       
@<TRIPOS>BOND
   1    1    2 1
   2    1   16 1
   3    1   32 1
   4    1   33 1
   5    2    3 1
   6    2   34 1
   7    2   35 1
   8    3    4 1
   9    3   14 1
  10    4    5 1
  11    4   36 1
  12    4   37 1
  13    5    6 1
  14    5   29 1
  15    5   38 1
  16    6    7 1
  17    6   39 1
  18    6   40 1
  19    7    8 1
  20    8    9 ar
  21    8   10 ar
  22    9   13 ar
  23    9   41 1
  24   10   11 ar
  25   10   42 1
  26   11   12 ar
  27   11   43 1
  28   12   13 ar
  29   12   23 1
  30   13   26 1
  31   14   15 1
  32   14   44 1
  33   14   45 1
  34   15   16 1
  35   15   46 1
  36   15   47 1
  37   16   17 1
  38   17   18 ar
  39   17   22 ar
  40   18   19 ar
  41   18   48 1
  42   19   20 ar
  43   19   49 1
  44   20   21 ar
  45   20   28 1
  46   21   22 ar
  47   21   50 1
  48   22   51 1
  49   23   24 am
  50   23   52 1
  51   24   25 1
  52   24   27 2
  53   25   26 1
  54   25   53 1
  55   25   54 1
  56   26   55 1
  57   26   56 1
  58   28   30 3
  59   29   57 1
  60   30   31 1
  61   31   58 1
  62   31   59 1
  63   31   60 1

#	End of record

