#	Name: ASD01913751
#	Creating user name:	WinNT
#	Creation time:	15. 06. 2019 20:02

#	Modifying user name:	WinNT
#	Modification time:	15. 06. 2019 20:02

#	Program:	/corina/corina34_cracker 3.40 0067  02.08.2006

@<TRIPOS>MOLECULE
ASD01913751
  51   52    0    0    0
SMALL
NO_CHARGES


@<TRIPOS>ATOM
   1 O1            -0.0163     1.3508     0.0095 O.3     
   2 C2             0.0021    -0.0041     0.0020 C.ar    
   3 N3             1.1629    -0.6408    -0.0125 N.ar    
   4 C4             1.2330    -1.9556    -0.0202 C.ar    
   5 C5             0.0719    -2.7293    -0.0137 C.ar    
   6 C6            -1.1744    -2.0856     0.0016 C.ar    
   7 C7            -1.1994    -0.7064     0.0154 C.ar    
   8 C8             0.1538    -4.2032    -0.0234 C.2     
   9 N9             1.3565    -4.8112    -0.0386 N.am    
  10 O10           -0.8637    -4.8686    -0.0177 O.2     
  11 C11            1.2480     2.0168     0.0010 C.3     
  12 C12            1.0303     3.5079     0.0111 C.ar    
  13 C13            0.9421     4.1840     1.2134 C.ar    
  14 C14            0.7425     5.5517     1.2264 C.ar    
  15 C15            0.6305     6.2466     0.0322 C.ar    
  16 C16            0.7194     5.5657    -1.1757 C.ar    
  17 C17            0.9248     4.1981    -1.1828 C.ar    
  18 C18            1.4378    -6.2739    -0.0482 C.3     
  19 C19            2.7655    -6.7069    -0.6732 C.3     
  20 F20            0.6103     6.2394    -2.3417 F       
  21 C21            3.9249    -6.1370     0.1465 C.3     
  22 O22            0.4337     7.5918     0.0429 O.3     
  23 C23            0.3519     8.2254     1.3211 C.3     
  24 C24            1.3543    -6.7988     1.3865 C.3     
  25 C25            2.8504    -8.2345    -0.6832 C.3     
  26 C26            2.8490    -6.1820    -2.1080 C.3     
  27 H27            2.1983    -2.4397    -0.0320 H       
  28 H28           -2.0916    -2.6557     0.0069 H       
  29 H29           -2.1409    -0.1774     0.0278 H       
  30 H30            2.1684    -4.2803    -0.0432 H       
  31 H31            1.8174     1.7267     0.8840 H       
  32 H32            1.8004     1.7363    -0.8958 H       
  33 H33            1.0289     3.6429     2.1440 H       
  34 H34            0.6734     6.0787     2.1666 H       
  35 H35            0.9941     3.6675    -2.1209 H       
  36 H36            0.6118    -6.6799    -0.6322 H       
  37 H37            3.8655    -6.5109     1.1687 H       
  38 H38            4.8708    -6.4455    -0.2987 H       
  39 H39            3.8645    -5.0487     0.1537 H       
  40 H40           -0.4810     7.8031     1.8834 H       
  41 H41            1.2802     8.0609     1.8683 H       
  42 H42            0.1941     9.2955     1.1868 H       
  43 H43            1.4148    -7.8871     1.3794 H       
  44 H44            2.1803    -6.3928     1.9705 H       
  45 H45            0.4085    -6.4903     1.8318 H       
  46 H46            2.0244    -8.6404    -1.2672 H       
  47 H47            3.7963    -8.5429    -1.1285 H       
  48 H48            2.7909    -8.6084     0.3389 H       
  49 H49            2.7885    -5.0937    -2.1008 H       
  50 H50            3.7949    -6.4904    -2.5532 H       
  51 H51            2.0230    -6.5880    -2.6920 H       
@<TRIPOS>BOND
   1    1    2 1
   2    1   11 1
   3    2    3 ar
   4    2    7 ar
   5    3    4 ar
   6    4    5 ar
   7    4   27 1
   8    5    6 ar
   9    5    8 1
  10    6    7 ar
  11    6   28 1
  12    7   29 1
  13    8    9 am
  14    8   10 2
  15    9   18 1
  16    9   30 1
  17   11   12 1
  18   11   31 1
  19   11   32 1
  20   12   13 ar
  21   12   17 ar
  22   13   14 ar
  23   13   33 1
  24   14   15 ar
  25   14   34 1
  26   15   16 ar
  27   15   22 1
  28   16   17 ar
  29   16   20 1
  30   17   35 1
  31   18   19 1
  32   18   24 1
  33   18   36 1
  34   19   21 1
  35   19   25 1
  36   19   26 1
  37   21   37 1
  38   21   38 1
  39   21   39 1
  40   22   23 1
  41   23   40 1
  42   23   41 1
  43   23   42 1
  44   24   43 1
  45   24   44 1
  46   24   45 1
  47   25   46 1
  48   25   47 1
  49   25   48 1
  50   26   49 1
  51   26   50 1
  52   26   51 1

#	End of record

