#	Name: ASD09740046
#	Creating user name:	WinNT
#	Creation time:	15. 06. 2019 21:22

#	Modifying user name:	WinNT
#	Modification time:	15. 06. 2019 21:22

#	Program:	/corina/corina34_cracker 3.40 0067  02.08.2006

@<TRIPOS>MOLECULE
ASD09740046
  47   50    0    0    0
SMALL
NO_CHARGES


@<TRIPOS>ATOM
   1 N1            -0.0144     1.2085     0.0087 N.2     
   2 O2             0.0021    -0.0041     0.0020 O.3     
   3 C3             1.2063     1.6802    -0.0004 C.2     
   4 N4             2.0462     0.6242    -0.0141 N.2     
   5 C5             1.2702    -0.4441    -0.0125 C.2     
   6 C6             1.7125    -1.8531    -0.0242 C.ar    
   7 C7             1.5951     3.1124     0.0031 C.ar    
   8 C8             3.0751    -2.1586    -0.0389 C.ar    
   9 C9             0.7691    -2.8829    -0.0150 C.ar    
  10 C10            1.1880    -4.1998    -0.0261 C.ar    
  11 C11            2.5492    -4.4977    -0.0466 C.ar    
  12 C12            3.4865    -3.4743    -0.0504 C.ar    
  13 O13            2.9596    -5.7929    -0.0570 O.3     
  14 O14            0.2720    -5.2050    -0.0167 O.3     
  15 C15            0.6164     4.0878     0.0177 C.ar    
  16 C16            0.9899     5.4408     0.0215 C.ar    
  17 C17            2.3652     5.7850     0.0103 C.ar    
  18 C18            3.3365     4.7678    -0.0046 C.ar    
  19 C19            2.9543     3.4646    -0.0026 C.ar    
  20 C20            4.3692    -6.0266    -0.0779 C.3     
  21 C21            4.6362    -7.5331    -0.0871 C.3     
  22 C22           -1.1059    -4.8268     0.0047 C.3     
  23 C23           -1.9794    -6.0829     0.0125 C.3     
  24 C24            0.0234     6.4622     0.0357 C.ar    
  25 C25            0.4194     7.7641     0.0386 C.ar    
  26 C26            1.7714     8.1023     0.0276 C.ar    
  27 C27            2.7346     7.1407     0.0137 C.ar    
  28 H28            3.8067    -1.3641    -0.0416 H       
  29 H29           -0.2855    -2.6506     0.0012 H       
  30 H30            4.5406    -3.7092    -0.0662 H       
  31 H31           -0.4276     3.8112     0.0259 H       
  32 H32            4.3858     5.0230    -0.0132 H       
  33 H33            3.7057     2.6889    -0.0140 H       
  34 H34            4.7990    -5.5759    -0.9725 H       
  35 H35            4.8243    -5.5823     0.8073 H       
  36 H36            4.1811    -7.9774    -0.9723 H       
  37 H37            5.7115    -7.7114    -0.1030 H       
  38 H38            4.2064    -7.9838     0.8074 H       
  39 H39           -1.3074    -4.2386     0.9000 H       
  40 H40           -1.3332    -4.2317    -0.8798 H       
  41 H41           -1.7780    -6.6711    -0.8827 H       
  42 H42           -1.7522    -6.6780     0.8970 H       
  43 H43           -3.0305    -5.7945     0.0289 H       
  44 H44           -1.0278     6.2146     0.0440 H       
  45 H45           -0.3248     8.5467     0.0492 H       
  46 H46            2.0592     9.1433     0.0299 H       
  47 H47            3.7783     7.4184     0.0053 H       
@<TRIPOS>BOND
   1    1    2 1
   2    1    3 2
   3    2    5 1
   4    3    4 1
   5    3    7 1
   6    4    5 2
   7    5    6 1
   8    6    8 ar
   9    6    9 ar
  10    7   15 ar
  11    7   19 ar
  12    8   12 ar
  13    8   28 1
  14    9   10 ar
  15    9   29 1
  16   10   11 ar
  17   10   14 1
  18   11   12 ar
  19   11   13 1
  20   12   30 1
  21   13   20 1
  22   14   22 1
  23   15   16 ar
  24   15   31 1
  25   16   17 ar
  26   16   24 ar
  27   17   18 ar
  28   17   27 ar
  29   18   19 ar
  30   18   32 1
  31   19   33 1
  32   20   21 1
  33   20   34 1
  34   20   35 1
  35   21   36 1
  36   21   37 1
  37   21   38 1
  38   22   23 1
  39   22   39 1
  40   22   40 1
  41   23   41 1
  42   23   42 1
  43   23   43 1
  44   24   25 ar
  45   24   44 1
  46   25   26 ar
  47   25   45 1
  48   26   27 ar
  49   26   46 1
  50   27   47 1

#	End of record

