#	Name: ASD03900038
#	Creating user name:	WinNT
#	Creation time:	15. 06. 2019 20:47

#	Modifying user name:	WinNT
#	Modification time:	15. 06. 2019 20:47

#	Program:	/corina/corina34_cracker 3.40 0067  02.08.2006

@<TRIPOS>MOLECULE
ASD03900038
  52   54    0    0    0
SMALL
NO_CHARGES


@<TRIPOS>ATOM
   1 C1             2.5334     1.2817     0.6830 C.ar    
   2 C2             2.2132    -0.0546     0.8250 C.ar    
   3 C3             1.5559    -0.7212    -0.1926 C.ar    
   4 C4             1.2179    -0.0526    -1.3547 C.ar    
   5 C5             1.5359     1.2837    -1.5016 C.ar    
   6 C6             2.1949     1.9549    -0.4818 C.ar    
   7 C7             1.2078    -2.1789    -0.0350 C.3     
   8 C8             2.4717    -2.9997    -0.0316 C.ar    
   9 C9             0.4733    -2.3823     1.2651 C.ar    
  10 C10           -0.7873    -1.8422     1.4386 C.ar    
  11 C11            1.0578    -3.1137     2.2821 C.ar    
  12 C12            0.3841    -3.3003     3.4746 C.ar    
  13 C13           -0.8740    -2.7550     3.6503 C.ar    
  14 C14           -1.4610    -2.0287     2.6311 C.ar    
  15 C15            2.4026    -4.3747     0.0928 C.ar    
  16 C16            3.6998    -2.3780    -0.1586 C.ar    
  17 C17            4.8592    -3.1309    -0.1555 C.ar    
  18 C18            4.7904    -4.5053    -0.0250 C.ar    
  19 C19            3.5619    -5.1275     0.0960 C.ar    
  20 O20            2.5085     3.2698    -0.6238 O.3     
  21 C21            6.0543    -5.3261    -0.0221 C.3     
  22 C22            0.3169    -2.6192    -1.1984 C.3     
  23 C23            1.4878     4.1419    -0.6367 C.2     
  24 C24            1.7472     5.6016    -0.9070 C.3     
  25 O25            0.3611     3.7564    -0.4317 O.2     
  26 C26            6.5569    -5.4696     1.3913 C.2     
  27 C27            7.8152    -6.2513     1.6679 C.3     
  28 O28            5.9513    -4.9581     2.3024 O.2     
  29 H29            3.0428     1.8030     1.4800 H       
  30 H30            2.4768    -0.5792     1.7315 H       
  31 H31            0.7052    -0.5756    -2.1484 H       
  32 H32            1.2717     1.8055    -2.4095 H       
  33 H33           -1.2456    -1.2742     0.6425 H       
  34 H34            2.0407    -3.5397     2.1448 H       
  35 H35            0.8404    -3.8723     4.2689 H       
  36 H36           -1.4005    -2.9011     4.5819 H       
  37 H37           -2.4439    -1.6027     2.7684 H       
  38 H38            1.4428    -4.8607     0.1879 H       
  39 H39            3.7536    -1.3042    -0.2606 H       
  40 H40            5.8187    -2.6453    -0.2555 H       
  41 H41            3.5082    -6.2013     0.1979 H       
  42 H42            5.8475    -6.3130    -0.4362 H       
  43 H43            6.8116    -4.8291    -0.6283 H       
  44 H44            0.8482    -2.4721    -2.1387 H       
  45 H45            0.0652    -3.6735    -1.0844 H       
  46 H46           -0.5972    -2.0255    -1.2008 H       
  47 H47            2.8140     5.7574    -1.0672 H       
  48 H48            1.1975     5.9097    -1.7964 H       
  49 H49            1.4177     6.1934    -0.0530 H       
  50 H50            8.2183    -6.6346     0.7305 H       
  51 H51            8.5508    -5.6005     2.1406 H       
  52 H52            7.5867    -7.0844     2.3327 H       
@<TRIPOS>BOND
   1    1    2 ar
   2    1    6 ar
   3    1   29 1
   4    2    3 ar
   5    2   30 1
   6    3    4 ar
   7    3    7 1
   8    4    5 ar
   9    4   31 1
  10    5    6 ar
  11    5   32 1
  12    6   20 1
  13    7    8 1
  14    7    9 1
  15    7   22 1
  16    8   15 ar
  17    8   16 ar
  18    9   10 ar
  19    9   11 ar
  20   10   14 ar
  21   10   33 1
  22   11   12 ar
  23   11   34 1
  24   12   13 ar
  25   12   35 1
  26   13   14 ar
  27   13   36 1
  28   14   37 1
  29   15   19 ar
  30   15   38 1
  31   16   17 ar
  32   16   39 1
  33   17   18 ar
  34   17   40 1
  35   18   19 ar
  36   18   21 1
  37   19   41 1
  38   20   23 1
  39   21   26 1
  40   21   42 1
  41   21   43 1
  42   22   44 1
  43   22   45 1
  44   22   46 1
  45   23   24 1
  46   23   25 2
  47   24   47 1
  48   24   48 1
  49   24   49 1
  50   26   27 1
  51   26   28 2
  52   27   50 1
  53   27   51 1
  54   27   52 1

#	End of record

