#	Name: ASD04882488
#	Creating user name:	WinNT
#	Creation time:	15. 06. 2019 20:54

#	Modifying user name:	WinNT
#	Modification time:	15. 06. 2019 20:54

#	Program:	/corina/corina34_cracker 3.40 0067  02.08.2006

@<TRIPOS>MOLECULE
ASD04882488
  77   82    0    0    0
SMALL
NO_CHARGES


@<TRIPOS>ATOM
   1 C1            -0.0215     1.4012    -0.0093 C.ar    
   2 C2            -0.0116     0.0036    -0.0052 C.ar    
   3 C3            -1.2094    -0.7019    -0.0164 C.ar    
   4 C4            -2.4097    -0.0268    -0.0315 C.ar    
   5 C5            -2.4267     1.3708    -0.0352 C.ar    
   6 C6            -1.2239     2.0825    -0.0187 C.ar    
   7 N7             1.1997    -0.6830     0.0096 N.3     
   8 C8             1.3070    -1.5362     1.2013 C.3     
   9 C9             1.3722    -1.4732    -1.2174 C.3     
  10 C10            2.7461    -2.1474    -1.1979 C.3     
  11 N11            2.8533    -3.0006    -0.0062 N.3     
  12 C12            2.6808    -2.2104     1.2208 C.3     
  13 C13           -3.7126     2.0938    -0.0514 C.2     
  14 O14           -3.7265     3.3096    -0.0546 O.2     
  15 N15           -4.8720     1.4066    -0.0627 N.am    
  16 N16            1.1866     2.1110     0.0021 N.am    
  17 C17            4.0581    -3.6835     0.0086 C.2     
  18 N18            4.9979    -3.6012    -0.9032 N.2     
  19 C19            1.2296     3.3599     0.5068 C.2     
  20 C20            2.5162     4.0732     0.6000 C.2     
  21 O21            0.2069     3.8985     0.8853 O.2     
  22 C22            2.7107     5.3300     1.0850 C.2     
  23 O23            4.0247     5.5881     0.9873 O.3     
  24 C24            4.6245     4.5143     0.4543 C.2     
  25 N25            3.7337     3.5970     0.2228 N.2     
  26 C26            6.0997     4.3885     0.1735 C.3     
  27 C27            6.7234     5.3973    -0.7931 C.3     
  28 C28            7.0167     5.4917     0.7056 C.3     
  29 C29            6.0216    -4.4012    -0.5594 C.2     
  30 C30            5.7154    -5.0034     0.6022 C.2     
  31 N31            4.4702    -4.5490     0.9737 N.pl3   
  32 C32            3.7263    -4.9312     2.1765 C.3     
  33 C33           -6.1489     2.1245    -0.0788 C.3     
  34 C34           -7.3003     1.1170    -0.0893 C.3     
  35 C35           -8.6339     1.8668    -0.1061 C.3     
  36 N36           -9.7364     0.9021    -0.1161 N.am    
  37 C37          -10.3200     0.4058     0.9884 C.2     
  38 C38          -10.3498     0.3582    -1.3334 C.3     
  39 C39          -11.1262    -0.8973    -0.8781 C.3     
  40 C40          -11.4125    -0.5685     0.6066 C.3     
  41 O41          -10.0145     0.6962     2.1257 O.2     
  42 H42           -1.1986    -1.7818    -0.0136 H       
  43 H43           -3.3385    -0.5777    -0.0409 H       
  44 H44           -1.2340     3.1625    -0.0211 H       
  45 H45            1.1884    -0.9264     2.0970 H       
  46 H46            0.5282    -2.2983     1.1742 H       
  47 H47            0.5942    -2.2346    -1.2720 H       
  48 H48            1.3013    -0.8174    -2.0852 H       
  49 H49            2.8646    -2.7572    -2.0936 H       
  50 H50            3.5249    -1.3853    -1.1708 H       
  51 H51            3.4588    -1.4490     1.2754 H       
  52 H52            2.7518    -2.8662     2.0886 H       
  53 H53           -4.8609     0.4366    -0.0602 H       
  54 H54            1.9919     1.7035    -0.3533 H       
  55 H55            1.9525     5.9933     1.4742 H       
  56 H56            6.4908     3.3711     0.1608 H       
  57 H57            7.5250     5.0436    -1.4415 H       
  58 H58            6.0666     6.1519    -1.2259 H       
  59 H59            6.5529     6.3084     1.2587 H       
  60 H60            8.0113     5.2002     1.0431 H       
  61 H61            6.9340    -4.5373    -1.1210 H       
  62 H62            6.3307    -5.7071     1.1432 H       
  63 H63            3.9786    -4.2521     2.9909 H       
  64 H64            2.6565    -4.8755     1.9752 H       
  65 H65            3.9903    -5.9505     2.4584 H       
  66 H66           -6.2238     2.7526     0.8088 H       
  67 H67           -6.2038     2.7482    -0.9710 H       
  68 H68           -7.2255     0.4888    -0.9769 H       
  69 H69           -7.2454     0.4932     0.8029 H       
  70 H70           -8.7088     2.4949     0.7815 H       
  71 H71           -8.6888     2.4905    -0.9983 H       
  72 H72          -11.0333     1.0868    -1.7693 H       
  73 H73           -9.5793     0.0844    -2.0541 H       
  74 H74          -12.0550    -1.0060    -1.4380 H       
  75 H75          -10.5100    -1.7917    -0.9702 H       
  76 H76          -11.3500    -1.4700     1.2160 H       
  77 H77          -12.3924    -0.1028     0.7121 H       
@<TRIPOS>BOND
   1    1    2 ar
   2    1   16 1
   3    1    6 ar
   4    2    3 ar
   5    2    7 1
   6    3    4 ar
   7    3   42 1
   8    4    5 ar
   9    4   43 1
  10    5    6 ar
  11    5   13 1
  12    6   44 1
  13    7    8 1
  14    7    9 1
  15    8   12 1
  16    8   45 1
  17    8   46 1
  18    9   10 1
  19    9   47 1
  20    9   48 1
  21   10   11 1
  22   10   49 1
  23   10   50 1
  24   11   12 1
  25   11   17 1
  26   12   51 1
  27   12   52 1
  28   13   14 2
  29   13   15 am
  30   15   33 1
  31   15   53 1
  32   16   19 am
  33   16   54 1
  34   17   18 2
  35   17   31 1
  36   18   29 1
  37   19   20 1
  38   19   21 2
  39   20   22 2
  40   20   25 1
  41   22   23 1
  42   22   55 1
  43   23   24 1
  44   24   25 2
  45   24   26 1
  46   26   27 1
  47   26   28 1
  48   26   56 1
  49   27   28 1
  50   27   57 1
  51   27   58 1
  52   28   59 1
  53   28   60 1
  54   29   30 2
  55   29   61 1
  56   30   31 1
  57   30   62 1
  58   31   32 1
  59   32   63 1
  60   32   64 1
  61   32   65 1
  62   33   34 1
  63   33   66 1
  64   33   67 1
  65   34   35 1
  66   34   68 1
  67   34   69 1
  68   35   36 1
  69   35   70 1
  70   35   71 1
  71   36   37 am
  72   36   38 1
  73   37   41 2
  74   37   40 1
  75   38   39 1
  76   38   72 1
  77   38   73 1
  78   39   40 1
  79   39   74 1
  80   39   75 1
  81   40   76 1
  82   40   77 1

#	End of record

