#	Name: ASD01150825
#	Creating user name:	WinNT
#	Creation time:	15. 06. 2019 19:05

#	Modifying user name:	WinNT
#	Modification time:	15. 06. 2019 19:05

#	Program:	/corina/corina34_cracker 3.40 0067  02.08.2006

@<TRIPOS>MOLECULE
ASD01150825
  45   46    0    0    0
SMALL
NO_CHARGES


@<TRIPOS>ATOM
   1 N1            -0.0179     1.4659     0.0101 N.3     
   2 C2             0.0021    -0.0041     0.0020 C.3     
   3 C3             0.7497    -0.4921    -1.2417 C.3     
   4 O4             2.0659     0.0673    -1.2506 O.3     
   5 C5             2.0838     1.4973    -1.2437 C.3     
   6 C6             1.3496     2.0055    -0.0001 C.3     
   7 C7            -0.7765     1.9758     1.1601 C.3     
   8 C8             0.6633     5.2561     2.0254 C.ar    
   9 N9             0.4770     3.9478     1.9195 N.ar    
  10 C10           -0.5725     3.4644     1.2763 C.ar    
  11 C11           -1.4826     4.3436     0.7098 C.ar    
  12 C12           -1.2576     5.7051     0.8393 C.ar    
  13 N13           -0.1878     6.1229     1.4954 N.ar    
  14 S14            2.0715     5.8567     2.8976 S.3     
  15 C15            1.8127     7.6396     2.7227 C.3     
  16 C16            2.9468     8.3907     3.4230 C.3     
  17 C17            2.7280     9.8977     3.2753 C.3     
  18 C18            3.8621    10.6489     3.9756 C.3     
  19 C19            3.6433    12.1559     3.8278 C.3     
  20 C20            4.7774    12.9070     4.5281 C.3     
  21 H21            0.5087    -0.3661     0.8967 H       
  22 H22           -1.0202    -0.3818    -0.0162 H       
  23 H23            0.8167    -1.5799    -1.2226 H       
  24 H24            0.2136    -0.1754    -2.1363 H       
  25 H25            3.1155     1.8483    -1.2262 H       
  26 H26            1.5864     1.8718    -2.1384 H       
  27 H27            1.3110     3.0946    -0.0198 H       
  28 H28            1.8778     1.6756     0.8946 H       
  29 H29           -1.8364     1.7643     1.0189 H       
  30 H30           -0.4270     1.4890     2.0706 H       
  31 H31           -2.3480     3.9755     0.1789 H       
  32 H32           -1.9474     6.4162     0.4092 H       
  33 H33            1.8011     7.9030     1.6651 H       
  34 H34            0.8604     7.9146     3.1761 H       
  35 H35            2.9584     8.1272     4.4806 H       
  36 H36            3.8991     8.1156     2.9696 H       
  37 H37            2.7164    10.1612     2.2176 H       
  38 H38            1.7757    10.1728     3.7287 H       
  39 H39            3.8737    10.3854     5.0332 H       
  40 H40            4.8144    10.3738     3.5221 H       
  41 H41            3.6317    12.4194     2.7702 H       
  42 H42            2.6910    12.4310     4.2812 H       
  43 H43            4.7890    12.6436     5.5857 H       
  44 H44            5.7297    12.6320     4.0747 H       
  45 H45            4.6215    13.9807     4.4228 H       
@<TRIPOS>BOND
   1    1    2 1
   2    1    6 1
   3    1    7 1
   4    2    3 1
   5    2   21 1
   6    2   22 1
   7    3    4 1
   8    3   23 1
   9    3   24 1
  10    4    5 1
  11    5    6 1
  12    5   25 1
  13    5   26 1
  14    6   27 1
  15    6   28 1
  16    7   10 1
  17    7   29 1
  18    7   30 1
  19    8    9 ar
  20    8   13 ar
  21    8   14 1
  22    9   10 ar
  23   10   11 ar
  24   11   12 ar
  25   11   31 1
  26   12   13 ar
  27   12   32 1
  28   14   15 1
  29   15   16 1
  30   15   33 1
  31   15   34 1
  32   16   17 1
  33   16   35 1
  34   16   36 1
  35   17   18 1
  36   17   37 1
  37   17   38 1
  38   18   19 1
  39   18   39 1
  40   18   40 1
  41   19   20 1
  42   19   41 1
  43   19   42 1
  44   20   43 1
  45   20   44 1
  46   20   45 1

#	End of record

