#	Name: ASD07930049
#	Creating user name:	WinNT
#	Creation time:	15. 06. 2019 21:11

#	Modifying user name:	WinNT
#	Modification time:	15. 06. 2019 21:11

#	Program:	/corina/corina34_cracker 3.40 0067  02.08.2006

@<TRIPOS>MOLECULE
ASD07930049
  46   48    0    0    0
SMALL
NO_CHARGES


@<TRIPOS>ATOM
   1 C1             0.1513     1.0794    -1.8349 C.ar    
   2 C2             0.1286    -0.2299    -1.3885 C.ar    
   3 C3             1.2902    -0.8325    -0.9507 C.ar    
   4 C4             2.4877    -0.1197    -0.9588 C.ar    
   5 C5             2.5048     1.1984    -1.4094 C.ar    
   6 C6             1.3369     1.7914    -1.8451 C.ar    
   7 C7             3.7399    -0.7623    -0.4887 C.ar    
   8 C8             3.7228    -2.0804    -0.0377 C.ar    
   9 C9             4.8906    -2.6732     0.3985 C.ar    
  10 C10            6.0761    -1.9610     0.3888 C.ar    
  11 C11            6.0988    -0.6517    -0.0576 C.ar    
  12 C12            4.9385    -0.0514    -0.5022 C.ar    
  13 S13           -1.4278    -1.1539    -1.3782 Du      
  14 F14           -2.1793     0.1191    -0.7403 F       
  15 F15           -0.6763    -2.4268    -2.0161 F       
  16 F16           -1.0949    -1.6981     0.1000 F       
  17 F17           -2.8122    -1.9758    -1.3690 F       
  18 F18           -1.7607    -0.6097    -2.8564 F       
  19 C19            7.3943     0.1181    -0.0648 C.3     
  20 C20            8.1617    -0.1484     1.2337 C.3     
  21 C21            7.5208     0.5882     2.3760 C.2     
  22 N22            6.7398     1.6633     2.1959 N.am    
  23 C23            6.4291     2.1177     0.9257 C.2     
  24 N24            7.1144     1.5633    -0.1421 N.pl3   
  25 C25            8.2430    -0.3098    -1.2637 C.3     
  26 N26            5.5236     3.0347     0.7416 N.2     
  27 O27            7.7174     0.1944     3.5058 O.2     
  28 C28            6.2059     2.3688     3.3635 C.3     
  29 H29           -0.7593     1.5457    -2.1809 H       
  30 H30            1.2713    -1.8545    -0.6021 H       
  31 H31            3.4300     1.7555    -1.4174 H       
  32 H32            1.3490     2.8132    -2.1947 H       
  33 H33            2.7974    -2.6372    -0.0290 H       
  34 H34            4.8784    -3.6949     0.7483 H       
  35 H35            6.9874    -2.4285     0.7313 H       
  36 H36            4.9574     0.9706    -0.8508 H       
  37 H37            8.1546    -1.2179     1.4443 H       
  38 H38            9.1921     0.1881     1.1197 H       
  39 H39            7.3957     2.0979    -0.9010 H       
  40 H40            7.6977    -0.1074    -2.1856 H       
  41 H41            9.1786     0.2494    -1.2647 H       
  42 H42            8.4573    -1.3764    -1.1951 H       
  43 H43            5.0536     3.4118     1.5017 H       
  44 H44            6.9037     3.1493     3.6669 H       
  45 H45            5.2462     2.8186     3.1088 H       
  46 H46            6.0705     1.6637     4.1836 H       
@<TRIPOS>BOND
   1    1    2 ar
   2    1    6 ar
   3    1   29 1
   4    2    3 ar
   5    2   13 1
   6    3    4 ar
   7    3   30 1
   8    4    5 ar
   9    4    7 1
  10    5    6 ar
  11    5   31 1
  12    6   32 1
  13    7    8 ar
  14    7   12 ar
  15    8    9 ar
  16    8   33 1
  17    9   10 ar
  18    9   34 1
  19   10   11 ar
  20   10   35 1
  21   11   12 ar
  22   11   19 1
  23   12   36 1
  24   13   14 1
  25   13   15 1
  26   13   16 1
  27   13   17 1
  28   13   18 1
  29   19   20 1
  30   19   25 1
  31   19   24 1
  32   20   21 1
  33   20   37 1
  34   20   38 1
  35   21   22 am
  36   21   27 2
  37   22   23 1
  38   22   28 1
  39   23   24 1
  40   23   26 2
  41   24   39 1
  42   25   40 1
  43   25   41 1
  44   25   42 1
  45   26   43 1
  46   28   44 1
  47   28   45 1
  48   28   46 1

#	End of record

