#	Name: ASD03621005
#	Creating user name:	WinNT
#	Creation time:	15. 06. 2019 20:43

#	Modifying user name:	WinNT
#	Modification time:	15. 06. 2019 20:43

#	Program:	/corina/corina34_cracker 3.40 0067  02.08.2006

@<TRIPOS>MOLECULE
ASD03621005
  91   94    0    0    0
SMALL
NO_CHARGES


@<TRIPOS>ATOM
   1 C1             3.6577    -2.3906   -12.2345 C.ar    
   2 C2             3.5611    -1.9210   -10.9380 C.ar    
   3 C3             4.4550    -2.3552    -9.9771 C.ar    
   4 C4             5.4452    -3.2595   -10.3127 C.ar    
   5 C5             5.5413    -3.7299   -11.6090 C.ar    
   6 C6             4.6483    -3.2946   -12.5702 C.ar    
   7 C7             6.4203    -3.7322    -9.2654 C.3     
   8 C8             5.8277    -4.8983    -8.5171 C.2     
   9 N9             6.5647    -5.5549    -7.5994 N.am    
  10 O10            4.6875    -5.2459    -8.7406 O.2     
  11 C11            5.9560    -6.6168    -6.7944 C.3     
  12 C12            5.2170    -6.0104    -5.6344 C.2     
  13 N13            5.7769    -5.8532    -4.4263 N.am    
  14 C14            7.1513    -6.2193    -4.1107 C.3     
  15 C15            7.9380    -6.7211    -5.3083 C.3     
  16 C16            7.0508    -7.5390    -6.2456 C.3     
  17 O17            4.0708    -5.6492    -5.7975 O.2     
  18 C18            3.6226    -4.8304    -3.9167 C.2     
  19 N19            2.4949    -5.5035    -3.6137 N.am    
  20 O20            3.5738    -3.8628    -4.6462 O.2     
  21 C21            1.2236    -5.1185    -4.2317 C.3     
  22 C22            0.3835    -6.3485    -4.4607 C.2     
  23 N23           -0.8364    -6.2363    -5.0226 N.am    
  24 O24            0.8052    -7.4393    -4.1394 O.2     
  25 C25            0.4771    -4.1562    -3.3055 C.3     
  26 C26            1.2542    -2.8424    -3.2017 C.3     
  27 C27           -1.6062    -7.4394    -5.3484 C.3     
  28 C28           -2.9541    -7.3936    -4.6258 C.3     
  29 C29           -1.8394    -7.5021    -6.8592 C.3     
  30 C30           -0.5185    -7.6708    -7.5647 C.ar    
  31 C31           -0.0286    -8.9378    -7.8211 C.ar    
  32 C32            1.1830    -9.0925    -8.4682 C.ar    
  33 C33            1.9046    -7.9803    -8.8595 C.ar    
  34 C34            1.4144    -6.7133    -8.6039 C.ar    
  35 C35            0.2006    -6.5586    -7.9606 C.ar    
  36 C36            0.5383    -1.9018    -2.2303 C.3     
  37 N37            1.3417    -0.6914    -2.0410 N.am    
  38 C38            0.9555     0.2409    -1.1477 C.2     
  39 N39            1.6372     1.3990    -1.0449 N.am    
  40 O40           -0.0078     0.0372    -0.4344 O.2     
  41 H41            7.1272    -7.0136    -3.3646 H       
  42 C42            4.9441    -5.2802    -3.3490 C.3     
  43 C43            5.6789    -4.0804    -2.7458 C.3     
  44 C44            7.0687    -4.5209    -2.2797 C.3     
  45 C45            7.8715    -5.0221    -3.4823 C.3     
  46 C46           -2.7291    -7.4706    -3.1377 C.2     
  47 O47           -1.6043    -7.4875    -2.6968 O.2     
  48 O48           -3.7783    -7.5203    -2.3020 O.3     
  49 H49            2.9566    -2.0548   -12.9842 H       
  50 H50            2.7875    -1.2145   -10.6758 H       
  51 H51            4.3800    -1.9878    -8.9644 H       
  52 H52            6.3154    -4.4359   -11.8713 H       
  53 H53            4.7235    -3.6618   -13.5831 H       
  54 H54            7.3479    -4.0428    -9.7464 H       
  55 H55            6.6267    -2.9202    -8.5683 H       
  56 H56            7.4983    -5.3243    -7.4720 H       
  57 H57            5.2636    -7.1914    -7.4096 H       
  58 H58            8.3428    -5.8682    -5.8532 H       
  59 H59            8.7610    -7.3449    -4.9597 H       
  60 H60            6.5959    -8.3628    -5.6956 H       
  61 H61            7.6484    -7.9310    -7.0686 H       
  62 H62            2.5250    -6.2429    -2.9865 H       
  63 H63            1.4172    -4.6279    -5.1856 H       
  64 H64           -1.2046    -5.3590    -5.2112 H       
  65 H65           -0.5160    -3.9600    -3.7096 H       
  66 H66            0.3849    -4.6029    -2.3155 H       
  67 H67            2.2614    -3.0438    -2.8367 H       
  68 H68            1.3107    -2.3750    -4.1848 H       
  69 H69           -1.0527    -8.3225    -5.0292 H       
  70 H70           -3.4649    -6.4618    -4.8683 H       
  71 H71           -3.5662    -8.2372    -4.9448 H       
  72 H72           -2.4864    -8.3478    -7.0922 H       
  73 H73           -2.3139    -6.5790    -7.1922 H       
  74 H74           -0.5924    -9.8067    -7.5154 H       
  75 H75            1.5660   -10.0824    -8.6679 H       
  76 H76            2.8516    -8.1011    -9.3644 H       
  77 H77            1.9783    -5.8443    -8.9093 H       
  78 H78           -0.1824    -5.5687    -7.7610 H       
  79 H79           -0.4358    -1.6313    -2.6378 H       
  80 H80            0.4046    -2.4027    -1.2715 H       
  81 H81            2.1516    -0.5610    -2.5587 H       
  82 H82            2.4474     1.5323    -1.5613 H       
  83 H83            1.3175     2.0992    -0.4547 H       
  84 H84            4.7764    -6.0318    -2.5775 H       
  85 H85            5.7784    -3.2986    -3.4988 H       
  86 H86            5.1142    -3.6978    -1.8956 H       
  87 H87            7.5846    -3.6753    -1.8248 H       
  88 H88            6.9698    -5.3232    -1.5486 H       
  89 H89            8.8654    -5.3266    -3.1546 H       
  90 H90            7.9599    -4.2234    -4.2189 H       
  91 H91           -3.5841    -7.5689    -1.3559 H       
@<TRIPOS>BOND
   1    1    2 ar
   2    1    6 ar
   3    1   49 1
   4    2    3 ar
   5    2   50 1
   6    3    4 ar
   7    3   51 1
   8    4    5 ar
   9    4    7 1
  10    5    6 ar
  11    5   52 1
  12    6   53 1
  13    7    8 1
  14    7   54 1
  15    7   55 1
  16    8    9 am
  17    8   10 2
  18    9   11 1
  19    9   56 1
  20   11   12 1
  21   11   16 1
  22   11   57 1
  23   12   13 am
  24   12   17 2
  25   13   14 1
  26   13   42 1
  27   14   15 1
  28   14   41 1
  29   14   45 1
  30   15   16 1
  31   15   58 1
  32   15   59 1
  33   16   60 1
  34   16   61 1
  35   18   19 am
  36   18   20 2
  37   18   42 1
  38   19   21 1
  39   19   62 1
  40   21   22 1
  41   21   25 1
  42   21   63 1
  43   22   23 am
  44   22   24 2
  45   23   27 1
  46   23   64 1
  47   25   26 1
  48   25   65 1
  49   25   66 1
  50   26   36 1
  51   26   67 1
  52   26   68 1
  53   27   28 1
  54   27   29 1
  55   27   69 1
  56   28   46 1
  57   28   70 1
  58   28   71 1
  59   29   30 1
  60   29   72 1
  61   29   73 1
  62   30   31 ar
  63   30   35 ar
  64   31   32 ar
  65   31   74 1
  66   32   33 ar
  67   32   75 1
  68   33   34 ar
  69   33   76 1
  70   34   35 ar
  71   34   77 1
  72   35   78 1
  73   36   37 1
  74   36   79 1
  75   36   80 1
  76   37   38 am
  77   37   81 1
  78   38   39 am
  79   38   40 2
  80   39   82 1
  81   39   83 1
  82   42   43 1
  83   42   84 1
  84   43   44 1
  85   43   85 1
  86   43   86 1
  87   44   45 1
  88   44   87 1
  89   44   88 1
  90   45   89 1
  91   45   90 1
  92   46   47 2
  93   46   48 1
  94   48   91 1

#	End of record

