#	Name: ASD01900088
#	Creating user name:	WinNT
#	Creation time:	15. 06. 2019 19:51

#	Modifying user name:	WinNT
#	Modification time:	15. 06. 2019 19:51

#	Program:	/corina/corina34_cracker 3.40 0067  02.08.2006

@<TRIPOS>MOLECULE
ASD01900088
  41   43    0    0    0
SMALL
NO_CHARGES


@<TRIPOS>ATOM
   1 C1            -0.3969     1.5666    -1.1825 C.2     
   2 N2            -0.3767     0.2229    -1.0788 N.am    
   3 O3             0.6308     2.2018    -1.0495 O.2     
   4 C4             0.8337    -0.4442    -0.8167 C.2     
   5 C5             0.9956    -1.7862    -0.6882 C.2     
   6 N6             2.3106    -2.0184    -0.4401 N.am    
   7 N7             2.9690    -0.7823    -0.4167 N.2     
   8 C8             2.0892     0.1581    -0.6474 C.2     
   9 S9             3.0113    -3.5004    -0.2059 S.o2    
  10 O10            4.2818    -3.2552     0.3814 O.2     
  11 O11            2.0212    -4.3214     0.3983 O.2     
  12 C12            3.3233    -4.1874    -1.7981 C.ar    
  13 C13            2.6808    -5.3472    -2.1884 C.ar    
  14 C14            2.9257    -5.8862    -3.4378 C.ar    
  15 C15            3.8127    -5.2650    -4.2967 C.ar    
  16 C16            4.4547    -4.1044    -3.9066 C.ar    
  17 C17            4.2066    -3.5631    -2.6593 C.ar    
  18 C18           -1.6704     2.2686    -1.4646 C.ar    
  19 N19           -2.7884     1.5691    -1.6143 N.ar    
  20 C20           -3.9397     2.1536    -1.8652 C.ar    
  21 C21           -4.0275     3.5313    -1.9831 C.ar    
  22 C22           -2.8838     4.3005    -1.8340 C.ar    
  23 C23           -1.6857     3.6582    -1.5649 C.ar    
  24 C24            4.0804    -5.8532    -5.6581 C.3     
  25 C25            4.9064    -2.2980    -2.2342 C.3     
  26 H26           -1.1968    -0.2841    -1.1850 H       
  27 H27            0.2198    -2.5332    -0.7684 H       
  28 H28            2.2933     1.2177    -0.6922 H       
  29 H29            1.9877    -5.8326    -1.5173 H       
  30 H30            2.4242    -6.7929    -3.7424 H       
  31 H31            5.1481    -3.6192    -4.5776 H       
  32 H32           -4.8286     1.5513    -1.9811 H       
  33 H33           -4.9777     4.0013    -2.1896 H       
  34 H34           -2.9263     5.3761    -1.9217 H       
  35 H35           -0.7752     4.2261    -1.4427 H       
  36 H36            3.3754    -5.4380    -6.3783 H       
  37 H37            5.0980    -5.6111    -5.9648 H       
  38 H38            3.9615    -6.9358    -5.6160 H       
  39 H39            4.2584    -1.4426    -2.4251 H       
  40 H40            5.1357    -2.3497    -1.1698 H       
  41 H41            5.8313    -2.1866    -2.8001 H       
@<TRIPOS>BOND
   1    1    2 am
   2    1    3 2
   3    1   18 1
   4    2    4 1
   5    2   26 1
   6    4    5 2
   7    4    8 1
   8    5    6 1
   9    5   27 1
  10    6    7 1
  11    6    9 am
  12    7    8 2
  13    8   28 1
  14    9   10 2
  15    9   11 2
  16    9   12 1
  17   12   13 ar
  18   12   17 ar
  19   13   14 ar
  20   13   29 1
  21   14   15 ar
  22   14   30 1
  23   15   16 ar
  24   15   24 1
  25   16   17 ar
  26   16   31 1
  27   17   25 1
  28   18   19 ar
  29   18   23 ar
  30   19   20 ar
  31   20   21 ar
  32   20   32 1
  33   21   22 ar
  34   21   33 1
  35   22   23 ar
  36   22   34 1
  37   23   35 1
  38   24   36 1
  39   24   37 1
  40   24   38 1
  41   25   39 1
  42   25   40 1
  43   25   41 1

#	End of record

