#	Name: ASD01141060
#	Creating user name:	WinNT
#	Creation time:	15. 06. 2019 19:01

#	Modifying user name:	WinNT
#	Modification time:	15. 06. 2019 19:01

#	Program:	/corina/corina34_cracker 3.40 0067  02.08.2006

@<TRIPOS>MOLECULE
ASD01141060
  39   40    0    0    0
SMALL
NO_CHARGES


@<TRIPOS>ATOM
   1 C1             0.1620     1.5484    -0.9284 C.ar    
   2 C2             0.0070     0.6132    -1.9332 C.ar    
   3 C3             1.2154     2.4643    -0.9884 C.ar    
   4 Cl4           -0.9530     1.5902     0.4015 Cl      
   5 C5             0.8914     0.5828    -2.9958 C.ar    
   6 C6             2.1040     2.4268    -2.0649 C.ar    
   7 C7             1.3881     3.4686     0.0825 C.2     
   8 C8             1.9372     1.4874    -3.0605 C.ar    
   9 C9             2.5638     4.3461     0.0825 C.2     
  10 O10            0.5550     3.5676     0.9640 O.2     
  11 C11            2.4106     5.7074    -0.1057 C.2     
  12 C12            3.9022     3.7793     0.2821 C.2     
  13 N13            3.4763     6.5277     0.0033 N.pl3   
  14 O14            4.0645     2.4426     0.3528 O.3     
  15 O15            4.8650     4.5149     0.3838 O.2     
  16 C16            3.3024     7.9126    -0.0682 C.ar    
  17 C17            4.3985     8.7584     0.0439 C.ar    
  18 C18            2.0336     8.4459    -0.2572 C.ar    
  19 C19            4.2239    10.1267    -0.0276 C.ar    
  20 C20            1.8654     9.8157    -0.3279 C.ar    
  21 C21            2.9597    10.6554    -0.2105 C.ar    
  22 H22            4.3632     6.1563     0.1313 H       
  23 C23            5.4269     1.9476     0.4377 C.3     
  24 C24            5.4182     0.4185     0.3844 C.3     
  25 Cl25           0.2799    10.4841    -0.5581 Cl      
  26 H26           -0.8064    -0.0960    -1.8886 H       
  27 H27            0.7658    -0.1504    -3.7788 H       
  28 H28            2.9202     3.1321    -2.1177 H       
  29 H29            2.6243     1.4575    -3.8932 H       
  30 H30            1.4378     6.1140    -0.3399 H       
  31 H31            5.3866     8.3465     0.1871 H       
  32 H32            1.1799     7.7908    -0.3491 H       
  33 H33            5.0760    10.7844     0.0598 H       
  34 H34            2.8260    11.7257    -0.2661 H       
  35 H35            6.0077     2.3370    -0.3984 H       
  36 H36            5.8750     2.2759     1.3755 H       
  37 H37            4.7657     0.0314     1.1670 H       
  38 H38            5.0524     0.0909    -0.5887 H       
  39 H39            6.4304     0.0439     0.5370 H       
@<TRIPOS>BOND
   1    1    2 ar
   2    1    3 ar
   3    1    4 1
   4    2    5 ar
   5    2   26 1
   6    3    6 ar
   7    3    7 1
   8    5    8 ar
   9    5   27 1
  10    6    8 ar
  11    6   28 1
  12    7    9 1
  13    7   10 2
  14    8   29 1
  15    9   11 2
  16    9   12 1
  17   11   13 1
  18   11   30 1
  19   12   14 1
  20   12   15 2
  21   13   16 1
  22   13   22 1
  23   14   23 1
  24   16   17 ar
  25   16   18 ar
  26   17   19 ar
  27   17   31 1
  28   18   20 ar
  29   18   32 1
  30   19   21 ar
  31   19   33 1
  32   20   21 ar
  33   20   25 1
  34   21   34 1
  35   23   24 1
  36   23   35 1
  37   23   36 1
  38   24   37 1
  39   24   38 1
  40   24   39 1

#	End of record

