#	Name: ASD01478069
#	Creating user name:	WinNT
#	Creation time:	15. 06. 2019 19:21

#	Modifying user name:	WinNT
#	Modification time:	15. 06. 2019 19:21

#	Program:	/corina/corina34_cracker 3.40 0067  02.08.2006

@<TRIPOS>MOLECULE
ASD01478069
  32   32    0    0    0
SMALL
NO_CHARGES


@<TRIPOS>ATOM
   1 C1            -0.0187     1.5258     0.0104 C.3     
   2 C2             0.0021    -0.0041     0.0020 C.3     
   3 O3            -1.0403    -0.4992     0.8448 O.3     
   4 C4            -0.8837    -1.8695     1.2189 C.3     
   5 C5            -0.4025    -1.9505     2.6690 C.3     
   6 O6             0.9320    -2.4605     2.7002 O.3     
   7 C7             1.7672    -1.8436     3.6821 C.3     
   8 C8             3.1326    -1.5310     3.0666 C.3     
   9 O9             3.4270    -0.1435     3.2406 O.3     
  10 C10            4.0494     0.4651     2.1074 C.3     
  11 C11            3.1582     1.5914     1.5798 C.3     
  12 O12            2.2896     1.0773     0.5682 O.3     
  13 C13            1.4167     2.0554    -0.0004 C.3     
  14 O14           -0.7098     1.9991    -1.1473 O.3     
  15 H15           -0.5289     1.8773     0.9072 H       
  16 H16           -0.1515    -0.3639    -1.0153 H       
  17 H17            0.9655    -0.3564     0.3705 H       
  18 H18           -1.8402    -2.3835     1.1242 H       
  19 H19           -0.1506    -2.3429     0.5658 H       
  20 H20           -0.4218    -0.9558     3.1143 H       
  21 H21           -1.0582    -2.6138     3.2329 H       
  22 H22            1.3028    -0.9190     4.0250 H       
  23 H23            1.8958    -2.5206     4.5267 H       
  24 H24            3.8988    -2.1296     3.5592 H       
  25 H25            3.1144    -1.7680     2.0029 H       
  26 H26            5.0166     0.8739     2.3999 H       
  27 H27            4.1918    -0.2817     1.3263 H       
  28 H28            2.5631     1.9973     2.3978 H       
  29 H29            3.7811     2.3799     1.1574 H       
  30 H30            1.7205     2.2605    -1.0269 H       
  31 H31            1.4696     2.9735     0.5846 H       
  32 H32           -0.7617     2.9629    -1.2077 H       
@<TRIPOS>BOND
   1    1    2 1
   2    1   13 1
   3    1   14 1
   4    1   15 1
   5    2    3 1
   6    2   16 1
   7    2   17 1
   8    3    4 1
   9    4    5 1
  10    4   18 1
  11    4   19 1
  12    5    6 1
  13    5   20 1
  14    5   21 1
  15    6    7 1
  16    7    8 1
  17    7   22 1
  18    7   23 1
  19    8    9 1
  20    8   24 1
  21    8   25 1
  22    9   10 1
  23   10   11 1
  24   10   26 1
  25   10   27 1
  26   11   12 1
  27   11   28 1
  28   11   29 1
  29   12   13 1
  30   13   30 1
  31   13   31 1
  32   14   32 1

#	End of record

