#	Name: ASD03081296
#	Creating user name:	WinNT
#	Creation time:	15. 06. 2019 20:27

#	Modifying user name:	WinNT
#	Modification time:	15. 06. 2019 20:27

#	Program:	/corina/corina34_cracker 3.40 0067  02.08.2006

@<TRIPOS>MOLECULE
ASD03081296
  34   36    0    0    0
SMALL
NO_CHARGES


@<TRIPOS>ATOM
   1 N1            -0.0169     1.3928     0.0097 N.pl3   
   2 C2            -0.0329    -0.0041     0.0150 C.ar    
   3 C3             1.1537    -0.7115    -0.1045 C.ar    
   4 C4             1.1322    -2.1062    -0.0987 C.ar    
   5 C5            -0.0844    -2.7805     0.0275 C.ar    
   6 C6            -1.2595    -2.0673     0.1457 C.ar    
   7 C7            -1.2377    -0.6849     0.1457 C.ar    
   8 O8             2.5156    -4.2105    -0.2352 O.3     
   9 C9             2.3921    -2.8676    -0.2260 C.2     
  10 N10            3.5975    -2.3606    -0.3510 N.2     
  11 N11            4.4557    -3.3154    -0.4366 N.2     
  12 C12            3.8321    -4.4697    -0.3696 C.2     
  13 C13            3.6772    -6.9608    -0.3473 C.ar    
  14 C14            4.4582    -5.8066    -0.4304 C.ar    
  15 C15            5.8449    -5.9375    -0.5728 C.ar    
  16 C16            6.3813    -7.2121    -0.6250 C.ar    
  17 C17            5.5390    -8.3055    -0.5357 C.ar    
  18 N18            4.2353    -8.1521    -0.4019 N.ar    
  19 C19            1.2602     2.1107     0.0087 C.3     
  20 C20           -1.2771     2.1397    -0.0010 C.3     
  21 H21            2.0913    -0.1845    -0.2020 H       
  22 H22           -0.1053    -3.8603     0.0320 H       
  23 H23           -2.1992    -2.5906     0.2428 H       
  24 H24           -2.1603    -0.1321     0.2435 H       
  25 H25            2.6066    -6.8758    -0.2327 H       
  26 H26            6.4794    -5.0662    -0.6405 H       
  27 H27            7.4466    -7.3516    -0.7347 H       
  28 H28            5.9551    -9.3012    -0.5766 H       
  29 H29            1.5783     2.2848    -1.0192 H       
  30 H30            1.1400     3.0665     0.5188 H       
  31 H31            2.0123     1.5149     0.5259 H       
  32 H32           -2.1108     1.4444    -0.0993 H       
  33 H33           -1.3769     2.6973     0.9303 H       
  34 H34           -1.2813     2.8332    -0.8419 H       
@<TRIPOS>BOND
   1    1    2 1
   2    1   19 1
   3    1   20 1
   4    2    3 ar
   5    2    7 ar
   6    3    4 ar
   7    3   21 1
   8    4    5 ar
   9    4    9 1
  10    5    6 ar
  11    5   22 1
  12    6    7 ar
  13    6   23 1
  14    7   24 1
  15    8    9 1
  16    8   12 1
  17    9   10 2
  18   10   11 1
  19   11   12 2
  20   12   14 1
  21   13   14 ar
  22   13   18 ar
  23   13   25 1
  24   14   15 ar
  25   15   16 ar
  26   15   26 1
  27   16   17 ar
  28   16   27 1
  29   17   18 ar
  30   17   28 1
  31   19   29 1
  32   19   30 1
  33   19   31 1
  34   20   32 1
  35   20   33 1
  36   20   34 1

#	End of record

