#	Name: ASD01140669
#	Creating user name:	WinNT
#	Creation time:	15. 06. 2019 19:01

#	Modifying user name:	WinNT
#	Modification time:	15. 06. 2019 19:01

#	Program:	/corina/corina34_cracker 3.40 0067  02.08.2006

@<TRIPOS>MOLECULE
ASD01140669
  54   58    0    0    0
SMALL
NO_CHARGES


@<TRIPOS>ATOM
   1 C1            -0.0187     1.5258     0.0104 C.3     
   2 C2             0.0021    -0.0041     0.0020 C.3     
   3 O3             0.6709    -0.4649    -1.1737 O.3     
   4 C4             0.7457    -1.8880    -1.2798 C.3     
   5 C5             1.4669    -2.2599    -2.5497 C.2     
   6 N6             0.9240    -2.4559    -3.7241 N.2     
   7 N7             1.8307    -2.7582    -4.5853 N.2     
   8 C8             3.0113    -2.7710    -4.0030 C.2     
   9 C9             4.3025    -3.0684    -4.6515 C.ar    
  10 C10            4.5034    -2.6145    -5.9605 C.ar    
  11 C11            5.6979    -2.8649    -6.6094 C.ar    
  12 O12            5.8872    -2.4221    -7.8808 O.3     
  13 C13            7.1459    -2.7169    -8.4897 C.3     
  14 C14            6.7045    -3.5687    -5.9617 C.ar    
  15 C15            6.5146    -4.0199    -4.6725 C.ar    
  16 C16            5.3155    -3.7783    -4.0068 C.ar    
  17 N17            5.1823    -4.2732    -2.7048 N.pl3   
  18 C18            5.6760    -5.4650    -2.2629 C.2     
  19 N19            5.3861    -5.6018    -0.9997 N.2     
  20 C20            4.6967    -4.5185    -0.5817 C.2     
  21 C21            4.1837    -4.2810     0.7887 C.2     
  22 N22            3.5109    -3.2352     1.1963 N.2     
  23 O23            3.2384    -3.3479     2.3728 O.3     
  24 C24            3.7197    -4.5016     2.8461 C.2     
  25 N25            4.3180    -5.1076     1.8510 N.2     
  26 C26            3.5932    -5.0117     4.2585 C.3     
  27 C27            4.2524    -4.0204     5.2196 C.3     
  28 C28            2.1132    -5.1614     4.6160 C.3     
  29 C29            4.5605    -3.6876    -1.6433 C.2     
  30 C30            3.8447    -2.3570    -1.6677 C.3     
  31 N31            2.7992    -2.4485    -2.6929 N.pl3   
  32 H32            1.0039     1.9031     0.0027 H       
  33 H33           -0.5459     1.8868    -0.8726 H       
  34 H34           -0.5289     1.8773     0.9072 H       
  35 H35            0.5293    -0.3651     0.8851 H       
  36 H36           -1.0205    -0.3814     0.0098 H       
  37 H37            1.2883    -2.2882    -0.4233 H       
  38 H38           -0.2614    -2.3044    -1.2986 H       
  39 H39            3.7217    -2.0666    -6.4655 H       
  40 H40            7.9476    -2.2702    -7.9016 H       
  41 H41            7.2849    -3.7972    -8.5321 H       
  42 H42            7.1653    -2.3082    -9.5000 H       
  43 H43            7.6382    -3.7628    -6.4685 H       
  44 H44            7.3024    -4.5662    -4.1751 H       
  45 H45            6.2191    -6.1802    -2.8629 H       
  46 H46            4.0866    -5.9802     4.3405 H       
  47 H47            3.7590    -3.0520     5.1375 H       
  48 H48            4.1609    -4.3894     6.2412 H       
  49 H49            5.3068    -3.9138     4.9649 H       
  50 H50            1.6436    -5.8676     3.9313 H       
  51 H51            2.0217    -5.5304     5.6376 H       
  52 H52            1.6198    -4.1929     4.5339 H       
  53 H53            3.3958    -2.1580    -0.6946 H       
  54 H54            4.5449    -1.5624    -1.9253 H       
@<TRIPOS>BOND
   1    1    2 1
   2    1   32 1
   3    1   33 1
   4    1   34 1
   5    2    3 1
   6    2   35 1
   7    2   36 1
   8    3    4 1
   9    4    5 1
  10    4   37 1
  11    4   38 1
  12    5   31 1
  13    5    6 2
  14    6    7 1
  15    7    8 2
  16    8   31 1
  17    8    9 1
  18    9   16 ar
  19    9   10 ar
  20   10   11 ar
  21   10   39 1
  22   11   12 1
  23   11   14 ar
  24   12   13 1
  25   13   40 1
  26   13   41 1
  27   13   42 1
  28   14   15 ar
  29   14   43 1
  30   15   16 ar
  31   15   44 1
  32   16   17 1
  33   17   29 1
  34   17   18 1
  35   18   19 2
  36   18   45 1
  37   19   20 1
  38   20   21 1
  39   20   29 2
  40   21   25 1
  41   21   22 2
  42   22   23 1
  43   23   24 1
  44   24   25 2
  45   24   26 1
  46   26   27 1
  47   26   28 1
  48   26   46 1
  49   27   47 1
  50   27   48 1
  51   27   49 1
  52   28   50 1
  53   28   51 1
  54   28   52 1
  55   29   30 1
  56   30   31 1
  57   30   53 1
  58   30   54 1

#	End of record

