#	Name: ASD01000108
#	Creating user name:	WinNT
#	Creation time:	15. 06. 2019 18:54

#	Modifying user name:	WinNT
#	Modification time:	15. 06. 2019 18:54

#	Program:	/corina/corina34_cracker 3.40 0067  02.08.2006

@<TRIPOS>MOLECULE
ASD01000108
  37   40    0    0    0
SMALL
NO_CHARGES


@<TRIPOS>ATOM
   1 C1            -0.0167     1.3780     0.0096 C.ar    
   2 C2             0.0021    -0.0041     0.0020 C.ar    
   3 C3             1.2088    -0.6729    -0.0100 C.ar    
   4 C4             2.4058     0.0311    -0.0137 C.ar    
   5 C5             2.3871     1.4080    -0.0124 C.ar    
   6 C6             1.1715     2.0793     0.0020 C.ar    
   7 C7             3.6864    -0.7620    -0.0108 C.3     
   8 C8             4.8603     0.1114    -0.4486 C.3     
   9 C9             4.8482     1.3950     0.3896 C.3     
  10 C10            3.6454     2.2358    -0.0335 C.3     
  11 C11            6.1541    -0.6283    -0.2252 C.2     
  12 O12            4.7258     0.4395    -1.8329 O.3     
  13 C13            6.7504    -1.4270    -1.1245 C.2     
  14 C14            7.9735    -1.9368    -0.4999 C.ar    
  15 C15            8.0150    -1.3748     0.7890 C.ar    
  16 N16            6.8981    -0.5808     0.9222 N.pl3   
  17 C17            8.9941    -2.7919    -0.9203 C.ar    
  18 C18           10.0294    -3.0788    -0.0762 C.ar    
  19 C19           10.0750    -2.5267     1.1969 C.ar    
  20 C20            9.0786    -1.6810     1.6320 C.ar    
  21 H21           -0.9582     1.9071     0.0170 H       
  22 H22           -0.9247    -0.5585     0.0058 H       
  23 H23            1.2226    -1.7528    -0.0161 H       
  24 H24            1.1561     3.1592     0.0077 H       
  25 H25            3.8738    -1.1382     0.9950 H       
  26 H26            3.5893    -1.6038    -0.6964 H       
  27 H27            4.7657     1.1423     1.4467 H       
  28 H28            5.7669     1.9553     0.2162 H       
  29 H29            3.8091     2.6154    -1.0421 H       
  30 H30            3.5347     3.0757     0.6524 H       
  31 H31            4.7100    -0.3291    -2.4196 H       
  32 H32            6.3956    -1.6513    -2.1195 H       
  33 H33            6.6695    -0.0689     1.7137 H       
  34 H34            8.9650    -3.2254    -1.9091 H       
  35 H35           10.8183    -3.7406    -0.4017 H       
  36 H36           10.8997    -2.7632     1.8528 H       
  37 H37            9.1231    -1.2566     2.6242 H       
@<TRIPOS>BOND
   1    1    2 ar
   2    1    6 ar
   3    1   21 1
   4    2    3 ar
   5    2   22 1
   6    3    4 ar
   7    3   23 1
   8    4    5 ar
   9    4    7 1
  10    5    6 ar
  11    5   10 1
  12    6   24 1
  13    7    8 1
  14    7   25 1
  15    7   26 1
  16    8    9 1
  17    8   11 1
  18    8   12 1
  19    9   10 1
  20    9   27 1
  21    9   28 1
  22   10   29 1
  23   10   30 1
  24   11   13 2
  25   11   16 1
  26   12   31 1
  27   13   14 1
  28   13   32 1
  29   14   15 ar
  30   14   17 ar
  31   15   16 1
  32   15   20 ar
  33   16   33 1
  34   17   18 ar
  35   17   34 1
  36   18   19 ar
  37   18   35 1
  38   19   20 ar
  39   19   36 1
  40   20   37 1

#	End of record

