#	Name: ASD01890086
#	Creating user name:	WinNT
#	Creation time:	15. 06. 2019 19:50

#	Modifying user name:	WinNT
#	Modification time:	15. 06. 2019 19:50

#	Program:	/corina/corina34_cracker 3.40 0067  02.08.2006

@<TRIPOS>MOLECULE
ASD01890086
  54   55    0    0    0
SMALL
NO_CHARGES


@<TRIPOS>ATOM
   1 C1             0.4418     1.4537     0.0592 C.2     
   2 C2            -0.0092     0.0169     0.0028 C.3     
   3 C3            -0.7975    -0.3113     1.2445 C.2     
   4 O4             1.6204     1.7184     0.0343 O.2     
   5 O5            -0.4661     2.4398     0.1315 O.3     
   6 O6            -1.9458    -0.6758     1.1524 O.2     
   7 O7            -0.2238    -0.1986     2.4532 O.3     
   8 C8            -0.9529    -0.6118     3.5233 C.ar    
   9 C9            -1.0934    -1.9666     3.7870 C.ar    
  10 C10           -1.8346    -2.3840     4.8755 C.ar    
  11 C11           -2.4366    -1.4528     5.7015 C.ar    
  12 C12           -2.2980    -0.1020     5.4409 C.ar    
  13 C13           -1.5531     0.3206     4.3569 C.ar    
  14 C14           -3.2454    -1.9109     6.8877 C.3     
  15 F15           -2.4123    -2.0192     8.0064 F       
  16 F16           -4.2581    -0.9816     7.1486 F       
  17 F17           -3.8166    -3.1573     6.6093 F       
  18 C18           -0.8898    -0.1932    -1.2307 C.3     
  19 C19           -2.1128     0.7223    -1.1461 C.3     
  20 C20           -3.0407     0.4285    -2.2966 C.2     
  21 C21           -0.1015     0.1350    -2.4724 C.ar    
  22 C22            0.1014    -0.8329    -3.4383 C.ar    
  23 C23            0.8245    -0.5319    -4.5773 C.ar    
  24 C24            1.3443     0.7372    -4.7507 C.ar    
  25 C25            1.1406     1.7054    -3.7853 C.ar    
  26 C26            0.4138     1.4056    -2.6483 C.ar    
  27 O27           -4.1957     0.1473    -2.0842 O.2     
  28 C28            1.2138    -0.8985    -0.0818 C.3     
  29 C29            0.7559    -2.3573    -0.1391 C.3     
  30 C30            0.0403     3.7996     0.1827 C.3     
  31 C31           -1.1332     4.7782     0.2619 C.3     
  32 H32           -0.6241    -2.6943     3.1416 H       
  33 H33           -1.9443    -3.4385     5.0812 H       
  34 H34           -2.7695     0.6234     6.0874 H       
  35 H35           -1.4418     1.3759     4.1561 H       
  36 H36           -1.2160    -1.2324    -1.2715 H       
  37 H37           -2.6339     0.5464    -0.2050 H       
  38 H38           -1.7918     1.7628    -1.1948 H       
  39 H39           -2.6727     0.4693    -3.3112 H       
  40 H40           -0.3047    -1.8245    -3.3028 H       
  41 H41            0.9836    -1.2883    -5.3315 H       
  42 H42            1.9098     0.9722    -5.6403 H       
  43 H43            1.5470     2.6969    -3.9207 H       
  44 H44            0.2515     2.1631    -1.8958 H       
  45 H45            1.7839    -0.6612    -0.9800 H       
  46 H46            1.8411    -0.7489     0.7969 H       
  47 H47            0.1858    -2.5947     0.7591 H       
  48 H48            0.1286    -2.5070    -1.0178 H       
  49 H49            1.6272    -3.0095    -0.1993 H       
  50 H50            0.6729     3.9189     1.0623 H       
  51 H51            0.6239     4.0041    -0.7150 H       
  52 H52           -0.7530     5.7990     0.3003 H       
  53 H53           -1.7658     4.6589    -0.6177 H       
  54 H54           -1.7167     4.5738     1.1596 H       
@<TRIPOS>BOND
   1    1    2 1
   2    1    4 2
   3    1    5 1
   4    2    3 1
   5    2   18 1
   6    2   28 1
   7    3    6 2
   8    3    7 1
   9    5   30 1
  10    7    8 1
  11    8    9 ar
  12    8   13 ar
  13    9   10 ar
  14    9   32 1
  15   10   11 ar
  16   10   33 1
  17   11   12 ar
  18   11   14 1
  19   12   13 ar
  20   12   34 1
  21   13   35 1
  22   14   15 1
  23   14   16 1
  24   14   17 1
  25   18   19 1
  26   18   21 1
  27   18   36 1
  28   19   20 1
  29   19   37 1
  30   19   38 1
  31   20   27 2
  32   20   39 1
  33   21   22 ar
  34   21   26 ar
  35   22   23 ar
  36   22   40 1
  37   23   24 ar
  38   23   41 1
  39   24   25 ar
  40   24   42 1
  41   25   26 ar
  42   25   43 1
  43   26   44 1
  44   28   29 1
  45   28   45 1
  46   28   46 1
  47   29   47 1
  48   29   48 1
  49   29   49 1
  50   30   31 1
  51   30   50 1
  52   30   51 1
  53   31   52 1
  54   31   53 1
  55   31   54 1

#	End of record

