#	Name: ASD02562017
#	Creating user name:	WinNT
#	Creation time:	15. 06. 2019 20:25

#	Modifying user name:	WinNT
#	Modification time:	15. 06. 2019 20:25

#	Program:	/corina/corina34_cracker 3.40 0067  02.08.2006

@<TRIPOS>MOLECULE
ASD02562017
  44   47    0    0    0
SMALL
NO_CHARGES


@<TRIPOS>ATOM
   1 C1            -1.1123     1.5055     0.6520 C.ar    
   2 C2            -1.0587     0.1386     0.8586 C.ar    
   3 C3            -1.2179    -0.7366    -0.2077 C.ar    
   4 C4            -1.4315    -0.2431    -1.4838 C.ar    
   5 C5            -1.4864     1.1355    -1.6944 C.ar    
   6 C6            -1.3301     2.0083    -0.6160 C.ar    
   7 Cl7           -0.9122     2.5918     1.9912 Cl      
   8 O8            -1.1634    -2.0783     0.0011 O.3     
   9 C9             0.0420    -2.6943    -0.1192 C.ar    
  10 C10            0.1279    -4.0773    -0.0284 C.ar    
  11 C11            1.3542    -4.7040    -0.1513 C.ar    
  12 C12            2.4964    -3.9561    -0.3640 C.ar    
  13 C13            2.4154    -2.5737    -0.4549 C.ar    
  14 C14            1.1865    -1.9430    -0.3383 C.ar    
  15 Cl15          -1.3051    -5.0198     0.2399 Cl      
  16 O16            3.5397    -1.8390    -0.6638 O.3     
  17 C17            4.7706    -2.5555    -0.7803 C.3     
  18 C18            5.8987    -1.5824    -1.0073 C.2     
  19 N19            7.1603    -1.8974    -1.1581 N.2     
  20 N20            7.8935    -0.7188    -1.3466 N.pl3   
  21 C21            7.0181     0.3256    -1.3032 C.2     
  22 C22            5.7720    -0.1966    -1.0978 C.2     
  23 C23            7.3542     1.7579    -1.4550 C.ar    
  24 C24            8.6792     2.1392    -1.6658 C.ar    
  25 C25            8.9777     3.4831    -1.8059 C.ar    
  26 C26            7.9416     4.4035    -1.7307 C.ar    
  27 C27            6.6502     3.9562    -1.5197 C.ar    
  28 N28            6.3913     2.6706    -1.3949 N.ar    
  29 C29           -1.7069     1.6530    -3.0114 C.1     
  30 N30           -1.8819     2.0634    -4.0560 N.1     
  31 H31           -0.8922    -0.2492     1.8527 H       
  32 H32           -1.5550    -0.9231    -2.3137 H       
  33 H33           -1.3718     3.0758    -0.7742 H       
  34 H34            1.4194    -5.7797    -0.0805 H       
  35 H35            3.4532    -4.4478    -0.4593 H       
  36 H36            1.1219    -0.8672    -0.4092 H       
  37 H37            4.9530    -3.1158     0.1368 H       
  38 H38            4.7111    -3.2456    -1.6219 H       
  39 H39            8.8519    -0.6568    -1.4829 H       
  40 H40            4.8532     0.3648    -1.0140 H       
  41 H41            9.4612     1.3961    -1.7186 H       
  42 H42            9.9943     3.8086    -1.9698 H       
  43 H43            8.1422     5.4595    -1.8358 H       
  44 H44            5.8421     4.6703    -1.4608 H       
@<TRIPOS>BOND
   1    1    2 ar
   2    1    7 1
   3    1    6 ar
   4    2    3 ar
   5    2   31 1
   6    3    4 ar
   7    3    8 1
   8    4    5 ar
   9    4   32 1
  10    5    6 ar
  11    5   29 1
  12    6   33 1
  13    8    9 1
  14    9   10 ar
  15    9   14 ar
  16   10   11 ar
  17   10   15 1
  18   11   12 ar
  19   11   34 1
  20   12   13 ar
  21   12   35 1
  22   13   14 ar
  23   13   16 1
  24   14   36 1
  25   16   17 1
  26   17   18 1
  27   17   37 1
  28   17   38 1
  29   18   19 2
  30   18   22 1
  31   19   20 1
  32   20   21 1
  33   20   39 1
  34   21   22 2
  35   21   23 1
  36   22   40 1
  37   23   24 ar
  38   23   28 ar
  39   24   25 ar
  40   24   41 1
  41   25   26 ar
  42   25   42 1
  43   26   27 ar
  44   26   43 1
  45   27   28 ar
  46   27   44 1
  47   29   30 3

#	End of record

