#	Name: ASD01910405
#	Creating user name:	WinNT
#	Creation time:	15. 06. 2019 19:55

#	Modifying user name:	WinNT
#	Modification time:	15. 06. 2019 19:55

#	Program:	/corina/corina34_cracker 3.40 0067  02.08.2006

@<TRIPOS>MOLECULE
ASD01910405
  51   54    0    0    0
SMALL
NO_CHARGES


@<TRIPOS>ATOM
   1 C1             0.2420     1.4779     0.3256 C.ar    
   2 C2             0.2221     0.0474     0.2617 C.1     
   3 C3             0.2058    -1.1253     0.2094 C.1     
   4 C4             0.1859    -2.5557     0.1455 C.ar    
   5 C5            -0.8473    -3.2118    -0.5329 C.ar    
   6 C6            -0.8654    -4.5761    -0.5939 C.ar    
   7 C7             0.1480    -5.3171     0.0213 C.ar    
   8 C8             1.1803    -4.6623     0.6996 C.ar    
   9 C9             1.2028    -3.2979     0.7565 C.ar    
  10 C10            0.1278    -6.7918    -0.0450 C.2     
  11 O11           -0.9308    -7.3880     0.0024 O.2     
  12 C12            1.2724     2.1363     1.0024 C.ar    
  13 C13            1.2851     3.5142     1.0593 C.ar    
  14 C14            0.2810     4.2447     0.4484 C.ar    
  15 C15           -0.7428     3.5997    -0.2231 C.ar    
  16 C16           -0.7658     2.2226    -0.2934 C.ar    
  17 N17            1.2827    -7.4771    -0.1581 N.am    
  18 C18            1.2986    -8.9462    -0.0895 C.3     
  19 C19            2.0655    -9.4820    -1.3032 C.3     
  20 N20            3.3897    -8.8485    -1.3603 N.3     
  21 C21            3.2780    -7.3970    -1.5567 C.3     
  22 C22            2.5599    -6.7761    -0.3595 C.3     
  23 C23            4.1761    -9.4262    -2.3506 C.ar    
  24 C24            4.6041   -10.7571    -2.2248 C.ar    
  25 C25            5.3941   -11.3254    -3.2274 C.ar    
  26 C26            5.7473   -10.5787    -4.3303 C.ar    
  27 C27            5.3230    -9.2651    -4.4514 C.ar    
  28 C28            4.5375    -8.6913    -3.4723 C.ar    
  29 C29            4.2338   -11.5274    -1.0758 C.1     
  30 N30            3.9400   -12.1385    -0.1644 N.1     
  31 H31           -1.6304    -2.6395    -1.0079 H       
  32 H32           -1.6629    -5.0826    -1.1171 H       
  33 H33            1.9625    -5.2354     1.1753 H       
  34 H34            2.0004    -2.7922     1.2802 H       
  35 H35            2.0566     1.5675     1.4799 H       
  36 H36            2.0805     4.0244     1.5822 H       
  37 H37            0.2962     5.3235     0.4963 H       
  38 H38           -1.5233     4.1764    -0.6971 H       
  39 H39           -1.5653     1.7205    -0.8181 H       
  40 H40            1.7951    -9.2647     0.8271 H       
  41 H41            0.2765    -9.3246    -0.1061 H       
  42 H42            2.1825   -10.5618    -1.2118 H       
  43 H43            1.5124    -9.2514    -2.2137 H       
  44 H44            4.2743    -6.9647    -1.6491 H       
  45 H45            2.7080    -7.1955    -2.4637 H       
  46 H46            2.3732    -5.7197    -0.5522 H       
  47 H47            3.1754    -6.8851     0.5335 H       
  48 H48            5.7277   -12.3487    -3.1380 H       
  49 H49            6.3582   -11.0193    -5.1042 H       
  50 H50            5.6051    -8.6880    -5.3196 H       
  51 H51            4.2110    -7.6669    -3.5741 H       
@<TRIPOS>BOND
   1    1    2 1
   2    1   12 ar
   3    1   16 ar
   4    2    3 3
   5    3    4 1
   6    4    5 ar
   7    4    9 ar
   8    5    6 ar
   9    5   31 1
  10    6    7 ar
  11    6   32 1
  12    7    8 ar
  13    7   10 1
  14    8    9 ar
  15    8   33 1
  16    9   34 1
  17   10   11 2
  18   10   17 am
  19   12   13 ar
  20   12   35 1
  21   13   14 ar
  22   13   36 1
  23   14   15 ar
  24   14   37 1
  25   15   16 ar
  26   15   38 1
  27   16   39 1
  28   17   18 1
  29   17   22 1
  30   18   19 1
  31   18   40 1
  32   18   41 1
  33   19   20 1
  34   19   42 1
  35   19   43 1
  36   20   21 1
  37   20   23 1
  38   21   22 1
  39   21   44 1
  40   21   45 1
  41   22   46 1
  42   22   47 1
  43   23   24 ar
  44   23   28 ar
  45   24   25 ar
  46   24   29 1
  47   25   26 ar
  48   25   48 1
  49   26   27 ar
  50   26   49 1
  51   27   28 ar
  52   27   50 1
  53   28   51 1
  54   29   30 3

#	End of record

