#	Name: ASD00840427
#	Creating user name:	WinNT
#	Creation time:	15. 06. 2019 18:38

#	Modifying user name:	WinNT
#	Modification time:	15. 06. 2019 18:38

#	Program:	/corina/corina34_cracker 3.40 0067  02.08.2006

@<TRIPOS>MOLECULE
ASD00840427
  88   93    0    0    0
SMALL
NO_CHARGES


@<TRIPOS>ATOM
   1 F1            -0.1037    -3.1536     4.7171 F       
   2 N2            -0.0143     1.3152     0.0260 N.ar    
   3 C3             0.0027    -0.0071     0.0114 C.ar    
   4 C4             1.2071    -0.6994    -0.0063 C.ar    
   5 C5             2.3932     0.0133    -0.0087 C.ar    
   6 C6             2.3324     1.4001     0.0069 C.ar    
   7 C7             1.1001     2.0220     0.0242 C.ar    
   8 C8             1.2215    -2.2062    -0.0224 C.3     
   9 C9             0.4763    -2.7307    -1.2310 C.2     
  10 N10            2.5990    -2.7050    -0.0126 N.am    
  11 C11            3.4464    -2.3633    -1.0034 C.2     
  12 N12            4.7400    -2.7368    -0.9424 N.am    
  13 O13            3.0440    -1.7182    -1.9521 O.2     
  14 C14            5.2678    -3.4156     0.2489 C.3     
  15 C15            6.4986    -2.6515     0.7470 C.3     
  16 C16            7.5064    -2.5146    -0.3967 C.3     
  17 C17            6.8755    -1.7199    -1.5424 C.3     
  18 C18            5.6476    -2.4785    -2.0686 C.3     
  19 C19            8.7519    -1.7821     0.1064 C.3     
  20 C20            9.3853    -2.5768     1.2517 C.3     
  21 C21           10.6636    -1.8712     1.7099 C.3     
  22 N22           11.5999    -1.7715     0.5830 N.3     
  23 C23           11.0318    -0.9725    -0.5103 C.3     
  24 C24            9.7644    -1.6513    -1.0347 C.3     
  25 H25           12.4872    -1.3957     0.8823 H       
  26 O26            0.7579    -2.5296    -2.3935 O.2     
  27 N27           -0.5550    -3.4610    -0.7751 N.am    
  28 C28            0.4480    -2.7558     1.1548 C.ar    
  29 C29           -0.6014    -3.4968     0.6207 C.ar    
  30 C30            0.6155    -2.6397     2.5171 C.ar    
  31 C31           -0.2667    -3.2654     3.3806 C.ar    
  32 C32           -1.3276    -4.0146     2.8616 C.ar    
  33 C33           -1.4912    -4.1284     1.4814 C.ar    
  34 C34           -1.0174    -5.8476    -2.0654 C.ar    
  35 C35            0.1614    -6.0093    -2.7783 C.ar    
  36 C36           -1.6956    -6.9552    -1.5939 C.ar    
  37 C37           -1.2000    -8.2236    -1.8318 C.ar    
  38 C38           -0.0250    -8.3874    -2.5423 C.ar    
  39 C39            0.6565    -7.2835    -3.0161 C.ar    
  40 H40            0.3601    -9.3794    -2.7268 H       
  41 O41            0.8302    -4.9215    -3.2435 O.3     
  42 C42            2.0370    -5.1633    -3.9695 C.3     
  43 C43            2.6436    -3.8294    -4.4093 C.3     
  44 C44           -2.2452    -4.6655     3.7475 C.1     
  45 N45           -2.9732    -5.1819     4.4503 N.1     
  46 O46           -1.1672    -0.6942     0.0144 O.3     
  47 C47           -3.5777    -0.8659     0.0339 C.3     
  48 C48           -2.3713     0.0751     0.0334 C.3     
  49 S49           -1.6456    -4.2309    -1.7550 S.o2    
  50 O50           -2.8274    -4.4007    -0.9845 O.2     
  51 O51           -1.6209    -3.5451    -2.9994 O.2     
  52 H52            3.3446    -0.4978    -0.0220 H       
  53 H53            3.2396     1.9862     0.0060 H       
  54 H54            1.0473     3.1006     0.0360 H       
  55 H55            2.9011    -3.2811     0.7069 H       
  56 H56            4.5064    -3.4299     1.0288 H       
  57 H57            5.5506    -4.4366    -0.0074 H       
  58 H58            6.1984    -1.6606     1.0879 H       
  59 H59            6.9565    -3.1973     1.5719 H       
  60 H60            7.7874    -3.5054    -0.7536 H       
  61 H61            6.5717    -0.7378    -1.1799 H       
  62 H62            7.6015    -1.6027    -2.3468 H       
  63 H63            5.9639    -3.4218    -2.5137 H       
  64 H64            5.1365    -1.8723    -2.8166 H       
  65 H65            8.4724    -0.7904     0.4621 H       
  66 H66            8.6843    -2.6368     2.0843 H       
  67 H67            9.6280    -3.5818     0.9066 H       
  68 H68           10.4183    -0.8713     2.0677 H       
  69 H69           11.1248    -2.4422     2.5157 H       
  70 H70           10.7847     0.0232    -0.1420 H       
  71 H71           11.7603    -0.8907    -1.3169 H       
  72 H72           10.0132    -2.6417    -1.4158 H       
  73 H73            9.3344    -1.0499    -1.8357 H       
  74 H74            1.4366    -2.0598     2.9119 H       
  75 H75           -2.3106    -4.7071     1.0810 H       
  76 H76           -2.6135    -6.8299    -1.0388 H       
  77 H77           -1.7313    -9.0881    -1.4618 H       
  78 H78            1.5738    -7.4119    -3.5716 H       
  79 H79            2.7453    -5.6916    -3.3312 H       
  80 H80            1.8172    -5.7698    -4.8481 H       
  81 H81            3.5642    -4.0138    -4.9631 H       
  82 H82            1.9354    -3.3010    -5.0476 H       
  83 H83            2.8635    -3.2229    -3.5307 H       
  84 H84           -4.4962    -0.2791     0.0485 H       
  85 H85           -3.5562    -1.4848    -0.8631 H       
  86 H86           -3.5403    -1.5041     0.9167 H       
  87 H87           -2.3929     0.6940     0.9304 H       
  88 H88           -2.4087     0.7134    -0.8493 H       
@<TRIPOS>BOND
   1    1   31 1
   2    2    3 ar
   3    2    7 ar
   4    3    4 ar
   5    3   46 1
   6    4    5 ar
   7    4    8 1
   8    5    6 ar
   9    5   52 1
  10    6    7 ar
  11    6   53 1
  12    7   54 1
  13    8    9 1
  14    8   10 1
  15    8   28 1
  16    9   26 2
  17    9   27 am
  18   10   11 am
  19   10   55 1
  20   11   12 am
  21   11   13 2
  22   12   14 1
  23   12   18 1
  24   14   15 1
  25   14   56 1
  26   14   57 1
  27   15   16 1
  28   15   58 1
  29   15   59 1
  30   16   17 1
  31   16   19 1
  32   16   60 1
  33   17   18 1
  34   17   61 1
  35   17   62 1
  36   18   63 1
  37   18   64 1
  38   19   20 1
  39   19   24 1
  40   19   65 1
  41   20   21 1
  42   20   66 1
  43   20   67 1
  44   21   22 1
  45   21   68 1
  46   21   69 1
  47   22   23 1
  48   22   25 1
  49   23   24 1
  50   23   70 1
  51   23   71 1
  52   24   72 1
  53   24   73 1
  54   27   49 am
  55   27   29 1
  56   28   29 ar
  57   28   30 ar
  58   29   33 ar
  59   30   31 ar
  60   30   74 1
  61   31   32 ar
  62   32   33 ar
  63   32   44 1
  64   33   75 1
  65   34   35 ar
  66   34   36 ar
  67   34   49 1
  68   35   41 1
  69   35   39 ar
  70   36   37 ar
  71   36   76 1
  72   37   38 ar
  73   37   77 1
  74   38   39 ar
  75   38   40 1
  76   39   78 1
  77   41   42 1
  78   42   43 1
  79   42   79 1
  80   42   80 1
  81   43   81 1
  82   43   82 1
  83   43   83 1
  84   44   45 3
  85   46   48 1
  86   47   48 1
  87   47   84 1
  88   47   85 1
  89   47   86 1
  90   48   87 1
  91   48   88 1
  92   49   50 2
  93   49   51 2

#	End of record

