#	Name: ASD01811518
#	Creating user name:	WinNT
#	Creation time:	15. 06. 2019 19:26

#	Modifying user name:	WinNT
#	Modification time:	15. 06. 2019 19:26

#	Program:	/corina/corina34_cracker 3.40 0067  02.08.2006

@<TRIPOS>MOLECULE
ASD01811518
  27   28    0    0    0
SMALL
NO_CHARGES


@<TRIPOS>ATOM
   1 C1            -0.0180     1.4732     0.0101 C.2     
   2 C2             0.0021    -0.0041     0.0020 C.ar    
   3 C3             1.2185    -0.6877    -0.0133 C.ar    
   4 C4             1.2289    -2.0739    -0.0209 C.ar    
   5 C5             0.0302    -2.7781    -0.0132 C.ar    
   6 C6            -1.1746    -2.1009     0.0019 C.ar    
   7 C7            -1.1960    -0.7210     0.0154 C.ar    
   8 O8             1.0256     2.0948     0.0035 O.2     
   9 O9            -1.1936     2.1308     0.0193 O.3     
  10 C10            0.0445    -4.2850    -0.0220 C.3     
  11 C11           -0.6423    -4.9147     1.2014 C.3     
  12 C12           -1.2255    -5.9610     0.2370 C.3     
  13 C13           -1.0758    -4.9067    -0.8725 C.3     
  14 N14            2.4440    -2.7633    -0.0366 N.pl3   
  15 H15            2.1486    -0.1388    -0.0195 H       
  16 H16           -2.1024    -2.6536     0.0074 H       
  17 H17           -2.1395    -0.1957     0.0317 H       
  18 H18           -1.1561     3.0971     0.0244 H       
  19 H19            1.0318    -4.6977    -0.2290 H       
  20 H20            0.0557    -5.3313     1.9276 H       
  21 H21           -1.3962    -4.2729     1.6573 H       
  22 H22           -0.5860    -6.8329     0.1000 H       
  23 H23           -2.2611    -6.2241     0.4525 H       
  24 H24           -1.9483    -4.2628    -0.9835 H       
  25 H25           -0.7279    -5.3169    -1.8205 H       
  26 H26            3.2804    -2.2720    -0.0423 H       
  27 H27            2.4513    -3.7332    -0.0419 H       
@<TRIPOS>BOND
   1    1    2 1
   2    1    8 2
   3    1    9 1
   4    2    3 ar
   5    2    7 ar
   6    3    4 ar
   7    3   15 1
   8    4    5 ar
   9    4   14 1
  10    5    6 ar
  11    5   10 1
  12    6    7 ar
  13    6   16 1
  14    7   17 1
  15    9   18 1
  16   10   11 1
  17   10   13 1
  18   10   19 1
  19   11   12 1
  20   11   20 1
  21   11   21 1
  22   12   13 1
  23   12   22 1
  24   12   23 1
  25   13   24 1
  26   13   25 1
  27   14   26 1
  28   14   27 1

#	End of record

