#	Name: ASD01230129
#	Creating user name:	WinNT
#	Creation time:	15. 06. 2019 19:11

#	Modifying user name:	WinNT
#	Modification time:	15. 06. 2019 19:11

#	Program:	/corina/corina34_cracker 3.40 0067  02.08.2006

@<TRIPOS>MOLECULE
ASD01230129
  60   63    0    0    0
SMALL
NO_CHARGES


@<TRIPOS>ATOM
   1 C1            -3.8885     4.4580    -2.1200 C.2     
   2 C2            -3.7142     3.1163    -2.7837 C.3     
   3 O3            -3.1685     5.3799    -2.4227 O.2     
   4 O4            -4.8472     4.6304    -1.1964 O.3     
   5 O5            -6.3584     6.9883     1.0041 O.3     
   6 C6            -5.4898     5.8451     0.8476 C.3     
   7 C7            -4.9572     5.9491    -0.5987 C.3     
   8 C8            -6.0264     6.7887    -1.3330 C.3     
   9 C9            -7.0785     7.0927    -0.2435 C.3     
  10 C10           -4.3335     5.9139     1.8472 C.3     
  11 O11           -4.8427     5.7733     3.1750 O.3     
  12 P12           -3.9027     5.7983     4.4818 P.3     
  13 O13           -3.0138     6.9804     4.4275 O.2     
  14 O14           -4.8209     5.8775     5.8019 O.3     
  15 C15           -4.1484     6.2543     6.9212 C.ar    
  16 C16           -3.6789     7.5538     7.0454 C.ar    
  17 C17           -2.9955     7.9342     8.1841 C.ar    
  18 C18           -2.7794     7.0211     9.1996 C.ar    
  19 C19           -3.2460     5.7252     9.0781 C.ar    
  20 C20           -3.9353     5.3415     7.9440 C.ar    
  21 N21           -2.9710     4.3976     4.5297 N.3     
  22 O22           -0.1940     3.0884     5.8557 O.3     
  23 C23           -0.6913     4.2514     5.4113 C.2     
  24 C24           -2.1622     4.3449     5.7548 C.3     
  25 C25           -2.4665     3.0526     6.5449 C.3     
  26 C26           -1.0497     2.5520     6.9076 C.3     
  27 O27           -0.0597     5.0983     4.8250 O.2     
  28 F28           -5.4683     7.9754    -1.8202 F       
  29 F29           -6.5987     6.0509    -2.3748 F       
  30 C30           -6.7886     9.5070    -0.3162 C.2     
  31 N31           -7.2465    10.7487    -0.4663 N.2     
  32 C32           -8.5302    10.9717    -0.7158 C.2     
  33 C33           -9.4188     9.8822    -0.8232 C.2     
  34 C34           -8.9381     8.6259    -0.6681 C.2     
  35 N35           -7.6115     8.4467    -0.4129 N.am    
  36 O36           -5.6030     9.3277    -0.0923 O.2     
  37 N37           -8.9918    12.2585    -0.8685 N.pl3   
  38 H38           -3.0087     2.5158    -2.2096 H       
  39 H39           -4.6757     2.6047    -2.8271 H       
  40 H40           -3.3322     3.2580    -3.7947 H       
  41 H41           -6.0520     4.9206     0.9795 H       
  42 H42           -3.9938     6.4586    -0.6153 H       
  43 H43           -7.8843     6.3595    -0.2790 H       
  44 H44           -3.6273     5.1095     1.6418 H       
  45 H45           -3.8276     6.8747     1.7519 H       
  46 H46           -3.8471     8.2673     6.2523 H       
  47 H47           -2.6295     8.9457     8.2810 H       
  48 H48           -2.2450     7.3205    10.0891 H       
  49 H49           -3.0753     5.0136     9.8724 H       
  50 H50           -4.3038     4.3305     7.8517 H       
  51 H51           -3.5494     3.5754     4.4427 H       
  52 H52           -2.3522     5.2217     6.3739 H       
  53 H53           -3.0421     3.2735     7.4437 H       
  54 H54           -2.9858     2.3276     5.9183 H       
  55 H55           -1.0188     1.4624     6.9049 H       
  56 H56           -0.7463     2.9399     7.8800 H       
  57 H57          -10.4667    10.0472    -1.0256 H       
  58 H58           -9.5988     7.7751    -0.7454 H       
  59 H59           -8.3781    13.0060    -0.7938 H       
  60 H60           -9.9310    12.4184    -1.0509 H       
@<TRIPOS>BOND
   1    1    2 1
   2    1    3 2
   3    1    4 1
   4    2   38 1
   5    2   39 1
   6    2   40 1
   7    4    7 1
   8    5    6 1
   9    5    9 1
  10    6    7 1
  11    6   10 1
  12    6   41 1
  13    7    8 1
  14    7   42 1
  15    8    9 1
  16    8   28 1
  17    8   29 1
  18    9   35 1
  19    9   43 1
  20   10   11 1
  21   10   44 1
  22   10   45 1
  23   11   12 1
  24   12   13 2
  25   12   14 1
  26   12   21 1
  27   14   15 1
  28   15   16 ar
  29   15   20 ar
  30   16   17 ar
  31   16   46 1
  32   17   18 ar
  33   17   47 1
  34   18   19 ar
  35   18   48 1
  36   19   20 ar
  37   19   49 1
  38   20   50 1
  39   21   24 1
  40   21   51 1
  41   22   23 1
  42   22   26 1
  43   23   24 1
  44   23   27 2
  45   24   25 1
  46   24   52 1
  47   25   26 1
  48   25   53 1
  49   25   54 1
  50   26   55 1
  51   26   56 1
  52   30   31 1
  53   30   35 am
  54   30   36 2
  55   31   32 2
  56   32   33 1
  57   32   37 1
  58   33   34 2
  59   33   57 1
  60   34   35 1
  61   34   58 1
  62   37   59 1
  63   37   60 1

#	End of record

