#	Name: ASD07931710
#	Creating user name:	WinNT
#	Creation time:	15. 06. 2019 21:13

#	Modifying user name:	WinNT
#	Modification time:	15. 06. 2019 21:13

#	Program:	/corina/corina34_cracker 3.40 0067  02.08.2006

@<TRIPOS>MOLECULE
ASD07931710
  57   62    0    0    0
SMALL
NO_CHARGES


@<TRIPOS>ATOM
   1 C1             0.1661     3.9332    -0.5612 C.2     
   2 C2            -0.3193     2.6804    -0.3040 C.2     
   3 C3             0.6293     1.5949    -0.0433 C.2     
   4 N4             1.9481     1.8550    -0.0612 N.am    
   5 C5             2.4120     3.1239    -0.3246 C.2     
   6 C6             1.5499     4.1481    -0.5696 C.2     
   7 C7             2.9263     0.7910     0.2021 C.3     
   8 C8             4.1018     0.9742    -0.7694 C.3     
   9 N9             4.6960     2.2985    -0.5383 N.am    
  10 C10            3.8733     3.3558    -0.3380 C.2     
  11 C11            6.1507     2.4718    -0.5249 C.3     
  12 O12            0.2268     0.4674     0.1878 O.2     
  13 N13           -1.6962     2.4404    -0.2898 N.pl3   
  14 C14           -2.5520     2.5380    -1.3569 C.2     
  15 C15           -2.4391     2.0603     0.7829 C.2     
  16 N16           -3.6819     1.9358     0.4044 N.2     
  17 C17           -3.7796     2.2227    -0.9024 C.2     
  18 C18           -5.0449     2.1965    -1.7206 C.3     
  19 O19            4.3262     4.4720    -0.1730 O.2     
  20 C20            6.8646     1.6058     0.5264 C.3     
  21 C21            7.9568     1.3642    -0.5288 C.3     
  22 C22            6.8801     1.6387    -1.5920 C.3     
  23 O23            7.3194     2.3435     1.6626 O.3     
  24 C24            7.5706     1.6380     2.7955 C.ar    
  25 C25            7.8956     2.3089     3.9919 C.ar    
  26 C26            8.1540     1.5537     5.1627 C.ar    
  27 C27            8.0818     0.1514     5.1087 C.ar    
  28 C28            7.7655    -0.4646     3.9361 C.ar    
  29 C29            7.5044     0.2730     2.7850 C.ar    
  30 C30            7.9686     3.7102     4.0456 C.ar    
  31 C31            8.2859     4.3238     5.2187 C.ar    
  32 C32            8.5405     3.5817     6.3704 C.ar    
  33 C33            8.4780     2.2222     6.3559 C.ar    
  34 H34           -0.5125     4.7494    -0.7605 H       
  35 H35            1.9366     5.1358    -0.7729 H       
  36 H36            3.2828     0.8645     1.2296 H       
  37 H37            2.4637    -0.1827     0.0410 H       
  38 H38            4.8491     0.2012    -0.5899 H       
  39 H39            3.7420     0.9083    -1.7961 H       
  40 H40            6.4520     3.5192    -0.5054 H       
  41 H41           -2.2913     2.8147    -2.3678 H       
  42 H42           -2.0639     1.8897     1.7812 H       
  43 H43           -5.5189     3.1775    -1.6881 H       
  44 H44           -4.8047     1.9430    -2.7532 H       
  45 H45           -5.7262     1.4500    -1.3123 H       
  46 H46            6.3131     0.7056     0.7980 H       
  47 H47            8.7530     2.1085    -0.5114 H       
  48 H48            8.3326     0.3411    -0.5420 H       
  49 H49            6.3330     0.7476    -1.8995 H       
  50 H50            7.2397     2.2280    -2.4355 H       
  51 H51            8.2769    -0.4357     5.9939 H       
  52 H52            7.7114    -1.5427     3.9001 H       
  53 H53            7.2558    -0.2409     1.8682 H       
  54 H54            7.7745     4.2981     3.1607 H       
  55 H55            8.3414     5.4017     5.2572 H       
  56 H56            8.7907     4.0929     7.2882 H       
  57 H57            8.6782     1.6599     7.2560 H       
@<TRIPOS>BOND
   1    1    2 2
   2    1    6 1
   3    1   34 1
   4    2    3 1
   5    2   13 1
   6    3    4 am
   7    3   12 2
   8    4    5 1
   9    4    7 1
  10    5    6 2
  11    5   10 1
  12    6   35 1
  13    7    8 1
  14    7   36 1
  15    7   37 1
  16    8    9 1
  17    8   38 1
  18    8   39 1
  19    9   10 am
  20    9   11 1
  21   10   19 2
  22   11   20 1
  23   11   22 1
  24   11   40 1
  25   13   14 1
  26   13   15 1
  27   14   17 2
  28   14   41 1
  29   15   16 2
  30   15   42 1
  31   16   17 1
  32   17   18 1
  33   18   43 1
  34   18   44 1
  35   18   45 1
  36   20   21 1
  37   20   23 1
  38   20   46 1
  39   21   22 1
  40   21   47 1
  41   21   48 1
  42   22   49 1
  43   22   50 1
  44   23   24 1
  45   24   25 ar
  46   24   29 ar
  47   25   26 ar
  48   25   30 ar
  49   26   27 ar
  50   26   33 ar
  51   27   28 ar
  52   27   51 1
  53   28   29 ar
  54   28   52 1
  55   29   53 1
  56   30   31 ar
  57   30   54 1
  58   31   32 ar
  59   31   55 1
  60   32   33 ar
  61   32   56 1
  62   33   57 1

#	End of record

