#	Name: ASD01814053
#	Creating user name:	WinNT
#	Creation time:	15. 06. 2019 19:31

#	Modifying user name:	WinNT
#	Modification time:	15. 06. 2019 19:31

#	Program:	/corina/corina34_cracker 3.40 0067  02.08.2006

@<TRIPOS>MOLECULE
ASD01814053
  41   44    0    0    0
SMALL
NO_CHARGES


@<TRIPOS>ATOM
   1 C1             7.3400     1.2110    -0.2192 C.ar    
   2 C2             7.2565    -0.1729    -0.2202 C.ar    
   3 C3             6.0316    -0.8058    -0.1601 C.ar    
   4 C4             4.8606    -0.0528    -0.0970 C.ar    
   5 C5             4.9468     1.3499    -0.0955 C.ar    
   6 C6             6.1935     1.9774    -0.1573 C.ar    
   7 N7             3.6308    -0.6740    -0.0371 N.pl3   
   8 C8             2.4780     0.0043     0.0244 C.2     
   9 C9             2.4360     1.3839     0.0318 C.2     
  10 C10            3.7011     2.1343    -0.0284 C.2     
  11 F11            6.2766     3.3259    -0.1555 F       
  12 O12            3.7175     3.3529    -0.0242 O.2     
  13 C13            1.1499     2.0919     0.0987 C.2     
  14 O14            1.1220     3.4396     0.1054 O.3     
  15 O15            0.1113     1.4621     0.1481 O.2     
  16 C16            3.5837    -2.1382    -0.0413 C.3     
  17 C17            3.4395    -2.6321    -1.4578 C.ar    
  18 C18            4.5597    -2.7763    -2.2556 C.ar    
  19 C19            4.4307    -3.2292    -3.5541 C.ar    
  20 C20            3.1750    -3.5396    -4.0580 C.ar    
  21 C21            2.0523    -3.3938    -3.2547 C.ar    
  22 C22            2.1880    -2.9455    -1.9552 C.ar    
  23 N23            3.0409    -3.9992    -5.3761 N.pl3   
  24 F24            5.9677    -2.1553    -0.1629 F       
  25 C25            1.8717    -4.3420    -6.0047 C.2     
  26 C26            2.1983    -4.7258    -7.2534 C.2     
  27 N27            3.5287    -4.6221    -7.3889 N.2     
  28 C28            4.0442    -4.1832    -6.2731 C.2     
  29 H29            8.3063     1.6914    -0.2625 H       
  30 H30            8.1602    -0.7623    -0.2689 H       
  31 H31            1.5500    -0.5464     0.0692 H       
  32 H32            0.2525     3.8605     0.1504 H       
  33 H33            4.5042    -2.5326     0.3891 H       
  34 H34            2.7324    -2.4760     0.5497 H       
  35 H35            5.5363    -2.5343    -1.8631 H       
  36 H36            5.3059    -3.3413    -4.1769 H       
  37 H37            1.0741    -3.6342    -3.6441 H       
  38 H38            1.3150    -2.8322    -1.3297 H       
  39 H39            0.8793    -4.3107    -5.5798 H       
  40 H40            1.5083    -5.0599    -8.0141 H       
  41 H41            5.0934    -4.0029    -6.0913 H       
@<TRIPOS>BOND
   1    1    2 ar
   2    1    6 ar
   3    1   29 1
   4    2    3 ar
   5    2   30 1
   6    3    4 ar
   7    3   24 1
   8    4    5 ar
   9    4    7 1
  10    5    6 ar
  11    5   10 1
  12    6   11 1
  13    7    8 1
  14    7   16 1
  15    8    9 2
  16    8   31 1
  17    9   10 1
  18    9   13 1
  19   10   12 2
  20   13   14 1
  21   13   15 2
  22   14   32 1
  23   16   17 1
  24   16   33 1
  25   16   34 1
  26   17   18 ar
  27   17   22 ar
  28   18   19 ar
  29   18   35 1
  30   19   20 ar
  31   19   36 1
  32   20   21 ar
  33   20   23 1
  34   21   22 ar
  35   21   37 1
  36   22   38 1
  37   23   25 1
  38   23   28 1
  39   25   26 2
  40   25   39 1
  41   26   27 1
  42   26   40 1
  43   27   28 2
  44   28   41 1

#	End of record

