#	Name: ASD02198380
#	Creating user name:	WinNT
#	Creation time:	15. 06. 2019 20:19

#	Modifying user name:	WinNT
#	Modification time:	15. 06. 2019 20:19

#	Program:	/corina/corina34_cracker 3.40 0067  02.08.2006

@<TRIPOS>MOLECULE
ASD02198380
  32   34    0    0    0
SMALL
NO_CHARGES


@<TRIPOS>ATOM
   1 C1             1.3317     4.3768     3.9005 C.2     
   2 C2             0.6151     3.3330     4.3202 C.2     
   3 C3             2.1452     4.1249     2.8092 C.2     
   4 C4             2.0891     2.8765     2.3426 C.2     
   5 S5             0.9582     1.9365     3.3075 S.3     
   6 S6             3.0067     2.2633     0.9691 S.o2    
   7 N7             4.4930     1.8051     1.5378 N.am    
   8 C8             4.5933     0.7873     2.4854 C.ar    
   9 C9             4.1266    -0.5118     2.1866 C.ar    
  10 C10            4.2417    -1.5264     3.1679 C.ar    
  11 C11            4.8137    -1.2279     4.4150 C.ar    
  12 C12            5.2548     0.0341     4.6754 C.ar    
  13 C13            5.1539     1.0396     3.7188 C.ar    
  14 N14            3.5822    -0.7922     0.9997 N.ar    
  15 C15            3.1469    -1.9958     0.7165 C.ar    
  16 C16            3.2292    -3.0397     1.6358 C.ar    
  17 C17            3.7759    -2.8210     2.8679 C.ar    
  18 O18            2.3535     1.0733     0.5492 O.2     
  19 O19            3.2306     3.3720     0.1089 O.2     
  20 C20            5.6524     2.4250     4.0400 C.3     
  21 H21            1.2780     5.3462     4.3735 H       
  22 H22           -0.0707     3.3436     5.1544 H       
  23 H23            2.7771     4.8819     2.3686 H       
  24 H24            5.2937     2.2448     1.2117 H       
  25 H25            4.9034    -1.9980     5.1669 H       
  26 H26            5.6933     0.2566     5.6370 H       
  27 H27            2.7128    -2.1832    -0.2545 H       
  28 H28            2.8613    -4.0208     1.3740 H       
  29 H29            3.8479    -3.6185     3.5926 H       
  30 H30            6.7015     2.5085     3.7562 H       
  31 H31            5.0668     3.1593     3.4868 H       
  32 H32            5.5495     2.6093     5.1094 H       
@<TRIPOS>BOND
   1    1    2 2
   2    1    3 1
   3    1   21 1
   4    2    5 1
   5    2   22 1
   6    3    4 2
   7    3   23 1
   8    4    5 1
   9    4    6 1
  10    6    7 am
  11    6   18 2
  12    6   19 2
  13    7    8 1
  14    7   24 1
  15    8    9 ar
  16    8   13 ar
  17    9   10 ar
  18    9   14 ar
  19   10   11 ar
  20   10   17 ar
  21   11   12 ar
  22   11   25 1
  23   12   13 ar
  24   12   26 1
  25   13   20 1
  26   14   15 ar
  27   15   16 ar
  28   15   27 1
  29   16   17 ar
  30   16   28 1
  31   17   29 1
  32   20   30 1
  33   20   31 1
  34   20   32 1

#	End of record

