#	Name: ASD00450045
#	Creating user name:	WinNT
#	Creation time:	15. 06. 2019 18:36

#	Modifying user name:	WinNT
#	Modification time:	15. 06. 2019 18:36

#	Program:	/corina/corina34_cracker 3.40 0067  02.08.2006

@<TRIPOS>MOLECULE
ASD00450045
  56   59    0    0    0
SMALL
NO_CHARGES


@<TRIPOS>ATOM
   1 C1            -1.5552     1.0126    -2.1809 C.ar    
   2 C2            -1.5600    -0.2938    -1.6681 C.ar    
   3 C3            -2.0249    -0.5276    -0.3853 C.ar    
   4 C4            -2.4849     0.5226     0.3932 C.ar    
   5 C5            -2.4855     1.8156    -0.1019 C.ar    
   6 C6            -2.0236     2.0717    -1.3842 C.ar    
   7 C7            -1.0579     1.2725    -3.5398 C.2     
   8 O8            -1.8226     1.2332    -4.4852 O.2     
   9 N9             0.2450     1.5543    -3.7382 N.am    
  10 N10           -2.0239     3.3698    -1.8794 N.pl3   
  11 C11           -2.9625     4.2963    -1.4126 C.ar    
  12 C12           -2.7291     5.6595    -1.5601 C.ar    
  13 C13           -4.1317     3.8570    -0.8062 C.ar    
  14 C14           -5.0570     4.7740    -0.3466 C.ar    
  15 C15           -4.8206     6.1294    -0.4896 C.ar    
  16 C16           -3.6596     6.5720    -1.0978 C.ar    
  17 F17           -2.9364     0.2829     1.6437 F       
  18 F18           -1.5950     6.0914    -2.1538 F       
  19 I19           -6.2281     7.5151     0.2089 I       
  20 O20           -1.1109    -1.3243    -2.4273 O.3     
  21 C21           -1.2492    -2.5845    -1.9384 C.ar    
  22 C22           -2.4187    -3.2930    -2.1672 C.ar    
  23 C23           -2.5566    -4.5799    -1.6663 C.ar    
  24 C24           -0.2174    -3.1655    -1.2143 C.ar    
  25 C25           -0.3562    -4.4473    -0.7166 C.ar    
  26 N26           -3.7330    -5.2971    -1.8951 N.am    
  27 C27           -1.5222    -5.1542    -0.9371 C.ar    
  28 S28           -3.7505    -6.5274    -3.0035 S.o2    
  29 N29           -3.3288    -5.8754    -4.4662 N.am    
  30 O30           -2.6983    -7.4104    -2.6394 O.2     
  31 O31           -5.1049    -6.9400    -3.1236 O.2     
  32 C32           -2.0632    -5.1499    -6.4059 C.3     
  33 C33           -3.3184    -4.2567    -6.2331 C.3     
  34 C34           -4.2392    -5.1718    -5.3878 C.3     
  35 C35           -1.9831    -5.8970    -5.0579 C.3     
  36 H36           -2.0295    -1.5325     0.0103 H       
  37 H37           -2.8467     2.6272     0.5124 H       
  38 H38            0.8547     1.5856    -2.9844 H       
  39 H39            0.5731     1.7258    -4.6348 H       
  40 H40           -1.3734     3.6337    -2.5487 H       
  41 H41           -4.3178     2.7991    -0.6941 H       
  42 H42           -5.9666     4.4321     0.1248 H       
  43 H43           -3.4798     7.6308    -1.2116 H       
  44 H44           -3.2211    -2.8441    -2.7339 H       
  45 H45            0.6954    -2.6152    -1.0398 H       
  46 H46            0.4484    -4.8971    -0.1538 H       
  47 H47           -4.5398    -5.0745    -1.4048 H       
  48 H48           -1.6282    -6.1556    -0.5468 H       
  49 H49           -2.1995    -5.8515    -7.2289 H       
  50 H50           -1.1738    -4.5393    -6.5614 H       
  51 H51           -3.0753    -3.3414    -5.6935 H       
  52 H52           -3.7730    -4.0308    -7.1977 H       
  53 H53           -4.7564    -5.8857    -6.0288 H       
  54 H54           -4.9579    -4.5735    -4.8278 H       
  55 H55           -1.2789    -5.3928    -4.3960 H       
  56 H56           -1.6672    -6.9270    -5.2231 H       
@<TRIPOS>BOND
   1    1    2 ar
   2    1    6 ar
   3    1    7 1
   4    2    3 ar
   5    2   20 1
   6    3    4 ar
   7    3   36 1
   8    4    5 ar
   9    4   17 1
  10    5    6 ar
  11    5   37 1
  12    6   10 1
  13    7    8 2
  14    7    9 am
  15    9   38 1
  16    9   39 1
  17   10   11 1
  18   10   40 1
  19   11   13 ar
  20   11   12 ar
  21   12   16 ar
  22   12   18 1
  23   13   14 ar
  24   13   41 1
  25   14   15 ar
  26   14   42 1
  27   15   16 ar
  28   15   19 1
  29   16   43 1
  30   20   21 1
  31   21   22 ar
  32   21   24 ar
  33   22   23 ar
  34   22   44 1
  35   23   27 ar
  36   23   26 1
  37   24   25 ar
  38   24   45 1
  39   25   27 ar
  40   25   46 1
  41   26   28 am
  42   26   47 1
  43   27   48 1
  44   28   29 am
  45   28   30 2
  46   28   31 2
  47   29   35 1
  48   29   34 1
  49   32   33 1
  50   32   35 1
  51   32   49 1
  52   32   50 1
  53   33   34 1
  54   33   51 1
  55   33   52 1
  56   34   53 1
  57   34   54 1
  58   35   55 1
  59   35   56 1

#	End of record

