#	Name: ASD03331329
#	Creating user name:	WinNT
#	Creation time:	15. 06. 2019 20:39

#	Modifying user name:	WinNT
#	Modification time:	15. 06. 2019 20:39

#	Program:	/corina/corina34_cracker 3.40 0067  02.08.2006

@<TRIPOS>MOLECULE
ASD03331329
  61   64    0    0    0
SMALL
NO_CHARGES


@<TRIPOS>ATOM
   1 N1             0.0252     1.2689    -0.2444 N.2     
   2 N2             0.0091    -0.1327    -0.1642 N.am    
   3 C3             1.2923    -0.5625    -0.1667 C.2     
   4 C4             2.0975     0.5256    -0.2438 C.2     
   5 C5             1.2813     1.6654    -0.2926 C.2     
   6 C6             3.6029     0.4369    -0.2660 C.3     
   7 C7             1.8249    -1.9728    -0.1013 C.3     
   8 C8             3.2986    -1.9361    -0.5323 C.3     
   9 O9             3.9749    -0.8817     0.1579 O.3     
  10 C10           -1.0889    -0.9114    -0.0962 C.2     
  11 O11           -0.9739    -2.1191    -0.0293 O.2     
  12 N12           -2.3143    -0.3505    -0.1023 N.am    
  13 C13           -4.6760    -0.4732    -0.6467 C.2     
  14 C14           -3.5078    -1.1970    -0.0284 C.3     
  15 C15           -3.8199    -1.5117     1.4360 C.3     
  16 C16           -5.1683    -2.2290     1.5272 C.3     
  17 O17           -4.7597     0.7332    -0.5545 O.2     
  18 C18           -2.7235    -2.4119     2.0090 C.3     
  19 C19           -3.8801    -0.2089     2.2360 C.3     
  20 N20           -5.6279    -1.1665    -1.3022 N.am    
  21 C21           -6.8706    -0.6058    -1.8526 C.3     
  22 C22           -7.6575    -1.7716    -2.4876 C.3     
  23 C23           -7.0804    -3.0161    -1.7625 C.3     
  24 C24           -5.5925    -2.6117    -1.5917 C.3     
  25 O25           -7.4078    -1.8441    -3.8927 O.3     
  26 C26            1.7496     3.0705    -0.3825 C.ar    
  27 C27            1.0188     4.0051    -1.1137 C.ar    
  28 C28            1.4588     5.3121    -1.1947 C.ar    
  29 C29            2.6268     5.6934    -0.5492 C.ar    
  30 C30            3.3547     4.7665     0.1775 C.ar    
  31 C31            2.9181     3.4602     0.2686 C.ar    
  32 F32            3.0548     6.9722    -0.6306 F       
  33 F33            0.7519     6.2197    -1.9030 F       
  34 H34            3.9676     0.6154    -1.2775 H       
  35 H35            4.0256     1.1758     0.4147 H       
  36 H36            1.7475    -2.3500     0.9184 H       
  37 H37            1.2582    -2.6134    -0.7770 H       
  38 H38            3.7708    -2.8886    -0.2917 H       
  39 H39            3.3582    -1.7633    -1.6068 H       
  40 H40           -2.4061     0.6137    -0.1557 H       
  41 H41           -3.3283    -2.1260    -0.5695 H       
  42 H42           -5.1030    -3.1912     1.0194 H       
  43 H43           -5.4253    -2.3876     2.5746 H       
  44 H44           -5.9371    -1.6191     1.0528 H       
  45 H45           -1.7629    -1.9009     1.9440 H       
  46 H46           -2.9459    -2.6362     3.0523 H       
  47 H47           -2.6807    -3.3401     1.4391 H       
  48 H48           -4.6611     0.4324     1.8277 H       
  49 H49           -4.1024    -0.4331     3.2792 H       
  50 H50           -2.9195     0.3021     2.1709 H       
  51 H51           -7.4585    -0.1531    -1.0542 H       
  52 H52           -6.6362     0.1403    -2.6119 H       
  53 H53           -8.7245    -1.6700    -2.2892 H       
  54 H54           -7.5622    -3.1635    -0.7960 H       
  55 H55           -7.1724    -3.9074    -2.3831 H       
  56 H56           -5.0376    -2.8010    -2.5105 H       
  57 H57           -5.1455    -3.1545    -0.7588 H       
  58 H58           -7.8790    -2.5606    -4.3395 H       
  59 H59            0.1103     3.7080    -1.6165 H       
  60 H60            4.2633     5.0672     0.6780 H       
  61 H61            3.4846     2.7396     0.8398 H       
@<TRIPOS>BOND
   1    1    2 1
   2    1    5 2
   3    2    3 1
   4    2   10 am
   5    3    4 2
   6    3    7 1
   7    4    5 1
   8    4    6 1
   9    5   26 1
  10    6    9 1
  11    6   34 1
  12    6   35 1
  13    7    8 1
  14    7   36 1
  15    7   37 1
  16    8    9 1
  17    8   38 1
  18    8   39 1
  19   10   11 2
  20   10   12 am
  21   12   14 1
  22   12   40 1
  23   13   17 2
  24   13   20 am
  25   13   14 1
  26   14   15 1
  27   14   41 1
  28   15   16 1
  29   15   18 1
  30   15   19 1
  31   16   42 1
  32   16   43 1
  33   16   44 1
  34   18   45 1
  35   18   46 1
  36   18   47 1
  37   19   48 1
  38   19   49 1
  39   19   50 1
  40   20   21 1
  41   20   24 1
  42   21   22 1
  43   21   51 1
  44   21   52 1
  45   22   23 1
  46   22   25 1
  47   22   53 1
  48   23   24 1
  49   23   54 1
  50   23   55 1
  51   24   56 1
  52   24   57 1
  53   25   58 1
  54   26   27 ar
  55   26   31 ar
  56   27   28 ar
  57   27   59 1
  58   28   29 ar
  59   28   33 1
  60   29   30 ar
  61   29   32 1
  62   30   31 ar
  63   30   60 1
  64   31   61 1

#	End of record

