#	Name: ASD01880934
#	Creating user name:	WinNT
#	Creation time:	15. 06. 2019 19:41

#	Modifying user name:	WinNT
#	Modification time:	15. 06. 2019 19:41

#	Program:	/corina/corina34_cracker 3.40 0067  02.08.2006

@<TRIPOS>MOLECULE
ASD01880934
  35   37    0    0    0
SMALL
NO_CHARGES


@<TRIPOS>ATOM
   1 N1            -0.0158     1.3136     0.0093 N.ar    
   2 C2             0.0021    -0.0041     0.0020 C.ar    
   3 N3             1.1320    -0.6826    -0.0120 N.ar    
   4 C4             2.2987    -0.0578    -0.0198 C.ar    
   5 C5             2.3217     1.3274    -0.0130 C.ar    
   6 C6             1.1124     2.0071     0.0022 C.ar    
   7 C7             3.6286     2.0776    -0.0209 C.3     
   8 O8             4.7124     1.1463    -0.0354 O.3     
   9 C9             5.9677     1.6619    -0.0440 C.ar    
  10 C10            7.0687     0.8104    -0.0582 C.ar    
  11 C11            8.3381     1.3320    -0.0674 C.ar    
  12 C12            8.5345     2.7173    -0.0627 C.ar    
  13 C13            7.4249     3.5691    -0.0484 C.ar    
  14 C14            6.1521     3.0387    -0.0446 C.ar    
  15 C15            9.7112     0.7077    -0.0835 C.3     
  16 N16           10.6671     1.8210    -0.0873 N.am    
  17 C17            9.9836     2.9782    -0.0753 C.2     
  18 O18           10.4900     4.0836    -0.0752 O.2     
  19 Cl19           7.6499     5.2905    -0.0418 Cl      
  20 Br20           1.0755     3.8977     0.0121 Br      
  21 C21           12.6202     1.6547    -1.5499 C.3     
  22 C22           12.1264     1.6923    -0.1023 C.3     
  23 H23           -0.9342    -0.5424     0.0081 H       
  24 H24            3.2206    -0.6203    -0.0309 H       
  25 H25            3.6800     2.7086    -0.9082 H       
  26 H26            3.6960     2.6997     0.8716 H       
  27 H27            6.9241    -0.2598    -0.0616 H       
  28 H28            5.2954     3.6962    -0.0339 H       
  29 H29            9.8542     0.0940     0.8058 H       
  30 H30            9.8372     0.1025    -0.9813 H       
  31 H31           12.1750     0.8027    -2.0637 H       
  32 H32           12.3314     2.5758    -2.0563 H       
  33 H33           13.7059     1.5590    -1.5611 H       
  34 H34           12.5715     2.5443     0.4114 H       
  35 H35           12.4151     0.7713     0.4041 H       
@<TRIPOS>BOND
   1    1    2 ar
   2    1    6 ar
   3    2    3 ar
   4    2   23 1
   5    3    4 ar
   6    4    5 ar
   7    4   24 1
   8    5    6 ar
   9    5    7 1
  10    6   20 1
  11    7    8 1
  12    7   25 1
  13    7   26 1
  14    8    9 1
  15    9   10 ar
  16    9   14 ar
  17   10   11 ar
  18   10   27 1
  19   11   12 ar
  20   11   15 1
  21   12   13 ar
  22   12   17 1
  23   13   14 ar
  24   13   19 1
  25   14   28 1
  26   15   16 1
  27   15   29 1
  28   15   30 1
  29   16   17 am
  30   16   22 1
  31   17   18 2
  32   21   22 1
  33   21   31 1
  34   21   32 1
  35   21   33 1
  36   22   34 1
  37   22   35 1

#	End of record

