#	Name: ASD00310317
#	Creating user name:	WinNT
#	Creation time:	15. 06. 2019 18:34

#	Modifying user name:	WinNT
#	Modification time:	15. 06. 2019 18:34

#	Program:	/corina/corina34_cracker 3.40 0067  02.08.2006

@<TRIPOS>MOLECULE
ASD00310317
  36   38    0    0    0
SMALL
NO_CHARGES


@<TRIPOS>ATOM
   1 N1            -0.0162     1.3425     0.0094 N.pl3   
   2 C2             0.0021    -0.0041     0.0020 C.2     
   3 C3             1.3065    -0.4496    -0.0128 C.2     
   4 C4             2.1542     0.7597    -0.0144 C.ar    
   5 C5             3.5278     0.9733    -0.0260 C.ar    
   6 C6             4.0201     2.2725    -0.0233 C.ar    
   7 C7             3.1348     3.3558    -0.0091 C.ar    
   8 C8             1.7746     3.1459     0.0029 C.ar    
   9 C9             1.2680     1.8487    -0.0001 C.ar    
  10 C10            1.7457    -1.7969    -0.0236 C.2     
  11 O11            0.9342    -2.6999    -0.0204 O.2     
  12 C12            5.4841     2.5111    -0.0351 C.ar    
  13 C13            6.1024     3.1216     1.0577 C.ar    
  14 C14            7.4659     3.3414     1.0427 C.ar    
  15 C15            8.2198     2.9562    -0.0573 C.ar    
  16 C16            7.6067     2.3495    -1.1450 C.ar    
  17 C17            6.2463     2.1212    -1.1343 C.ar    
  18 O18            9.5610     3.1740    -0.0697 O.3     
  19 C19           10.2759     2.7529    -1.2331 C.3     
  20 C20           11.7613     3.0787    -1.0646 C.3     
  21 O21           12.2995     2.3059     0.0101 O.3     
  22 F22            5.3682     3.4972     2.1279 F       
  23 Cl23           3.7565     4.9767    -0.0058 Cl      
  24 H24           -0.8217     1.8828     0.0163 H       
  25 H25           -0.8721    -0.6383     0.0070 H       
  26 H26            4.2080     0.1345    -0.0366 H       
  27 H27            1.0992     3.9885     0.0146 H       
  28 H28            2.8022    -2.0204    -0.0345 H       
  29 H29            7.9458     3.8135     1.8872 H       
  30 H30            8.1966     2.0519    -1.9994 H       
  31 H31            5.7717     1.6447    -1.9793 H       
  32 H32           10.1525     1.6781    -1.3662 H       
  33 H33            9.8864     3.2744    -2.1074 H       
  34 H34           12.2925     2.8393    -1.9859 H       
  35 H35           11.8777     4.1396    -0.8432 H       
  36 H36           13.2397     2.4616     0.1742 H       
@<TRIPOS>BOND
   1    1    2 1
   2    1    9 1
   3    1   24 1
   4    2    3 2
   5    2   25 1
   6    3    4 1
   7    3   10 1
   8    4    5 ar
   9    4    9 ar
  10    5    6 ar
  11    5   26 1
  12    6    7 ar
  13    6   12 1
  14    7    8 ar
  15    7   23 1
  16    8    9 ar
  17    8   27 1
  18   10   11 2
  19   10   28 1
  20   12   13 ar
  21   12   17 ar
  22   13   14 ar
  23   13   22 1
  24   14   15 ar
  25   14   29 1
  26   15   16 ar
  27   15   18 1
  28   16   17 ar
  29   16   30 1
  30   17   31 1
  31   18   19 1
  32   19   20 1
  33   19   32 1
  34   19   33 1
  35   20   21 1
  36   20   34 1
  37   20   35 1
  38   21   36 1

#	End of record

