#	Name: ASD02039026
#	Creating user name:	WinNT
#	Creation time:	15. 06. 2019 20:17

#	Modifying user name:	WinNT
#	Modification time:	15. 06. 2019 20:17

#	Program:	/corina/corina34_cracker 3.40 0067  02.08.2006

@<TRIPOS>MOLECULE
ASD02039026
  39   42    0    0    0
SMALL
NO_CHARGES


@<TRIPOS>ATOM
   1 N1             0.0234     1.2846    -0.3605 N.2     
   2 N2             0.0398    -0.0019    -0.3616 N.2     
   3 C3             1.2243     1.7332    -0.0874 C.2     
   4 O4             2.0203     0.6621     0.0885 O.3     
   5 C5             1.2410    -0.4221    -0.0917 C.2     
   6 N6             1.6034     3.0606     0.0028 N.pl3   
   7 C7             0.6399     4.0709    -0.0881 C.ar    
   8 C8             1.6808    -1.8604     0.0028 C.3     
   9 O9             2.1172    -2.3104    -1.2814 O.3     
  10 C10            2.5499    -3.5962    -1.3707 C.ar    
  11 C11            2.9848    -4.0920    -2.5836 C.ar    
  12 C12            2.5577    -4.4049    -0.2369 C.ar    
  13 C13            2.9927    -5.7101    -0.3086 C.ar    
  14 C14            3.4295    -6.2311    -1.5216 C.ar    
  15 C15            3.4287    -5.4154    -2.6690 C.ar    
  16 C16           -0.6620     3.8293     0.3296 C.ar    
  17 C17            0.9860     5.3185    -0.5911 C.ar    
  18 C18            0.0340     6.3153    -0.6805 C.ar    
  19 C19           -1.2652     6.0727    -0.2689 C.ar    
  20 C20           -1.6128     4.8299     0.2386 C.ar    
  21 N21            3.8687    -7.5364    -1.6142 N.am    
  22 C22            4.2912    -8.0425    -2.7858 C.2     
  23 C23            4.3051    -7.2679    -3.9654 C.2     
  24 O24            4.6721    -9.1995    -2.8303 O.2     
  25 C25            3.8909    -5.9770    -3.9397 C.2     
  26 F26           -2.8812     4.5948     0.6398 F       
  27 F27           -2.1942     7.0496    -0.3566 F       
  28 H28            2.5371     3.2909     0.1291 H       
  29 H29            2.5017    -1.9432     0.7151 H       
  30 H30            0.8452    -2.4746     0.3383 H       
  31 H31            2.9818    -3.4620    -3.4608 H       
  32 H32            2.2197    -4.0049     0.7076 H       
  33 H33            2.9947    -6.3282     0.5770 H       
  34 H34           -0.9322     2.8612     0.7247 H       
  35 H35            1.9995     5.5093    -0.9119 H       
  36 H36            0.3037     7.2852    -1.0717 H       
  37 H37            3.8729    -8.0965    -0.8223 H       
  38 H38            4.6511    -7.7036    -4.8911 H       
  39 H39            3.8979    -5.3774    -4.8379 H       
@<TRIPOS>BOND
   1    1    2 1
   2    1    3 2
   3    2    5 2
   4    3    4 1
   5    3    6 1
   6    4    5 1
   7    5    8 1
   8    6    7 1
   9    6   28 1
  10    7   16 ar
  11    7   17 ar
  12    8    9 1
  13    8   29 1
  14    8   30 1
  15    9   10 1
  16   10   11 ar
  17   10   12 ar
  18   11   15 ar
  19   11   31 1
  20   12   13 ar
  21   12   32 1
  22   13   14 ar
  23   13   33 1
  24   14   15 ar
  25   14   21 1
  26   15   25 1
  27   16   20 ar
  28   16   34 1
  29   17   18 ar
  30   17   35 1
  31   18   19 ar
  32   18   36 1
  33   19   20 ar
  34   19   27 1
  35   20   26 1
  36   21   22 am
  37   21   37 1
  38   22   23 1
  39   22   24 2
  40   23   25 2
  41   23   38 1
  42   25   39 1

#	End of record

