#	Name: ASD01881550
#	Creating user name:	WinNT
#	Creation time:	15. 06. 2019 19:42

#	Modifying user name:	WinNT
#	Modification time:	15. 06. 2019 19:42

#	Program:	/corina/corina34_cracker 3.40 0067  02.08.2006

@<TRIPOS>MOLECULE
ASD01881550
  38   41    0    0    0
SMALL
NO_CHARGES


@<TRIPOS>ATOM
   1 C1            -0.0170     1.3992     0.0097 C.ar    
   2 C2             0.0021    -0.0041     0.0020 C.ar    
   3 C3            -1.1635    -0.7105     0.0098 C.ar    
   4 C4            -2.3861    -0.0436     0.0251 C.ar    
   5 C5            -2.4258     1.3623     0.0330 C.ar    
   6 C6            -1.2267     2.0826     0.0308 C.ar    
   7 N7            -3.6957    -0.4613     0.0361 N.pl3   
   8 N8            -4.4865     0.6967     0.0503 N.2     
   9 N9            -3.7274     1.7352     0.0482 N.2     
  10 C10           -4.1724    -1.8466     0.0334 C.3     
  11 C11            1.2148     2.1294     0.0019 C.1     
  12 C12           -4.3238    -2.3366     1.4749 C.3     
  13 C13           -4.9249    -3.7272     1.6889 C.3     
  14 C14           -3.4311    -3.4949     1.9248 C.3     
  15 C15            2.2247     2.7281    -0.0045 C.1     
  16 C16            3.4565     3.4583    -0.0124 C.ar    
  17 C17            3.4546     4.8557    -0.0048 C.ar    
  18 C18            4.6848     2.7840    -0.0218 C.ar    
  19 C19            5.8456     3.5368    -0.0287 C.ar    
  20 C20            5.7580     4.9173    -0.0260 C.ar    
  21 N21            4.5875     5.5263    -0.0120 N.ar    
  22 C22           -1.2468     3.5894     0.0391 C.3     
  23 F23           -1.2462     4.0485     1.3607 F       
  24 F24           -0.1143     4.0746    -0.6236 F       
  25 F25           -2.3986     4.0441    -0.6120 F       
  26 H26            0.9466    -0.5277    -0.0105 H       
  27 H27           -1.1389    -1.7902     0.0038 H       
  28 H28           -5.1373    -1.8978    -0.4709 H       
  29 H29           -3.4543    -2.4770    -0.4911 H       
  30 H30           -4.5598    -1.5676     2.2105 H       
  31 H31           -5.5560    -3.8732     2.5655 H       
  32 H32           -5.2125    -4.2930     0.8028 H       
  33 H33           -2.7360    -3.9078     1.1938 H       
  34 H34           -3.0796    -3.4880     2.9565 H       
  35 H35            2.5160     5.3900     0.0066 H       
  36 H36            4.7243     1.7048    -0.0234 H       
  37 H37            6.8104     3.0514    -0.0357 H       
  38 H38            6.6630     5.5066    -0.0309 H       
@<TRIPOS>BOND
   1    1    2 ar
   2    1   11 1
   3    1    6 ar
   4    2    3 ar
   5    2   26 1
   6    3    4 ar
   7    3   27 1
   8    4    5 ar
   9    4    7 1
  10    5    6 ar
  11    5    9 1
  12    6   22 1
  13    7    8 1
  14    7   10 1
  15    8    9 2
  16   10   12 1
  17   10   28 1
  18   10   29 1
  19   11   15 3
  20   12   13 1
  21   12   14 1
  22   12   30 1
  23   13   14 1
  24   13   31 1
  25   13   32 1
  26   14   33 1
  27   14   34 1
  28   15   16 1
  29   16   17 ar
  30   16   18 ar
  31   17   21 ar
  32   17   35 1
  33   18   19 ar
  34   18   36 1
  35   19   20 ar
  36   19   37 1
  37   20   21 ar
  38   20   38 1
  39   22   23 1
  40   22   24 1
  41   22   25 1

#	End of record

