#	Name: ASD08070288
#	Creating user name:	WinNT
#	Creation time:	15. 06. 2019 21:14

#	Modifying user name:	WinNT
#	Modification time:	15. 06. 2019 21:14

#	Program:	/corina/corina34_cracker 3.40 0067  02.08.2006

@<TRIPOS>MOLECULE
ASD08070288
  42   43    0    0    0
SMALL
NO_CHARGES


@<TRIPOS>ATOM
   1 C1            -0.0182     1.4903     0.0102 C.2     
   2 C2             0.0021    -0.0041     0.0020 C.2     
   3 O3             1.0244     2.1113     0.0036 O.2     
   4 N4            -1.1944     2.1482     0.0194 N.am    
   5 O5            -1.0405    -0.6251     0.0086 O.2     
   6 N6             1.1783    -0.6620    -0.0127 N.am    
   7 C7             1.1981    -2.1268    -0.0208 C.3     
   8 C8             2.6473    -2.6171    -0.0373 C.3     
   9 C9             2.6678    -4.1240    -0.0456 C.ar    
  10 C10            3.3568    -4.7924    -1.0401 C.ar    
  11 C11            3.3697    -6.1786    -1.0384 C.ar    
  12 C12            2.6860    -6.8437    -0.0318 C.ar    
  13 C13            2.0194    -6.1080     0.9292 C.ar    
  14 N14            2.0327    -4.7895     0.8991 N.ar    
  15 C15           -1.2143     3.6131     0.0274 C.3     
  16 N16           -2.6722     5.2227    -1.3226 N.pl3   
  17 C17           -2.5115     4.1011    -0.5642 C.2     
  18 C18           -3.7135     3.5036    -0.4353 C.2     
  19 C19           -4.6506     4.2849    -1.1399 C.2     
  20 C20           -3.9856     5.3301    -1.6725 C.2     
  21 C21           -4.5899     6.4278    -2.5097 C.3     
  22 C22           -1.0887     4.1169     1.4666 C.3     
  23 H23           -2.0278     1.6519     0.0206 H       
  24 H24            2.0116    -0.1656    -0.0180 H       
  25 H25            0.6978    -2.5019     0.8720 H       
  26 H26            0.6808    -2.4923    -0.9079 H       
  27 H27            3.1477    -2.2421    -0.9301 H       
  28 H28            3.1647    -2.2516     0.8498 H       
  29 H29            3.8782    -4.2416    -1.8091 H       
  30 H30            3.8993    -6.7275    -1.8030 H       
  31 H31            2.6745    -7.9232     0.0004 H       
  32 H32            1.4846    -6.6184     1.7165 H       
  33 H33           -0.3803     3.9910    -0.5639 H       
  34 H34           -1.9691     5.8438    -1.5690 H       
  35 H35           -3.9199     2.5934     0.1082 H       
  36 H36           -5.7074     4.0837    -1.2358 H       
  37 H37           -4.5539     6.1442    -3.5616 H       
  38 H38           -5.6264     6.5840    -2.2107 H       
  39 H39           -4.0264     7.3492    -2.3624 H       
  40 H40           -0.1504     3.7639     1.8946 H       
  41 H41           -1.1035     5.2068     1.4726 H       
  42 H42           -1.9227     3.7390     2.0580 H       
@<TRIPOS>BOND
   1    1    2 1
   2    1    3 2
   3    1    4 am
   4    2    5 2
   5    2    6 am
   6    4   15 1
   7    4   23 1
   8    6    7 1
   9    6   24 1
  10    7    8 1
  11    7   25 1
  12    7   26 1
  13    8    9 1
  14    8   27 1
  15    8   28 1
  16    9   10 ar
  17    9   14 ar
  18   10   11 ar
  19   10   29 1
  20   11   12 ar
  21   11   30 1
  22   12   13 ar
  23   12   31 1
  24   13   14 ar
  25   13   32 1
  26   15   17 1
  27   15   22 1
  28   15   33 1
  29   16   17 1
  30   16   20 1
  31   16   34 1
  32   17   18 2
  33   18   19 1
  34   18   35 1
  35   19   20 2
  36   19   36 1
  37   20   21 1
  38   21   37 1
  39   21   38 1
  40   21   39 1
  41   22   40 1
  42   22   41 1
  43   22   42 1

#	End of record

