#	Name: ASD01208648
#	Creating user name:	WinNT
#	Creation time:	15. 06. 2019 19:10

#	Modifying user name:	WinNT
#	Modification time:	15. 06. 2019 19:10

#	Program:	/corina/corina34_cracker 3.40 0067  02.08.2006

@<TRIPOS>MOLECULE
ASD01208648
  23   23    0    0    0
SMALL
NO_CHARGES


@<TRIPOS>ATOM
   1 C1            -0.0167     1.3781     0.0096 C.ar    
   2 C2             0.0021    -0.0041     0.0020 C.ar    
   3 C3             1.2213    -0.6632    -0.0132 C.ar    
   4 C4             2.3826     0.0966    -0.0203 C.ar    
   5 C5             2.2848     1.4762    -0.0119 C.ar    
   6 N6             1.1067     2.0685     0.0026 N.ar    
   7 S7            -1.5603     2.2276     0.0215 S.o2    
   8 O8            -1.2738     3.4836    -0.5782 O.2     
   9 O9            -2.4666     1.3162    -0.5844 O.2     
  10 C10           -1.9486     2.4363     1.7812 C.3     
  11 C11           -3.2832     3.1704     1.9254 C.3     
  12 C12           -3.6107     3.3464     3.4095 C.3     
  13 Cl13          -5.1834     4.2115     3.5795 Cl      
  14 Cl14           3.9378    -0.6746    -0.0387 Cl      
  15 H15           -0.9218    -0.5634     0.0082 H       
  16 H16            1.2664    -1.7422    -0.0191 H       
  17 H17            3.1835     2.0751    -0.0173 H       
  18 H18           -2.0189     1.4578     2.2562 H       
  19 H19           -1.1607     3.0172     2.2607 H       
  20 H20           -3.2128     4.1489     1.4503 H       
  21 H21           -4.0710     2.5895     1.4459 H       
  22 H22           -3.6810     2.3679     3.8846 H       
  23 H23           -2.8228     3.9273     3.8890 H       
@<TRIPOS>BOND
   1    1    2 ar
   2    1    6 ar
   3    1    7 1
   4    2    3 ar
   5    2   15 1
   6    3    4 ar
   7    3   16 1
   8    4    5 ar
   9    4   14 1
  10    5    6 ar
  11    5   17 1
  12    7    8 2
  13    7    9 2
  14    7   10 1
  15   10   11 1
  16   10   18 1
  17   10   19 1
  18   11   12 1
  19   11   20 1
  20   11   21 1
  21   12   13 1
  22   12   22 1
  23   12   23 1

#	End of record

