#	Name: ASD03092077
#	Creating user name:	WinNT
#	Creation time:	15. 06. 2019 20:31

#	Modifying user name:	WinNT
#	Modification time:	15. 06. 2019 20:31

#	Program:	/corina/corina34_cracker 3.40 0067  02.08.2006

@<TRIPOS>MOLECULE
ASD03092077
  47   49    0    0    0
SMALL
NO_CHARGES


@<TRIPOS>ATOM
   1 N1             0.3658     0.9951    -0.2220 N.pl3   
   2 C2             0.0868    -0.3108     0.0528 C.2     
   3 C3            -1.2720    -0.4498     0.0427 C.2     
   4 C4            -1.8283     0.8027    -0.2453 C.2     
   5 N5            -0.8510     1.6664    -0.3973 N.2     
   6 N6            -3.1955     1.0872    -0.3479 N.pl3   
   7 C7            -3.6232     2.4048    -0.5284 C.ar    
   8 C8            -4.8071     2.6649    -1.2071 C.ar    
   9 C9            -5.2300     3.9692    -1.3855 C.ar    
  10 C10           -4.4757     5.0170    -0.8895 C.ar    
  11 C11           -2.8683     3.4558    -0.0246 C.ar    
  12 C12            1.0743    -1.3808     0.3140 C.ar    
  13 C13            1.7008     1.5916    -0.3118 C.3     
  14 C14            2.3672    -1.0744     0.7529 C.ar    
  15 C15            3.2562    -2.1035     0.9843 C.ar    
  16 N16            2.9015    -3.3603     0.7967 N.ar    
  17 C17            1.6929    -3.6926     0.3838 C.ar    
  18 C18            0.7396    -2.7279     0.1345 C.ar    
  19 C19            1.3481    -5.1465     0.1877 C.3     
  20 O20            1.7158     2.5716    -1.3517 O.3     
  21 C21           -3.2920     4.7620    -0.2112 C.ar    
  22 Cl22          -6.7097     4.2922    -2.2339 Cl      
  23 C23            2.0530     2.2563     1.0205 C.3     
  24 C24            3.4933     2.7701     0.9691 C.3     
  25 O25           -2.5515     5.7927     0.2749 O.3     
  26 C26           -3.0514     7.1126     0.0513 C.3     
  27 H27           -1.8196    -1.3629     0.2238 H       
  28 H28           -3.8457     0.3694    -0.2938 H       
  29 H29           -5.3972     1.8482    -1.5958 H       
  30 H30           -4.8081     6.0348    -1.0305 H       
  31 H31           -1.9500     3.2559     0.5075 H       
  32 H32            2.4318     0.8144    -0.5345 H       
  33 H33            2.6646    -0.0478     0.9079 H       
  34 H34            4.2564    -1.8772     1.3232 H       
  35 H35           -0.2475    -3.0072    -0.2032 H       
  36 H36            0.9471    -5.5532     1.1161 H       
  37 H37            0.6025    -5.2398    -0.6018 H       
  38 H38            2.2454    -5.6981    -0.0929 H       
  39 H39            1.0882     3.2953    -1.2192 H       
  40 H40            1.3757     3.0912     1.2003 H       
  41 H41            1.9552     1.5291     1.8265 H       
  42 H42            3.7442     3.2436     1.9183 H       
  43 H43            4.1706     1.9352     0.7894 H       
  44 H44            3.5911     3.4974     0.1632 H       
  45 H45           -2.3669     7.8393     0.4888 H       
  46 H46           -3.1358     7.2925    -1.0205 H       
  47 H47           -4.0328     7.2129     0.5149 H       
@<TRIPOS>BOND
   1    1    2 1
   2    1   13 1
   3    1    5 1
   4    2    3 2
   5    2   12 1
   6    3    4 1
   7    3   27 1
   8    4    5 2
   9    4    6 1
  10    6    7 1
  11    6   28 1
  12    7    8 ar
  13    7   11 ar
  14    8    9 ar
  15    8   29 1
  16    9   10 ar
  17    9   22 1
  18   10   21 ar
  19   10   30 1
  20   11   21 ar
  21   11   31 1
  22   12   14 ar
  23   12   18 ar
  24   13   20 1
  25   13   23 1
  26   13   32 1
  27   14   15 ar
  28   14   33 1
  29   15   16 ar
  30   15   34 1
  31   16   17 ar
  32   17   18 ar
  33   17   19 1
  34   18   35 1
  35   19   36 1
  36   19   37 1
  37   19   38 1
  38   20   39 1
  39   21   25 1
  40   23   24 1
  41   23   40 1
  42   23   41 1
  43   24   42 1
  44   24   43 1
  45   24   44 1
  46   25   26 1
  47   26   45 1
  48   26   46 1
  49   26   47 1

#	End of record

