#	Name: ASD03092935
#	Creating user name:	WinNT
#	Creation time:	15. 06. 2019 20:33

#	Modifying user name:	WinNT
#	Modification time:	15. 06. 2019 20:33

#	Program:	/corina/corina34_cracker 3.40 0067  02.08.2006

@<TRIPOS>MOLECULE
ASD03092935
  49   51    0    0    0
SMALL
NO_CHARGES


@<TRIPOS>ATOM
   1 C1            -0.4126     1.7164    -1.3606 C.3     
   2 C2            -0.5012     0.2398    -1.7513 C.3     
   3 C3             0.7124    -0.4899    -1.2359 C.2     
   4 O4             1.6105     0.1280    -0.6995 O.2     
   5 C5             0.8056    -1.8894    -1.3760 C.2     
   6 C6             1.2818    -2.5769    -2.4927 C.2     
   7 C7             1.1905    -3.9567    -2.1849 C.2     
   8 C8             0.6759    -4.0629    -0.9255 C.2     
   9 C9             0.4104    -5.3557    -0.1980 C.3     
  10 N10            0.4484    -2.8292    -0.4323 N.pl3   
  11 C11           -0.0959    -2.5336     0.8953 C.3     
  12 C12            1.5820    -5.0808    -3.0703 C.ar    
  13 C13            0.8988    -5.3001    -4.2649 C.ar    
  14 C14            1.2666    -6.3466    -5.0856 C.ar    
  15 C15            2.3135    -7.1786    -4.7235 C.ar    
  16 F16            2.6706    -8.2018    -5.5302 F       
  17 C17            2.9955    -6.9643    -3.5368 C.ar    
  18 C18            2.6379    -5.9171    -2.7126 C.ar    
  19 C19            1.7837    -1.9819    -3.7512 C.ar    
  20 C20            1.0945    -2.1875    -4.9471 C.ar    
  21 C21            1.5674    -1.6296    -6.1169 C.ar    
  22 C22            2.7224    -0.8681    -6.1062 C.ar    
  23 C23            3.4106    -0.6608    -4.9239 C.ar    
  24 C24            2.9448    -1.2081    -3.7462 C.ar    
  25 S25            3.3199    -0.1596    -7.6048 S.o2    
  26 N26            2.6267     1.3373    -7.7498 N.am    
  27 O27            4.7116     0.0591    -7.4183 O.2     
  28 O28            2.7921    -0.9503    -8.6609 O.2     
  29 H29           -0.3704     1.8031    -0.2749 H       
  30 H30            0.4862     2.1539    -1.7953 H       
  31 H31           -1.2904     2.2442    -1.7334 H       
  32 H32           -1.4000    -0.1977    -1.3166 H       
  33 H33           -0.5434     0.1531    -2.8370 H       
  34 H34            1.2967    -5.6428     0.3678 H       
  35 H35           -0.4290    -5.2228     0.4844 H       
  36 H36            0.1716    -6.1365    -0.9201 H       
  37 H37           -1.1752    -2.3992     0.8239 H       
  38 H38            0.1234    -3.3608     1.5703 H       
  39 H39            0.3592    -1.6207     1.2796 H       
  40 H40            0.0823    -4.6522    -4.5478 H       
  41 H41            0.7375    -6.5175    -6.0114 H       
  42 H42            3.8107    -7.6156    -3.2583 H       
  43 H43            3.1730    -5.7480    -1.7898 H       
  44 H44            0.1931    -2.7824    -4.9569 H       
  45 H45            1.0349    -1.7880    -7.0431 H       
  46 H46            4.3120    -0.0660    -4.9223 H       
  47 H47            3.4802    -1.0416    -2.8231 H       
  48 H48            2.0164     1.6574    -7.0671 H       
  49 H49            2.8309     1.8941    -8.5175 H       
@<TRIPOS>BOND
   1    1    2 1
   2    1   29 1
   3    1   30 1
   4    1   31 1
   5    2    3 1
   6    2   32 1
   7    2   33 1
   8    3    4 2
   9    3    5 1
  10    5   10 1
  11    5    6 2
  12    6    7 1
  13    6   19 1
  14    7    8 2
  15    7   12 1
  16    8    9 1
  17    8   10 1
  18    9   34 1
  19    9   35 1
  20    9   36 1
  21   10   11 1
  22   11   37 1
  23   11   38 1
  24   11   39 1
  25   12   18 ar
  26   12   13 ar
  27   13   14 ar
  28   13   40 1
  29   14   15 ar
  30   14   41 1
  31   15   16 1
  32   15   17 ar
  33   17   18 ar
  34   17   42 1
  35   18   43 1
  36   19   24 ar
  37   19   20 ar
  38   20   21 ar
  39   20   44 1
  40   21   22 ar
  41   21   45 1
  42   22   23 ar
  43   22   25 1
  44   23   24 ar
  45   23   46 1
  46   24   47 1
  47   25   26 am
  48   25   27 2
  49   25   28 2
  50   26   48 1
  51   26   49 1

#	End of record

