#	Name: ASD02408147
#	Creating user name:	WinNT
#	Creation time:	15. 06. 2019 20:21

#	Modifying user name:	WinNT
#	Modification time:	15. 06. 2019 20:21

#	Program:	/corina/corina34_cracker 3.40 0067  02.08.2006

@<TRIPOS>MOLECULE
ASD02408147
  51   53    0    0    0
SMALL
NO_CHARGES


@<TRIPOS>ATOM
   1 C1            -1.0617     1.7066     0.2361 C.ar    
   2 C2            -1.3108     0.3421     0.2296 C.ar    
   3 C3             0.2246     2.1757     0.0113 C.ar    
   4 C4             1.2536     1.2834    -0.2183 C.ar    
   5 C5             1.0027    -0.0765    -0.2243 C.ar    
   6 C6            -0.2780    -0.5464    -0.0005 C.ar    
   7 C7             0.4987     3.6576     0.0171 C.3     
   8 C8             0.7331     4.1195     1.4323 C.2     
   9 N9             0.9970     5.4212     1.6571 N.am    
  10 N10            0.6684     3.2459     2.4001 N.2     
  11 C11            0.8673     3.5990     3.6764 C.2     
  12 C12            1.1522     4.9402     3.9819 C.2     
  13 C13            1.2115     5.8696     2.9119 C.2     
  14 N14            0.7931     2.6602     4.6759 N.pl3   
  15 C15            1.3533     1.3157     4.4832 C.3     
  16 O16            1.4550     7.0456     3.1205 O.2     
  17 C17            0.2677     0.2801     4.7930 C.3     
  18 C18           -0.2884     0.5341     6.1960 C.3     
  19 C19           -0.9197     1.9271     6.2518 C.3     
  20 C20            0.1574     2.9831     5.9606 C.3     
  21 C21           -1.3488    -0.5195     6.5224 C.3     
  22 C22           -1.8153    -0.3425     7.9687 C.3     
  23 O23           -2.8056    -1.3265     8.2736 O.3     
  24 O24           -2.0769     2.5828     0.4567 O.3     
  25 C25           -3.3760     2.0289     0.6748 C.3     
  26 F26           -3.3458     1.1977     1.7996 F       
  27 F27           -4.2948     3.0630     0.8837 F       
  28 F28           -3.7593     1.2838    -0.4455 F       
  29 C29            1.3711     5.3578     5.3340 C.1     
  30 N30            1.5448     5.6890     6.4067 N.1     
  31 H31           -2.3111    -0.0256     0.4047 H       
  32 H32            2.2549     1.6481    -0.3937 H       
  33 H33            1.8086    -0.7726    -0.4043 H       
  34 H34           -0.4715    -1.6090    -0.0057 H       
  35 H35            1.3836     3.8658    -0.5843 H       
  36 H36           -0.3575     4.1871    -0.4008 H       
  37 H37            1.0334     6.0408     0.9116 H       
  38 H38            1.6829     1.2018     3.4505 H       
  39 H39            2.1982     1.1719     5.1566 H       
  40 H40           -0.5362     0.3660     4.0619 H       
  41 H41            0.6963    -0.7210     4.7473 H       
  42 H42            0.5205     0.4726     6.9239 H       
  43 H43           -1.7124     1.9975     5.5070 H       
  44 H44           -1.3363     2.0982     7.2445 H       
  45 H45            0.9028     2.9737     6.7558 H       
  46 H46           -0.3040     3.9689     5.9010 H       
  47 H47           -2.1981    -0.4008     5.8496 H       
  48 H48           -0.9225    -1.5148     6.3973 H       
  49 H49           -0.9660    -0.4611     8.6416 H       
  50 H50           -2.2416     0.6529     8.0938 H       
  51 H51           -3.1475    -1.2738     9.1767 H       
@<TRIPOS>BOND
   1    1    2 ar
   2    1    3 ar
   3    1   24 1
   4    2    6 ar
   5    2   31 1
   6    3    4 ar
   7    3    7 1
   8    4    5 ar
   9    4   32 1
  10    5    6 ar
  11    5   33 1
  12    6   34 1
  13    7    8 1
  14    7   35 1
  15    7   36 1
  16    8    9 1
  17    8   10 2
  18    9   13 am
  19    9   37 1
  20   10   11 1
  21   11   12 2
  22   11   14 1
  23   12   13 1
  24   12   29 1
  25   13   16 2
  26   14   15 1
  27   14   20 1
  28   15   17 1
  29   15   38 1
  30   15   39 1
  31   17   18 1
  32   17   40 1
  33   17   41 1
  34   18   19 1
  35   18   21 1
  36   18   42 1
  37   19   20 1
  38   19   43 1
  39   19   44 1
  40   20   45 1
  41   20   46 1
  42   21   22 1
  43   21   47 1
  44   21   48 1
  45   22   23 1
  46   22   49 1
  47   22   50 1
  48   23   51 1
  49   24   25 1
  50   25   26 1
  51   25   27 1
  52   25   28 1
  53   29   30 3

#	End of record

