#	Name: ASD08170310
#	Creating user name:	WinNT
#	Creation time:	15. 06. 2019 21:17

#	Modifying user name:	WinNT
#	Modification time:	15. 06. 2019 21:17

#	Program:	/corina/corina34_cracker 3.40 0067  02.08.2006

@<TRIPOS>MOLECULE
ASD08170310
  62   67    0    0    0
SMALL
NO_CHARGES


@<TRIPOS>ATOM
   1 C1            -0.0162     1.3436     0.0094 C.2     
   2 N2             0.0021    -0.0041     0.0020 N.am    
   3 C3             1.2158    -0.6830    -0.0132 C.2     
   4 S4             1.4076    -2.3853    -0.0242 S.3     
   5 C5             3.1580    -2.1679    -0.0404 C.2     
   6 C6             4.1900    -3.2660    -0.0570 C.3     
   7 C7             5.9649    -5.1406     2.7999 C.3     
   8 C8             6.9968    -6.2387     2.7833 C.2     
   9 S9             6.6713    -7.9723     2.7767 S.3     
  10 C10            8.3583    -8.2694     2.7582 C.2     
  11 N11            2.3916    -0.1314    -0.0272 N.2     
  12 N12            3.3971    -0.8949    -0.0360 N.2     
  13 N13            8.2821    -6.0790     2.7658 N.2     
  14 N14            8.9817    -7.1299     2.7585 N.2     
  15 O15            1.0258     1.9642     0.0028 O.2     
  16 C16           -1.3314     2.0792     0.0197 C.3     
  17 C17            4.5536    -3.6458     1.3798 C.3     
  18 C18            5.6013    -4.7607     1.3631 C.3     
  19 N19            8.9606    -9.5229     2.7455 N.am    
  20 C20           10.3044    -9.6248     2.7315 C.2     
  21 O21           10.9885    -8.6233     2.7299 O.2     
  22 C22           -2.1451     1.7397     1.2909 C.3     
  23 C23           -1.1161     3.5722     0.1755 C.ar    
  24 C24           -1.4023     3.8888     1.4971 C.ar    
  25 O25           -1.7590     2.7812     2.2037 O.3     
  26 C26           10.9570   -10.9831     2.7177 C.3     
  27 C27           10.5615   -11.7738     1.4481 C.3     
  28 O28           11.6204   -11.4528     0.5303 O.3     
  29 C29           12.7515   -11.1659     1.2315 C.ar    
  30 C30           12.4597   -10.8608     2.5546 C.ar    
  31 C31           14.0797   -11.1410     0.8127 C.ar    
  32 C32           15.0821   -10.8117     1.7010 C.ar    
  33 C33           14.7785   -10.5037     3.0145 C.ar    
  34 C34           13.4621   -10.5294     3.4393 C.ar    
  35 C35           -0.7208     4.5473    -0.7134 C.ar    
  36 C36           -0.6109     5.8612    -0.2944 C.ar    
  37 C37           -0.8990     6.1898     1.0176 C.ar    
  38 C38           -1.2920     5.2144     1.9102 C.ar    
  39 H39           -0.8313    -0.5005     0.0073 H       
  40 H40            3.7851    -4.1373    -0.5717 H       
  41 H41            5.0822    -2.9183    -0.5777 H       
  42 H42            5.0727    -5.4882     3.3206 H       
  43 H43            6.3698    -4.2692     3.3146 H       
  44 H44           -1.9054     1.8597    -0.8805 H       
  45 H45            4.9585    -2.7745     1.8946 H       
  46 H46            3.6614    -3.9935     1.9006 H       
  47 H47            6.4935    -4.4131     0.8423 H       
  48 H48            5.1964    -5.6320     0.8483 H       
  49 H49            8.4135   -10.3239     2.7467 H       
  50 H50           -3.2150     1.7818     1.0873 H       
  51 H51           -1.8632     0.7613     1.6800 H       
  52 H52           10.7067   -11.5426     3.6190 H       
  53 H53           10.5381   -12.8444     1.6516 H       
  54 H54            9.6005   -11.4316     1.0639 H       
  55 H55           14.3256   -11.3808    -0.2112 H       
  56 H56           16.1097   -10.7946     1.3691 H       
  57 H57           15.5662   -10.2443     3.7063 H       
  58 H58           13.2204   -10.2894     4.4642 H       
  59 H59           -0.4964     4.2862    -1.7371 H       
  60 H60           -0.3008     6.6276    -0.9894 H       
  61 H61           -0.8154     7.2155     1.3452 H       
  62 H62           -1.5151     5.4796     2.9331 H       
@<TRIPOS>BOND
   1    1    2 am
   2    1   15 2
   3    1   16 1
   4    2    3 1
   5    2   39 1
   6    3    4 1
   7    3   11 2
   8    4    5 1
   9    5    6 1
  10    5   12 2
  11    6   17 1
  12    6   40 1
  13    6   41 1
  14    7    8 1
  15    7   18 1
  16    7   42 1
  17    7   43 1
  18    8    9 1
  19    8   13 2
  20    9   10 1
  21   10   19 1
  22   10   14 2
  23   11   12 1
  24   13   14 1
  25   16   22 1
  26   16   23 1
  27   16   44 1
  28   17   18 1
  29   17   45 1
  30   17   46 1
  31   18   47 1
  32   18   48 1
  33   19   20 am
  34   19   49 1
  35   20   21 2
  36   20   26 1
  37   22   25 1
  38   22   50 1
  39   22   51 1
  40   23   24 ar
  41   23   35 ar
  42   24   25 1
  43   24   38 ar
  44   26   27 1
  45   26   30 1
  46   26   52 1
  47   27   28 1
  48   27   53 1
  49   27   54 1
  50   28   29 1
  51   29   30 ar
  52   29   31 ar
  53   30   34 ar
  54   31   32 ar
  55   31   55 1
  56   32   33 ar
  57   32   56 1
  58   33   34 ar
  59   33   57 1
  60   34   58 1
  61   35   36 ar
  62   35   59 1
  63   36   37 ar
  64   36   60 1
  65   37   38 ar
  66   37   61 1
  67   38   62 1

#	End of record

