#	Name: ASD01320061
#	Creating user name:	WinNT
#	Creation time:	15. 06. 2019 19:15

#	Modifying user name:	WinNT
#	Modification time:	15. 06. 2019 19:15

#	Program:	/corina/corina34_cracker 3.40 0067  02.08.2006

@<TRIPOS>MOLECULE
ASD01320061
 122  127    0    0    0
SMALL
NO_CHARGES


@<TRIPOS>ATOM
   1 C1            -3.6789     1.0957    -3.0891 C.3     
   2 C2            -3.4265    -0.4018    -2.9022 C.3     
   3 C3            -4.7511    -1.1096    -2.6101 C.3     
   4 C4            -4.4987    -2.6071    -2.4232 C.3     
   5 C5            -5.8233    -3.3149    -2.1311 C.3     
   6 C6            -5.5709    -4.8124    -1.9442 C.3     
   7 C7            -6.8955    -5.5202    -1.6521 C.3     
   8 C8            -6.6431    -7.0177    -1.4652 C.3     
   9 C9            -7.9478    -7.7149    -1.1775 C.2     
  10 O10           -8.9741    -7.0793    -1.1271 O.2     
  11 O11           -7.9696    -9.0420    -0.9772 O.3     
  12 C12           -9.2615    -9.6464    -0.7051 C.3     
  13 C13           -9.0903   -11.1307    -0.5087 C.2     
  14 N14          -10.0539   -12.0191    -0.2412 N.2     
  15 N15           -9.5266   -13.1881    -0.1417 N.2     
  16 N16           -8.2552   -13.1192    -0.3308 N.pl3   
  17 C17           -7.9321   -11.8280    -0.5741 C.2     
  18 C18           -7.3197   -14.2460    -0.2943 C.3     
  19 C19           -7.4560   -14.9697     1.0205 C.2     
  20 O20           -8.2528   -14.5839     1.8427 O.2     
  21 O21           -6.6921   -16.0430     1.2782 O.3     
  22 C22           -6.8776   -16.6919     2.5680 C.3     
  23 C23           -7.9464   -17.7695     2.4420 C.3     
  24 C24           -8.1137   -18.5094     3.7657 C.3     
  25 C25           -6.7983   -19.2228     4.1293 C.3     
  26 C26           -5.6960   -18.1772     4.2278 C.3     
  27 C27           -5.5383   -17.2611     3.0376 C.3     
  28 C28           -4.8125   -17.9219     1.8667 C.3     
  29 C29           -4.6806   -16.0466     3.4734 C.3     
  30 C30           -4.3898   -18.8510     4.6477 C.3     
  31 C31           -4.5868   -19.3324     6.0968 C.3     
  32 C32           -5.7071   -20.3661     6.1657 C.3     
  33 C33           -6.9843   -19.8724     5.5011 C.3     
  34 C34           -7.9984   -21.0141     5.4351 C.3     
  35 C35           -8.1643   -21.6160     6.8041 C.2     
  36 C36           -7.2955   -21.4871     7.7627 C.2     
  37 C37           -6.0070   -20.7211     7.6263 C.3     
  38 C38           -6.2085   -19.4152     8.4106 C.3     
  39 C39           -4.8417   -21.4565     8.2717 C.3     
  40 C40           -5.1985   -22.0002     9.6557 C.3     
  41 C41           -6.4165   -22.9235     9.5730 C.3     
  42 C42           -7.6153   -22.0944     9.1163 C.3     
  43 C43           -8.8733   -22.9452     9.0526 C.3     
  44 C44           -9.1699   -23.5897    10.4059 C.3     
  45 C45           -9.5692   -22.5166    11.4214 C.3     
  46 C46          -10.3505   -24.5599    10.2376 C.3     
  47 C47           -7.9666   -24.3716    10.9209 C.3     
  48 C48           -6.7042   -23.5185    10.9509 C.3     
  49 C49           -6.1366   -24.0338     8.5964 C.2     
  50 O50           -6.8376   -24.1725     7.6221 O.2     
  51 O51           -5.1081   -24.8701     8.8078 O.3     
  52 C52           -5.2188   -21.6511     5.4763 C.3     
  53 C53           -6.5218   -20.2669     3.0531 C.3     
  54 H54           -2.7352     1.6000    -3.2972 H       
  55 H55           -4.3636     1.2474    -3.9234 H       
  56 H56           -4.1175     1.5065    -2.1797 H       
  57 H57           -2.9878    -0.8125    -3.8115 H       
  58 H58           -2.7417    -0.5535    -2.0678 H       
  59 H59           -5.1898    -0.6988    -1.7007 H       
  60 H60           -5.4358    -0.9579    -3.4444 H       
  61 H61           -4.0600    -3.0178    -3.3325 H       
  62 H62           -3.8139    -2.7588    -1.5888 H       
  63 H63           -6.2620    -2.9041    -1.2217 H       
  64 H64           -6.5080    -3.1632    -2.9655 H       
  65 H65           -5.1322    -5.2231    -2.8535 H       
  66 H66           -4.8861    -4.9641    -1.1098 H       
  67 H67           -7.3342    -5.1094    -0.7427 H       
  68 H68           -7.5802    -5.3685    -2.4865 H       
  69 H69           -6.2044    -7.4284    -2.3745 H       
  70 H70           -5.9584    -7.1694    -0.6308 H       
  71 H71           -9.6853    -9.2069     0.1979 H       
  72 H72           -9.9313    -9.4660    -1.5459 H       
  73 H73           -6.9471   -11.4323    -0.7731 H       
  74 H74           -7.5445   -14.9316    -1.1114 H       
  75 H75           -6.3002   -13.8754    -0.4011 H       
  76 H76           -7.2115   -15.9371     3.2890 H       
  77 H77           -8.9030   -17.2867     2.1914 H       
  78 H78           -7.7065   -18.4536     1.6337 H       
  79 H79           -8.3617   -17.8022     4.5563 H       
  80 H80           -8.9060   -19.2515     3.6744 H       
  81 H81           -5.9823   -17.5209     5.0906 H       
  82 H82           -5.4318   -18.7214     1.4600 H       
  83 H83           -4.6224   -17.1796     1.0915 H       
  84 H84           -3.8657   -18.3362     2.2132 H       
  85 H85           -3.7042   -16.3939     3.8113 H       
  86 H86           -4.5531   -15.3700     2.6284 H       
  87 H87           -5.1811   -15.5216     4.2870 H       
  88 H88           -4.1333   -19.6794     4.0064 H       
  89 H89           -3.5724   -18.1269     4.6458 H       
  90 H90           -3.6530   -19.7786     6.4422 H       
  91 H91           -4.8048   -18.4481     6.6897 H       
  92 H92           -7.4275   -19.0879     6.1514 H       
  93 H93           -8.9698   -20.6113     5.1213 H       
  94 H94           -7.7087   -21.7918     4.7387 H       
  95 H95           -9.0638   -22.1867     6.9879 H       
  96 H96           -7.0430   -18.8595     7.9827 H       
  97 H97           -6.4233   -19.6473     9.4537 H       
  98 H98           -5.3023   -18.8124     8.3516 H       
  99 H99           -4.4581   -22.2717     7.6692 H       
 100 H100          -4.0115   -20.7393     8.3993 H       
 101 H101          -4.3508   -22.5753    10.0420 H       
 102 H102          -5.4073   -21.1841    10.3436 H       
 103 H103          -7.7699   -21.2749     9.8316 H       
 104 H104          -9.7237   -22.3030     8.7822 H       
 105 H105          -8.7816   -23.7169     8.2888 H       
 106 H106         -10.4601   -21.9966    11.0692 H       
 107 H107          -9.7785   -22.9859    12.3826 H       
 108 H108          -8.7532   -21.8029    11.5356 H       
 109 H109         -10.0886   -25.3280     9.5099 H       
 110 H110         -10.5749   -25.0286    11.1958 H       
 111 H111         -11.2248   -24.0110     9.8880 H       
 112 H112          -8.1848   -24.7140    11.9423 H       
 113 H113          -7.8139   -25.2589    10.3053 H       
 114 H114          -5.8537   -24.1424    11.2492 H       
 115 H115          -6.8077   -22.7132    11.6794 H       
 116 H116          -4.9679   -25.5678     8.1531 H       
 117 H117          -4.3668   -22.0555     6.0229 H       
 118 H118          -6.0242   -22.3854     5.4641 H       
 119 H119          -4.9192   -21.4233     4.4534 H       
 120 H120          -6.6156   -19.8078     2.0689 H       
 121 H121          -5.5118   -20.6576     3.1769 H       
 122 H122          -7.2402   -21.0815     3.1440 H       
@<TRIPOS>BOND
   1    1    2 1
   2    1   54 1
   3    1   55 1
   4    1   56 1
   5    2    3 1
   6    2   57 1
   7    2   58 1
   8    3    4 1
   9    3   59 1
  10    3   60 1
  11    4    5 1
  12    4   61 1
  13    4   62 1
  14    5    6 1
  15    5   63 1
  16    5   64 1
  17    6    7 1
  18    6   65 1
  19    6   66 1
  20    7    8 1
  21    7   67 1
  22    7   68 1
  23    8    9 1
  24    8   69 1
  25    8   70 1
  26    9   10 2
  27    9   11 1
  28   11   12 1
  29   12   13 1
  30   12   71 1
  31   12   72 1
  32   13   14 1
  33   13   17 2
  34   14   15 2
  35   15   16 1
  36   16   17 1
  37   16   18 1
  38   17   73 1
  39   18   19 1
  40   18   74 1
  41   18   75 1
  42   19   20 2
  43   19   21 1
  44   21   22 1
  45   22   23 1
  46   22   27 1
  47   22   76 1
  48   23   24 1
  49   23   77 1
  50   23   78 1
  51   24   25 1
  52   24   79 1
  53   24   80 1
  54   25   26 1
  55   25   53 1
  56   25   33 1
  57   26   27 1
  58   26   30 1
  59   26   81 1
  60   27   28 1
  61   27   29 1
  62   28   82 1
  63   28   83 1
  64   28   84 1
  65   29   85 1
  66   29   86 1
  67   29   87 1
  68   30   31 1
  69   30   88 1
  70   30   89 1
  71   31   32 1
  72   31   90 1
  73   31   91 1
  74   32   37 1
  75   32   52 1
  76   32   33 1
  77   33   34 1
  78   33   92 1
  79   34   35 1
  80   34   93 1
  81   34   94 1
  82   35   36 2
  83   35   95 1
  84   36   37 1
  85   36   42 1
  86   37   38 1
  87   37   39 1
  88   38   96 1
  89   38   97 1
  90   38   98 1
  91   39   40 1
  92   39   99 1
  93   39  100 1
  94   40   41 1
  95   40  101 1
  96   40  102 1
  97   41   49 1
  98   41   42 1
  99   41   48 1
 100   42   43 1
 101   42  103 1
 102   43   44 1
 103   43  104 1
 104   43  105 1
 105   44   45 1
 106   44   46 1
 107   44   47 1
 108   45  106 1
 109   45  107 1
 110   45  108 1
 111   46  109 1
 112   46  110 1
 113   46  111 1
 114   47   48 1
 115   47  112 1
 116   47  113 1
 117   48  114 1
 118   48  115 1
 119   49   50 2
 120   49   51 1
 121   51  116 1
 122   52  117 1
 123   52  118 1
 124   52  119 1
 125   53  120 1
 126   53  121 1
 127   53  122 1

#	End of record

