#	Name: ASD02500036
#	Creating user name:	WinNT
#	Creation time:	15. 06. 2019 20:22

#	Modifying user name:	WinNT
#	Modification time:	15. 06. 2019 20:22

#	Program:	/corina/corina34_cracker 3.40 0067  02.08.2006

@<TRIPOS>MOLECULE
ASD02500036
  57   61    0    0    0
SMALL
NO_CHARGES


@<TRIPOS>ATOM
   1 C1            -0.9564     2.6490    -1.4026 C.ar    
   2 N2            -1.3083     1.4909    -1.9292 N.ar    
   3 C3            -0.4296     0.5329    -2.1583 C.ar    
   4 C4             0.9035     0.7084    -1.8525 C.ar    
   5 C5             1.3172     1.9178    -1.2944 C.ar    
   6 C6             0.3569     2.9039    -1.0685 C.ar    
   7 N7             2.6532     2.1350    -0.9709 N.3     
   8 C8             2.8456     3.4746    -0.3997 C.3     
   9 C9             4.2853     3.6079     0.1078 C.3     
  10 N10            5.2015     3.2623    -0.9897 N.am    
  11 C11            4.9859     1.9942    -1.7029 C.3     
  12 C12            3.5186     1.9244    -2.1391 C.3     
  13 C13            6.2120     4.0856    -1.3324 C.2     
  14 O14            6.3114     5.1777    -0.8070 O.2     
  15 C15            7.1976     3.6618    -2.3450 C.ar    
  16 C16            7.7026     4.5886    -3.2617 C.ar    
  17 C17            8.6219     4.1902    -4.2051 C.ar    
  18 C18            9.0489     2.8658    -4.2472 C.ar    
  19 C19            8.5478     1.9405    -3.3356 C.ar    
  20 C20            7.6327     2.3340    -2.3862 C.ar    
  21 N21            9.9775     2.4663    -5.2019 N.am    
  22 S22           11.2743     1.5371    -4.7577 S.o2    
  23 O23           12.0837     1.3974    -5.9172 O.2     
  24 C24           12.2173     2.4759    -3.6027 C.ar    
  25 C25           12.8430     3.6681    -4.0064 C.ar    
  26 C26           13.5961     4.4057    -3.0593 C.ar    
  27 C27           13.7035     3.9359    -1.7407 C.ar    
  28 C28           13.0828     2.7767    -1.3867 C.ar    
  29 C29           12.3380     2.0524    -2.3149 C.ar    
  30 O30           10.7474     0.4299    -4.0396 O.2     
  31 N31           12.7378     4.1113    -5.2633 N.ar    
  32 C32           13.3196     5.2221    -5.6450 C.ar    
  33 C33           14.0743     5.9946    -4.7646 C.ar    
  34 C34           14.2220     5.5994    -3.4656 C.ar    
  35 H35           -1.7060     3.4083    -1.2353 H       
  36 H36           -0.7591    -0.4004    -2.5904 H       
  37 H37            1.6172    -0.0797    -2.0422 H       
  38 H38            0.6380     3.8536    -0.6379 H       
  39 H39            2.6589     4.2270    -1.1660 H       
  40 H40            2.1528     3.6195     0.4292 H       
  41 H41            4.4674     4.6340     0.4274 H       
  42 H42            4.4431     2.9274     0.9445 H       
  43 H43            5.6312     1.9534    -2.5804 H       
  44 H44            5.2111     1.1586    -1.0402 H       
  45 H45            3.3139     0.9451    -2.5716 H       
  46 H46            3.3226     2.6984    -2.8812 H       
  47 H47            7.3715     5.6161    -3.2298 H       
  48 H48            9.0121     4.9056    -4.9138 H       
  49 H49            8.8808     0.9137    -3.3710 H       
  50 H50            7.2447     1.6158    -1.6791 H       
  51 H51            9.8656     2.7318    -6.1281 H       
  52 H52           14.2754     4.4904    -1.0114 H       
  53 H53           13.1660     2.4161    -0.3721 H       
  54 H54           11.8548     1.1360    -2.0095 H       
  55 H55           13.2115     5.5470    -6.6693 H       
  56 H56           14.5419     6.9052    -5.1090 H       
  57 H57           14.8031     6.1862    -2.7696 H       
@<TRIPOS>BOND
   1    1    2 ar
   2    1    6 ar
   3    1   35 1
   4    2    3 ar
   5    3    4 ar
   6    3   36 1
   7    4    5 ar
   8    4   37 1
   9    5    6 ar
  10    5    7 1
  11    6   38 1
  12    7    8 1
  13    7   12 1
  14    8    9 1
  15    8   39 1
  16    8   40 1
  17    9   10 1
  18    9   41 1
  19    9   42 1
  20   10   11 1
  21   10   13 am
  22   11   12 1
  23   11   43 1
  24   11   44 1
  25   12   45 1
  26   12   46 1
  27   13   14 2
  28   13   15 1
  29   15   16 ar
  30   15   20 ar
  31   16   17 ar
  32   16   47 1
  33   17   18 ar
  34   17   48 1
  35   18   19 ar
  36   18   21 1
  37   19   20 ar
  38   19   49 1
  39   20   50 1
  40   21   22 am
  41   21   51 1
  42   22   23 2
  43   22   24 1
  44   22   30 2
  45   24   25 ar
  46   24   29 ar
  47   25   26 ar
  48   25   31 ar
  49   26   27 ar
  50   26   34 ar
  51   27   28 ar
  52   27   52 1
  53   28   29 ar
  54   28   53 1
  55   29   54 1
  56   31   32 ar
  57   32   33 ar
  58   32   55 1
  59   33   34 ar
  60   33   56 1
  61   34   57 1

#	End of record

