#	Name: ASD02560264
#	Creating user name:	WinNT
#	Creation time:	15. 06. 2019 20:24

#	Modifying user name:	WinNT
#	Modification time:	15. 06. 2019 20:24

#	Program:	/corina/corina34_cracker 3.40 0067  02.08.2006

@<TRIPOS>MOLECULE
ASD02560264
  31   33    0    0    0
SMALL
NO_CHARGES


@<TRIPOS>ATOM
   1 C1             1.1608     1.4194     1.5213 C.2     
   2 O2             1.2255     0.0811     1.6360 O.3     
   3 C3             0.8094    -0.2675     2.8663 C.2     
   4 N4             0.4890     0.8239     3.5148 N.2     
   5 N5             0.7199     1.9066     2.6538 N.2     
   6 N6             0.7325    -1.5601     3.3625 N.pl3   
   7 N7             1.5071     2.1567     0.3992 N.pl3   
   8 C8             1.4442     3.5536     0.4334 C.ar    
   9 C9             2.5787     4.2946     0.7422 C.ar    
  10 C10            2.5128     5.6748     0.7752 C.ar    
  11 C11            1.3199     6.3185     0.5014 C.ar    
  12 C12            0.1890     5.5845     0.1937 C.ar    
  13 C13            0.2486     4.2042     0.1532 C.ar    
  14 C14            0.3984    -1.7757     4.7028 C.ar    
  15 C15           -0.2620    -2.9394     5.0769 C.ar    
  16 C16           -0.5906    -3.1505     6.4014 C.ar    
  17 C17           -0.2634    -2.2041     7.3564 C.ar    
  18 C18            0.3944    -1.0428     6.9870 C.ar    
  19 C19            0.7311    -0.8295     5.6634 C.ar    
  20 Cl20          -0.6787    -2.4727     9.0205 Cl      
  21 Cl21           4.0767     3.4876     1.0867 Cl      
  22 Cl22          -1.1718     3.2839    -0.2331 Cl      
  23 Cl23           0.8023     0.1427     8.1878 Cl      
  24 H24            0.9105    -2.3148     2.7796 H       
  25 H25            1.7929     1.7038    -0.4096 H       
  26 H26            3.3939     6.2513     1.0154 H       
  27 H27            1.2713     7.3970     0.5282 H       
  28 H28           -0.7410     6.0907    -0.0192 H       
  29 H29           -0.5185    -3.6784     4.3322 H       
  30 H30           -1.1040    -4.0551     6.6922 H       
  31 H31            1.2445     0.0760     5.3753 H       
@<TRIPOS>BOND
   1    1    2 1
   2    1    7 1
   3    1    5 2
   4    2    3 1
   5    3    4 2
   6    3    6 1
   7    4    5 1
   8    6   14 1
   9    6   24 1
  10    7    8 1
  11    7   25 1
  12    8    9 ar
  13    8   13 ar
  14    9   10 ar
  15    9   21 1
  16   10   11 ar
  17   10   26 1
  18   11   12 ar
  19   11   27 1
  20   12   13 ar
  21   12   28 1
  22   13   22 1
  23   14   15 ar
  24   14   19 ar
  25   15   16 ar
  26   15   29 1
  27   16   17 ar
  28   16   30 1
  29   17   18 ar
  30   17   20 1
  31   18   19 ar
  32   18   23 1
  33   19   31 1

#	End of record

