#	Name: ASD01880254
#	Creating user name:	WinNT
#	Creation time:	15. 06. 2019 19:40

#	Modifying user name:	WinNT
#	Modification time:	15. 06. 2019 19:40

#	Program:	/corina/corina34_cracker 3.40 0067  02.08.2006

@<TRIPOS>MOLECULE
ASD01880254
  44   47    0    0    0
SMALL
NO_CHARGES


@<TRIPOS>ATOM
   1 C1            -0.1062     1.3345    -0.1718 C.3     
   2 N2             0.0482    -0.1225    -0.0653 N.3     
   3 C3             0.8104    -0.6618    -1.1994 C.3     
   4 C4             2.2284    -0.0812    -1.1799 C.3     
   5 N5             2.1320     1.3858    -1.1368 N.pl3   
   6 C6             1.2742     1.9969    -0.1101 C.3     
   7 C7            -1.1830    -0.7450     0.0457 C.ar    
   8 C8             2.8296     2.1695    -2.0371 C.2     
   9 C9             2.5503     2.0948    -3.4144 C.2     
  10 C10            3.2224     2.8526    -4.3012 C.2     
  11 N11            4.1986     3.7227    -3.9126 N.pl3   
  12 C12            4.5312     3.8560    -2.5894 C.2     
  13 C13            3.8199     3.0533    -1.5909 C.2     
  14 C14            5.0069     4.5833    -4.6138 C.2     
  15 C15            5.7965     5.2072    -3.7164 C.2     
  16 N16            5.4945     4.7541    -2.4937 N.2     
  17 C17            5.0111     4.7911    -6.1064 C.3     
  18 C18            4.1358     3.1622    -0.1985 C.1     
  19 N19            4.3864     3.2486     0.9062 N.1     
  20 N20           -1.2332    -2.0647     0.1517 N.ar    
  21 C21           -2.3935    -2.6907     0.2594 C.ar    
  22 C22           -3.5644    -1.9489     0.2604 C.ar    
  23 C23           -3.4756    -0.5703     0.1478 C.ar    
  24 N24           -2.2831    -0.0065     0.0488 N.ar    
  25 C25            6.0871     3.9079    -6.7413 C.3     
  26 F26            5.8150     2.5651    -6.4582 F       
  27 F27            6.0909     4.1008    -8.1269 F       
  28 F28            7.3391     4.2501    -6.2193 F       
  29 H29           -0.5860     1.5812    -1.1189 H       
  30 H30           -0.7204     1.6963     0.6528 H       
  31 H31            0.8609    -1.7478    -1.1201 H       
  32 H32            0.3178    -0.3874    -2.1322 H       
  33 H33            2.7586    -0.4394    -0.2974 H       
  34 H34            2.7616    -0.3868    -2.0801 H       
  35 H35            1.1766     3.0653    -0.3031 H       
  36 H36            1.7127     1.8385     0.8751 H       
  37 H37            1.7850     1.4185    -3.7656 H       
  38 H38            2.9820     2.7690    -5.3508 H       
  39 H39            6.5477     5.9484    -3.9459 H       
  40 H40            4.0356     4.5245    -6.5131 H       
  41 H41            5.2231     5.8373    -6.3270 H       
  42 H42           -2.4281    -3.7667     0.3452 H       
  43 H43           -4.5251    -2.4347     0.3467 H       
  44 H44           -4.3690     0.0365     0.1450 H       
@<TRIPOS>BOND
   1    1    2 1
   2    1    6 1
   3    1   29 1
   4    1   30 1
   5    2    3 1
   6    2    7 1
   7    3    4 1
   8    3   31 1
   9    3   32 1
  10    4    5 1
  11    4   33 1
  12    4   34 1
  13    5    6 1
  14    5    8 1
  15    6   35 1
  16    6   36 1
  17    7   20 ar
  18    7   24 ar
  19    8    9 1
  20    8   13 2
  21    9   10 2
  22    9   37 1
  23   10   11 1
  24   10   38 1
  25   11   12 1
  26   11   14 1
  27   12   13 1
  28   12   16 2
  29   13   18 1
  30   14   15 2
  31   14   17 1
  32   15   16 1
  33   15   39 1
  34   17   25 1
  35   17   40 1
  36   17   41 1
  37   18   19 3
  38   20   21 ar
  39   21   22 ar
  40   21   42 1
  41   22   23 ar
  42   22   43 1
  43   23   24 ar
  44   23   44 1
  45   25   26 1
  46   25   27 1
  47   25   28 1

#	End of record

