#	Name: ASD04550041
#	Creating user name:	WinNT
#	Creation time:	15. 06. 2019 20:49

#	Modifying user name:	WinNT
#	Modification time:	15. 06. 2019 20:49

#	Program:	/corina/corina34_cracker 3.40 0067  02.08.2006

@<TRIPOS>MOLECULE
ASD04550041
  30   30    0    0    0
SMALL
NO_CHARGES


@<TRIPOS>ATOM
   1 C1            -0.3097     1.4679     0.4857 C.ar    
   2 C2            -0.1089     0.1499     0.1021 C.ar    
   3 C3             1.1718    -0.2986    -0.1869 C.ar    
   4 C4             2.2436     0.5677    -0.0920 C.ar    
   5 C5             2.0409     1.8808     0.2910 C.ar    
   6 C6             0.7655     2.3303     0.5791 C.ar    
   7 C7             3.2120     2.8235     0.3947 C.3     
   8 C8             3.0078     3.9979    -0.5645 C.3     
   9 O9            -1.1650    -0.7008     0.0099 O.3     
  10 C10           -1.9583    -0.5733    -1.0659 C.2     
  11 C11           -3.2126    -1.4008    -1.1794 C.3     
  12 O12           -1.6664     0.2050    -1.9429 O.2     
  13 C13           -3.9280    -1.0654    -2.4896 C.3     
  14 C14            3.3175     3.3403     1.8063 C.2     
  15 O15            2.5232     2.9800     2.6425 O.2     
  16 O16            4.2939     4.2008     2.1348 O.3     
  17 H17           -1.3062     1.8206     0.7068 H       
  18 H18            1.3307    -1.3243    -0.4854 H       
  19 H19            3.2407     0.2191    -0.3168 H       
  20 H20            0.6097     3.3564     0.8777 H       
  21 H21            4.1283     2.2948     0.1318 H       
  22 H22            3.8549     4.6798    -0.4895 H       
  23 H23            2.9315     3.6241    -1.5855 H       
  24 H24            2.0915     4.5265    -0.3016 H       
  25 H25           -2.9519    -2.4591    -1.1684 H       
  26 H26           -3.8709    -1.1800    -0.3392 H       
  27 H27           -4.1887    -0.0071    -2.5006 H       
  28 H28           -3.2697    -1.2862    -3.3299 H       
  29 H29           -4.8352    -1.6639    -2.5718 H       
  30 H30            4.3210     4.5045     3.0525 H       
@<TRIPOS>BOND
   1    1    2 ar
   2    1    6 ar
   3    1   17 1
   4    2    3 ar
   5    2    9 1
   6    3    4 ar
   7    3   18 1
   8    4    5 ar
   9    4   19 1
  10    5    6 ar
  11    5    7 1
  12    6   20 1
  13    7    8 1
  14    7   14 1
  15    7   21 1
  16    8   22 1
  17    8   23 1
  18    8   24 1
  19    9   10 1
  20   10   11 1
  21   10   12 2
  22   11   13 1
  23   11   25 1
  24   11   26 1
  25   13   27 1
  26   13   28 1
  27   13   29 1
  28   14   15 2
  29   14   16 1
  30   16   30 1

#	End of record

