#	Name: ASD08150700
#	Creating user name:	WinNT
#	Creation time:	15. 06. 2019 21:16

#	Modifying user name:	WinNT
#	Modification time:	15. 06. 2019 21:16

#	Program:	/corina/corina34_cracker 3.40 0067  02.08.2006

@<TRIPOS>MOLECULE
ASD08150700
  51   55    0    0    0
SMALL
NO_CHARGES


@<TRIPOS>ATOM
   1 C1            -0.0173     1.3317     0.1136 C.2     
   2 N2            -0.0004     0.0024     0.2059 N.2     
   3 C3             1.1330    -0.6708     0.2926 C.2     
   4 C4             2.3484     0.0113     0.2886 C.2     
   5 C5             2.3336     1.4188     0.1910 C.2     
   6 N6             1.1445     2.0531     0.1046 N.am    
   7 C7            -1.2508     2.0010     0.0181 C.2     
   8 C8            -1.2710     3.3606    -0.0765 C.2     
   9 C9            -0.0631     4.0721    -0.0773 C.2     
  10 C10            1.1135     3.4117     0.0084 C.2     
  11 O11            3.3767     2.0516     0.1844 O.2     
  12 C12            1.1117    -2.1741     0.3960 C.3     
  13 C13            0.4493    -2.5854     1.7124 C.3     
  14 C14            0.5389    -4.1040     1.8758 C.3     
  15 N15            0.3529    -2.7302    -0.7271 N.pl3   
  16 N16           -1.0978    -4.1219    -3.0528 N.2     
  17 C17           -1.4142    -5.0557    -3.9023 C.2     
  18 N18           -0.6528    -6.1645    -3.6805 N.pl3   
  19 C19            0.1812    -5.8868    -2.6271 C.ar    
  20 N20            1.1231    -6.5587    -1.9734 N.ar    
  21 C21            1.7708    -6.0027    -0.9712 C.ar    
  22 N22            1.5259    -4.7702    -0.5656 N.ar    
  23 C23            0.6019    -4.0212    -1.1587 C.ar    
  24 C24           -0.1161    -4.5707    -2.2342 C.ar    
  25 C25            2.4054     4.1875    -0.0006 C.3     
  26 C26            4.0465    -1.2691     1.6043 C.ar    
  27 C27            3.6292    -0.7262     0.3854 C.ar    
  28 C28            4.4408    -0.8914    -0.7401 C.ar    
  29 C29            5.6286    -1.5894    -0.5972 C.ar    
  30 C30            5.9718    -2.0962     0.6419 C.ar    
  31 N31            5.1868    -1.9258     1.6893 N.ar    
  32 F32            3.2782    -1.1149     2.7048 F       
  33 H33           -2.1748     1.4418     0.0194 H       
  34 H34           -2.2115     3.8863    -0.1507 H       
  35 H35           -0.0723     5.1494    -0.1523 H       
  36 H36            2.1327    -2.5547     0.3686 H       
  37 H37            0.9605    -2.0998     2.5436 H       
  38 H38           -0.5977    -2.2822     1.7027 H       
  39 H39            0.0277    -4.5896     1.0446 H       
  40 H40            1.5858    -4.4073     1.8856 H       
  41 H41            0.0670    -4.3970     2.8136 H       
  42 H42           -0.3241    -2.1934    -1.1681 H       
  43 H43           -2.1690    -4.9657    -4.6694 H       
  44 H44           -0.6934    -6.9972    -4.1763 H       
  45 H45            2.5305    -6.5764    -0.4611 H       
  46 H46            3.0122     3.8729    -0.8497 H       
  47 H47            2.1891     5.2526    -0.0834 H       
  48 H48            2.9495     3.9981     0.9247 H       
  49 H49            4.1490    -0.4854    -1.6974 H       
  50 H50            6.2801    -1.7364    -1.4459 H       
  51 H51            6.8974    -2.6409     0.7550 H       
@<TRIPOS>BOND
   1    1    2 2
   2    1    6 1
   3    1    7 1
   4    2    3 1
   5    3    4 2
   6    3   12 1
   7    4    5 1
   8    4   27 1
   9    5    6 am
  10    5   11 2
  11    6   10 1
  12    7    8 2
  13    7   33 1
  14    8    9 1
  15    8   34 1
  16    9   10 2
  17    9   35 1
  18   10   25 1
  19   12   13 1
  20   12   15 1
  21   12   36 1
  22   13   14 1
  23   13   37 1
  24   13   38 1
  25   14   39 1
  26   14   40 1
  27   14   41 1
  28   15   23 1
  29   15   42 1
  30   16   17 2
  31   16   24 1
  32   17   18 1
  33   17   43 1
  34   18   19 1
  35   18   44 1
  36   19   20 ar
  37   19   24 ar
  38   20   21 ar
  39   21   22 ar
  40   21   45 1
  41   22   23 ar
  42   23   24 ar
  43   25   46 1
  44   25   47 1
  45   25   48 1
  46   26   27 ar
  47   26   31 ar
  48   26   32 1
  49   27   28 ar
  50   28   29 ar
  51   28   49 1
  52   29   30 ar
  53   29   50 1
  54   30   31 ar
  55   30   51 1

#	End of record

