#	Name: ASD02470006
#	Creating user name:	WinNT
#	Creation time:	15. 06. 2019 20:22

#	Modifying user name:	WinNT
#	Modification time:	15. 06. 2019 20:22

#	Program:	/corina/corina34_cracker 3.40 0067  02.08.2006

@<TRIPOS>MOLECULE
ASD02470006
  16   15    0    0    0
SMALL
NO_CHARGES


@<TRIPOS>ATOM
   1 C1            -0.0181     1.4864     0.0102 C.2     
   2 C2             0.0021    -0.0041     0.0020 C.2     
   3 C3             1.3172    -0.7397    -0.0145 C.3     
   4 C4             1.7761    -0.9964     1.4223 C.3     
   5 C5             1.1455    -2.0751    -0.7413 C.3     
   6 O6             1.0237     2.1070     0.0036 O.2     
   7 O7            -1.1927     2.1434     0.0194 O.3     
   8 O8            -1.0356    -0.6221     0.0086 O.2     
   9 H9             2.0639    -0.1376    -0.5322 H       
  10 H10            1.8984    -0.0451     1.9401 H       
  11 H11            1.0294    -1.5985     1.9401 H       
  12 H12            2.7273    -1.5285     1.4104 H       
  13 H13            0.8186    -1.8922    -1.7649 H       
  14 H14            2.0968    -2.6072    -0.7533 H       
  15 H15            0.3989    -2.6772    -0.2236 H       
  16 H16           -1.1552     3.1097     0.0244 H       
@<TRIPOS>BOND
   1    1    2 1
   2    1    6 2
   3    1    7 1
   4    2    3 1
   5    2    8 2
   6    3    4 1
   7    3    5 1
   8    3    9 1
   9    4   10 1
  10    4   11 1
  11    4   12 1
  12    5   13 1
  13    5   14 1
  14    5   15 1
  15    7   16 1

#	End of record

