#	Name: ASD01420005
#	Creating user name:	WinNT
#	Creation time:	15. 06. 2019 19:20

#	Modifying user name:	WinNT
#	Modification time:	15. 06. 2019 19:20

#	Program:	/corina/corina34_cracker 3.40 0067  02.08.2006

@<TRIPOS>MOLECULE
ASD01420005
  56   59    0    0    0
SMALL
NO_CHARGES


@<TRIPOS>ATOM
   1 C1            -0.0179     1.4673     0.0101 C.2     
   2 C2             0.0021    -0.0041     0.0020 C.ar    
   3 C3             1.2255    -0.6923    -0.0134 C.ar    
   4 C4             1.2354    -2.0762    -0.0209 C.ar    
   5 C5             0.0397    -2.7794    -0.0133 C.ar    
   6 C6            -1.1749    -2.0988     0.0015 C.ar    
   7 C7            -1.1981    -0.7229     0.0154 C.ar    
   8 O8             1.0263     2.0892     0.0035 O.2     
   9 O9            -1.1942     2.1253     0.0193 O.3     
  10 Br10          -2.7983    -3.0686     0.0111 Br      
  11 O11            0.0538    -4.1365    -0.0208 O.3     
  12 C12            1.3337    -4.7719    -0.0364 C.3     
  13 C13            1.1518    -6.2678    -0.0428 C.ar    
  14 C14            1.0569    -6.9475    -1.2428 C.ar    
  15 C15            0.8901    -8.3197    -1.2486 C.ar    
  16 C16            0.8184    -9.0123    -0.0544 C.ar    
  17 C17            0.9142    -8.3328     1.1455 C.ar    
  18 C18            1.0854    -6.9611     1.1513 C.ar    
  19 O19            2.3940    -0.0032    -0.0212 O.3     
  20 C20            3.5995    -0.7705    -0.0368 C.3     
  21 C21            4.7861     0.1585    -0.0436 C.ar    
  22 C22            5.3420     0.5784     1.1503 C.ar    
  23 C23            6.4304     1.4306     1.1441 C.ar    
  24 C24            6.9633     1.8624    -0.0562 C.ar    
  25 C25            6.4080     1.4417    -1.2501 C.ar    
  26 C26            5.3222     0.5861    -1.2439 C.ar    
  27 C27           -1.1379     3.5762     0.0269 C.3     
  28 C28           -2.5381     4.1332     0.0366 C.ar    
  29 C29           -3.1747     4.3821     1.2381 C.ar    
  30 C30           -4.4591     4.8930     1.2470 C.ar    
  31 C31           -5.1068     5.1554     0.0543 C.ar    
  32 C32           -4.4700     4.9073    -1.1473 C.ar    
  33 C33           -3.1839     4.4004    -1.1561 C.ar    
  34 H34            2.1747    -2.6091    -0.0331 H       
  35 H35           -2.1420    -0.1984     0.0318 H       
  36 H36            1.8791    -4.4684    -0.9300 H       
  37 H37            1.8961    -4.4780     0.8498 H       
  38 H38            1.1129    -6.4063    -2.1758 H       
  39 H39            0.8153    -8.8506    -2.1861 H       
  40 H40            0.6873   -10.0843    -0.0590 H       
  41 H41            0.8579    -8.8739     2.0785 H       
  42 H42            1.1639    -6.4306     2.0888 H       
  43 H43            3.6388    -1.4035     0.8496 H       
  44 H44            3.6215    -1.3945    -0.9302 H       
  45 H45            4.9257     0.2411     2.0880 H       
  46 H46            6.8643     1.7593     2.0769 H       
  47 H47            7.8132     2.5287    -0.0610 H       
  48 H48            6.8241     1.7793    -2.1878 H       
  49 H49            4.8907     0.2545    -2.1767 H       
  50 H50           -0.6061     3.9145     0.9162 H       
  51 H51           -0.6146     3.9241    -0.8637 H       
  52 H52           -2.6686     4.1772     2.1699 H       
  53 H53           -4.9567     5.0869     2.1857 H       
  54 H54           -6.1106     5.5539     0.0612 H       
  55 H55           -4.9762     5.1119    -2.0791 H       
  56 H56           -2.6849     4.2101    -2.0948 H       
@<TRIPOS>BOND
   1    1    2 1
   2    1    8 2
   3    1    9 1
   4    2    3 ar
   5    2    7 ar
   6    3    4 ar
   7    3   19 1
   8    4    5 ar
   9    4   34 1
  10    5    6 ar
  11    5   11 1
  12    6    7 ar
  13    6   10 1
  14    7   35 1
  15    9   27 1
  16   11   12 1
  17   12   13 1
  18   12   36 1
  19   12   37 1
  20   13   14 ar
  21   13   18 ar
  22   14   15 ar
  23   14   38 1
  24   15   16 ar
  25   15   39 1
  26   16   17 ar
  27   16   40 1
  28   17   18 ar
  29   17   41 1
  30   18   42 1
  31   19   20 1
  32   20   21 1
  33   20   43 1
  34   20   44 1
  35   21   22 ar
  36   21   26 ar
  37   22   23 ar
  38   22   45 1
  39   23   24 ar
  40   23   46 1
  41   24   25 ar
  42   24   47 1
  43   25   26 ar
  44   25   48 1
  45   26   49 1
  46   27   28 1
  47   27   50 1
  48   27   51 1
  49   28   29 ar
  50   28   33 ar
  51   29   30 ar
  52   29   52 1
  53   30   31 ar
  54   30   53 1
  55   31   32 ar
  56   31   54 1
  57   32   33 ar
  58   32   55 1
  59   33   56 1

#	End of record

