#	Name: ASD08150416
#	Creating user name:	WinNT
#	Creation time:	15. 06. 2019 21:16

#	Modifying user name:	WinNT
#	Modification time:	15. 06. 2019 21:16

#	Program:	/corina/corina34_cracker 3.40 0067  02.08.2006

@<TRIPOS>MOLECULE
ASD08150416
  53   57    0    0    0
SMALL
NO_CHARGES


@<TRIPOS>ATOM
   1 N1             0.4981     1.3120    -0.4300 N.2     
   2 C2             0.5677     0.0157    -0.4031 C.2     
   3 N3             1.7284    -0.6667    -0.2077 N.am    
   4 C4             2.8947    -0.0042    -0.0278 C.2     
   5 C5             2.8497     1.4649    -0.0534 C.ar    
   6 C6             3.9942     2.2403     0.1220 C.ar    
   7 C7             3.8950     3.6140     0.0893 C.ar    
   8 C8             2.6667     4.2288    -0.1161 C.ar    
   9 C9             1.5241     3.4811    -0.2911 C.ar    
  10 C10            1.5987     2.0869    -0.2625 C.ar    
  11 O11            3.9405    -0.6017     0.1488 O.2     
  12 C12            1.7160    -2.0672    -0.1923 C.ar    
  13 C13            2.0753    -2.7788    -1.3293 C.ar    
  14 C14            2.0625    -4.1597    -1.3108 C.ar    
  15 C15            1.6925    -4.8338    -0.1615 C.ar    
  16 C16            1.3337    -4.1281     0.9723 C.ar    
  17 C17            1.3500    -2.7471     0.9619 C.ar    
  18 C18            5.3306     1.5810     0.3464 C.3     
  19 C19           -0.7017    -0.7729    -0.5975 C.3     
  20 C20           -1.9083     0.1514    -0.4225 C.3     
  21 C21           -3.1470    -0.6412    -0.4861 C.1     
  22 C22           -4.1349    -1.2734    -0.5369 C.1     
  23 N23           -0.7181    -1.3474    -1.9451 N.pl3   
  24 N24           -0.9125    -2.7371    -4.6775 N.2     
  25 C25           -1.2730    -3.6066    -5.5754 C.2     
  26 N26           -2.1041    -4.5342    -5.0181 N.pl3   
  27 C27           -2.2581    -4.2061    -3.6949 C.ar    
  28 N28           -2.9317    -4.7249    -2.6732 N.ar    
  29 C29           -2.8791    -4.1619    -1.4769 C.ar    
  30 N30           -2.1634    -3.0704    -1.2387 N.ar    
  31 C31           -1.4604    -2.4863    -2.2027 C.ar    
  32 C32           -1.4873    -3.0498    -3.4900 C.ar    
  33 N33           -3.5954    -4.7320    -0.4374 N.pl3   
  34 H34            4.7800     4.2180     0.2249 H       
  35 H35            2.6071     5.3069    -0.1385 H       
  36 H36            0.5744     3.9705    -0.4494 H       
  37 H37            2.3640    -2.2529    -2.2274 H       
  38 H38            2.3415    -4.7137    -2.1949 H       
  39 H39            1.6833    -5.9137    -0.1494 H       
  40 H40            1.0445    -4.6574     1.8682 H       
  41 H41            1.0740    -2.1965     1.8491 H       
  42 H42            5.7892     1.3526    -0.6156 H       
  43 H43            5.9786     2.2548     0.9070 H       
  44 H44            5.1906     0.6588     0.9103 H       
  45 H45           -0.7480    -1.5744     0.1397 H       
  46 H46           -1.8459     0.6511     0.5443 H       
  47 H47           -1.9129     0.8973    -1.2173 H       
  48 H48           -5.0185    -1.8389    -0.5823 H       
  49 H49           -0.2086    -0.9293    -2.6568 H       
  50 H50           -0.9606    -3.5959    -6.6091 H       
  51 H51           -2.5115    -5.2873    -5.4738 H       
  52 H52           -4.1239    -5.5304    -0.5931 H       
  53 H53           -3.5686    -4.3329     0.4463 H       
@<TRIPOS>BOND
   1    1    2 2
   2    1   10 1
   3    2    3 1
   4    2   19 1
   5    3    4 am
   6    3   12 1
   7    4    5 1
   8    4   11 2
   9    5    6 ar
  10    5   10 ar
  11    6    7 ar
  12    6   18 1
  13    7    8 ar
  14    7   34 1
  15    8    9 ar
  16    8   35 1
  17    9   10 ar
  18    9   36 1
  19   12   13 ar
  20   12   17 ar
  21   13   14 ar
  22   13   37 1
  23   14   15 ar
  24   14   38 1
  25   15   16 ar
  26   15   39 1
  27   16   17 ar
  28   16   40 1
  29   17   41 1
  30   18   42 1
  31   18   43 1
  32   18   44 1
  33   19   20 1
  34   19   23 1
  35   19   45 1
  36   20   21 1
  37   20   46 1
  38   20   47 1
  39   21   22 3
  40   22   48 1
  41   23   31 1
  42   23   49 1
  43   24   25 2
  44   24   32 1
  45   25   26 1
  46   25   50 1
  47   26   27 1
  48   26   51 1
  49   27   28 ar
  50   27   32 ar
  51   28   29 ar
  52   29   30 ar
  53   29   33 1
  54   30   31 ar
  55   31   32 ar
  56   33   52 1
  57   33   53 1

#	End of record

