#	Name: ASD07931115
#	Creating user name:	WinNT
#	Creation time:	15. 06. 2019 21:13

#	Modifying user name:	WinNT
#	Modification time:	15. 06. 2019 21:13

#	Program:	/corina/corina34_cracker 3.40 0067  02.08.2006

@<TRIPOS>MOLECULE
ASD07931115
  66   72    0    0    0
SMALL
NO_CHARGES


@<TRIPOS>ATOM
   1 C1            -0.0169     1.3965     0.0097 C.ar    
   2 N2             0.0021    -0.0041     0.0020 N.am    
   3 N3            -0.0766    -0.8097     1.1408 N.2     
   4 C4            -0.0352    -2.0721     0.8247 C.2     
   5 C5             0.0814    -2.1540    -0.6492 C.2     
   6 C6             0.0932    -0.7683    -1.1077 C.2     
   7 O7             0.1767    -0.3787    -2.2611 O.2     
   8 C8            -0.0765    -3.3451     1.5694 C.ar    
   9 C9            -0.0033    -4.5445     0.8414 C.ar    
  10 N10            0.1049    -4.5233    -0.5384 N.pl3   
  11 C11            0.1440    -3.3861    -1.2513 C.2     
  12 C12           -0.1842    -3.3729     2.9559 C.ar    
  13 C13           -0.2191    -4.5848     3.6148 C.ar    
  14 C14           -0.1472    -5.7693     2.8998 C.ar    
  15 C15           -0.0406    -5.7550     1.5245 C.ar    
  16 C16            1.1746     2.1084     0.0022 C.ar    
  17 C17            1.1527     3.4899     0.0093 C.ar    
  18 C18           -0.0539     4.1645     0.0240 C.ar    
  19 C19           -1.2440     3.4599     0.0316 C.ar    
  20 C20           -1.2301     2.0773     0.0191 C.ar    
  21 F21           -2.3924     1.3887     0.0265 F       
  22 C22            0.1790    -5.7997    -1.2536 C.3     
  23 C23           -1.2119    -6.2571    -1.6102 C.ar    
  24 C24           -1.7823    -5.8835    -2.8124 C.ar    
  25 N25           -2.9980    -6.2765    -3.1358 N.ar    
  26 C26           -3.7195    -7.0419    -2.3271 C.ar    
  27 C27           -3.2062    -7.4558    -1.0990 C.ar    
  28 C28           -1.9301    -7.0624    -0.7368 C.ar    
  29 C29           -5.0830    -7.4598    -2.7327 C.ar    
  30 C30           -5.8923    -8.1750    -1.8544 C.ar    
  31 N31           -7.1049    -8.5487    -2.2103 N.ar    
  32 C32           -7.6000    -8.2627    -3.4052 C.ar    
  33 C33           -6.8495    -7.5504    -4.3375 C.ar    
  34 C34           -5.5764    -7.1356    -4.0024 C.ar    
  35 N35           -8.8833    -8.6788    -3.7327 N.3     
  36 C36           -9.5003    -9.4106    -2.6176 C.3     
  37 C37           -8.8766    -9.4949    -4.9548 C.3     
  38 C38          -10.3145    -9.8660    -5.3252 C.3     
  39 N39          -10.9315   -10.5978    -4.2101 N.3     
  40 C40          -10.9382    -9.7817    -2.9880 C.3     
  41 H41            0.2292    -3.4422    -2.3264 H       
  42 H42           -0.2399    -2.4501     3.5142 H       
  43 H43           -0.3023    -4.6100     4.6913 H       
  44 H44           -0.1749    -6.7131     3.4242 H       
  45 H45            0.0147    -6.6848     0.9779 H       
  46 H46            2.1180     1.5829    -0.0089 H       
  47 H47            2.0799     4.0438     0.0038 H       
  48 H48           -0.0673     5.2445     0.0299 H       
  49 H49           -2.1850     3.9899     0.0434 H       
  50 H50            0.7643    -5.6724    -2.1642 H       
  51 H51            0.6548    -6.5457    -0.6171 H       
  52 H52           -1.2244    -5.2607    -3.4960 H       
  53 H53           -3.7948    -8.0782    -0.4413 H       
  54 H54           -1.5056    -7.3678     0.2081 H       
  55 H55           -5.5226    -8.4265    -0.8713 H       
  56 H56           -7.2605    -7.3216    -5.3097 H       
  57 H57           -4.9724    -6.5814    -4.7055 H       
  58 H58           -8.9303   -10.3181    -2.4185 H       
  59 H59           -9.5049    -8.7811    -1.7278 H       
  60 H60           -8.4264    -8.9269    -5.7690 H       
  61 H61           -8.2995   -10.4034    -4.7823 H       
  62 H62          -10.8845    -8.9585    -5.5243 H       
  63 H63          -10.3099   -10.4955    -6.2150 H       
  64 H64          -11.8642   -10.9002    -4.4481 H       
  65 H65          -11.3884   -10.3497    -2.1738 H       
  66 H66          -11.5153    -8.8732    -3.1605 H       
@<TRIPOS>BOND
   1    1    2 1
   2    1   16 ar
   3    1   20 ar
   4    2    3 1
   5    2    6 am
   6    3    4 2
   7    4    5 1
   8    4    8 1
   9    5    6 1
  10    5   11 2
  11    6    7 2
  12    8    9 ar
  13    8   12 ar
  14    9   10 1
  15    9   15 ar
  16   10   11 1
  17   10   22 1
  18   11   41 1
  19   12   13 ar
  20   12   42 1
  21   13   14 ar
  22   13   43 1
  23   14   15 ar
  24   14   44 1
  25   15   45 1
  26   16   17 ar
  27   16   46 1
  28   17   18 ar
  29   17   47 1
  30   18   19 ar
  31   18   48 1
  32   19   20 ar
  33   19   49 1
  34   20   21 1
  35   22   23 1
  36   22   50 1
  37   22   51 1
  38   23   24 ar
  39   23   28 ar
  40   24   25 ar
  41   24   52 1
  42   25   26 ar
  43   26   27 ar
  44   26   29 1
  45   27   28 ar
  46   27   53 1
  47   28   54 1
  48   29   30 ar
  49   29   34 ar
  50   30   31 ar
  51   30   55 1
  52   31   32 ar
  53   32   33 ar
  54   32   35 1
  55   33   34 ar
  56   33   56 1
  57   34   57 1
  58   35   36 1
  59   35   37 1
  60   36   40 1
  61   36   58 1
  62   36   59 1
  63   37   38 1
  64   37   60 1
  65   37   61 1
  66   38   39 1
  67   38   62 1
  68   38   63 1
  69   39   40 1
  70   39   64 1
  71   40   65 1
  72   40   66 1

#	End of record

