#	Name: ASD08178215
#	Creating user name:	WinNT
#	Creation time:	15. 06. 2019 21:18

#	Modifying user name:	WinNT
#	Modification time:	15. 06. 2019 21:18

#	Program:	/corina/corina34_cracker 3.40 0067  02.08.2006

@<TRIPOS>MOLECULE
ASD08178215
  64   67    0    0    0
SMALL
NO_CHARGES


@<TRIPOS>ATOM
   1 C1            -0.0191     1.5027     0.0207 C.ar    
   2 C2             0.0010    -0.0042     0.0166 C.3     
   3 C3            -0.8034    -0.5283     1.2078 C.3     
   4 C4            -0.7830    -2.0581     1.2036 C.3     
   5 C5            -1.5874    -2.5822     2.3949 C.3     
   6 C6            -1.5673    -4.0891     2.3907 C.2     
   7 N7            -0.6926    -4.8430     2.9773 N.2     
   8 N8            -0.8493    -6.0898     2.8558 N.2     
   9 C9            -1.8644    -6.5050     2.1598 C.2     
  10 S10           -2.7350    -5.1430     1.5925 S.3     
  11 N11           -2.1931    -7.8348     1.9197 N.am    
  12 C12           -1.4281    -8.8206     2.4289 C.2     
  13 C13           -1.7844   -10.2616     2.1687 C.3     
  14 O14           -0.4530    -8.5481     3.0966 O.2     
  15 C15           -0.7780   -11.1576     2.8435 C.ar    
  16 C16           -0.9907   -11.5805     4.1426 C.ar    
  17 C17           -0.0683   -12.4020     4.7630 C.ar    
  18 C18            1.0681   -12.8016     4.0852 C.ar    
  19 C19            1.2819   -12.3792     2.7843 C.ar    
  20 C20            0.3543   -11.5608     2.1618 C.ar    
  21 C21            1.1732     2.2126     0.0064 C.ar    
  22 C22           -0.3014   -12.8616     6.1792 C.3     
  23 F23           -1.0155   -14.0646     6.1674 F       
  24 F24            0.9296   -13.0562     6.8148 F       
  25 F25           -1.0346   -11.8908     6.8699 F       
  26 C26            1.1070     3.5972     0.0109 C.ar    
  27 C27           -0.1543     4.1901     0.0295 C.ar    
  28 N28           -1.2375     3.4281     0.0422 N.ar    
  29 N29           -1.1695     2.1465     0.0324 N.ar    
  30 N30           -0.2752     5.5793     0.0353 N.am    
  31 C31           -1.4930     6.1501    -0.0517 C.2     
  32 C32           -1.6348     7.6454     0.0713 C.3     
  33 O33           -2.4747     5.4604    -0.2290 O.2     
  34 C34           -3.0873     8.0247    -0.0606 C.ar    
  35 C35           -3.8898     8.0884     1.0632 C.ar    
  36 C36           -5.2222     8.4363     0.9422 C.ar    
  37 C37           -5.7519     8.7211    -0.3024 C.ar    
  38 C38           -4.9492     8.6583    -1.4261 C.ar    
  39 C39           -3.6158     8.3146    -1.3046 C.ar    
  40 F40            2.3925   -12.7689     2.1209 F       
  41 H41           -0.4409    -0.3709    -0.9099 H       
  42 H42            1.0307    -0.3540     0.0914 H       
  43 H43           -0.3615    -0.1615     2.1343 H       
  44 H44           -1.8331    -0.1785     1.1331 H       
  45 H45           -1.2249    -2.4249     0.2772 H       
  46 H46            0.2467    -2.4079     1.2784 H       
  47 H47           -1.1455    -2.2155     3.3213 H       
  48 H48           -2.6171    -2.2324     2.3201 H       
  49 H49           -2.9730    -8.0528     1.3857 H       
  50 H50           -2.7782   -10.4676     2.5661 H       
  51 H51           -1.7761   -10.4498     1.0951 H       
  52 H52           -1.8781   -11.2684     4.6732 H       
  53 H53            1.7890   -13.4429     4.5703 H       
  54 H54            0.5199   -11.2310     1.1469 H       
  55 H55            2.1245     1.7015    -0.0074 H       
  56 H56            2.0046     4.1977     0.0007 H       
  57 H57            0.5172     6.1348     0.1018 H       
  58 H58           -1.2622     7.9669     1.0438 H       
  59 H59           -1.0595     8.1310    -0.7169 H       
  60 H60           -3.4760     7.8659     2.0356 H       
  61 H61           -5.8494     8.4853     1.8201 H       
  62 H62           -6.7931     8.9922    -0.3970 H       
  63 H63           -5.3632     8.8805    -2.3985 H       
  64 H64           -2.9886     8.2656    -2.1825 H       
@<TRIPOS>BOND
   1    1    2 1
   2    1   21 ar
   3    1   29 ar
   4    2    3 1
   5    2   41 1
   6    2   42 1
   7    3    4 1
   8    3   43 1
   9    3   44 1
  10    4    5 1
  11    4   45 1
  12    4   46 1
  13    5    6 1
  14    5   47 1
  15    5   48 1
  16    6    7 2
  17    6   10 1
  18    7    8 1
  19    8    9 2
  20    9   10 1
  21    9   11 1
  22   11   12 am
  23   11   49 1
  24   12   13 1
  25   12   14 2
  26   13   15 1
  27   13   50 1
  28   13   51 1
  29   15   16 ar
  30   15   20 ar
  31   16   17 ar
  32   16   52 1
  33   17   18 ar
  34   17   22 1
  35   18   19 ar
  36   18   53 1
  37   19   20 ar
  38   19   40 1
  39   20   54 1
  40   21   26 ar
  41   21   55 1
  42   22   23 1
  43   22   24 1
  44   22   25 1
  45   26   27 ar
  46   26   56 1
  47   27   28 ar
  48   27   30 1
  49   28   29 ar
  50   30   31 am
  51   30   57 1
  52   31   32 1
  53   31   33 2
  54   32   34 1
  55   32   58 1
  56   32   59 1
  57   34   35 ar
  58   34   39 ar
  59   35   36 ar
  60   35   60 1
  61   36   37 ar
  62   36   61 1
  63   37   38 ar
  64   37   62 1
  65   38   39 ar
  66   38   63 1
  67   39   64 1

#	End of record

