#	Name: ASD02900005
#	Creating user name:	WinNT
#	Creation time:	15. 06. 2019 20:26

#	Modifying user name:	WinNT
#	Modification time:	15. 06. 2019 20:26

#	Program:	/corina/corina34_cracker 3.40 0067  02.08.2006

@<TRIPOS>MOLECULE
ASD02900005
  33   34    0    0    0
SMALL
NO_CHARGES


@<TRIPOS>ATOM
   1 C1            -0.0167     1.3837     0.0096 C.ar    
   2 C2             0.0021    -0.0041     0.0020 C.ar    
   3 C3             1.1967    -0.6906    -0.0126 C.ar    
   4 C4             2.3970     0.0119    -0.0203 C.ar    
   5 C5             2.3725     1.4187    -0.0129 C.ar    
   6 C6             1.1508     2.0939     0.0023 C.ar    
   7 N7             3.7195    -0.3711    -0.0350 N.pl3   
   8 C8             4.5243     0.7355    -0.0372 C.2     
   9 C9             3.7731     1.8479    -0.0243 C.2     
  10 C10            4.2753     3.2687    -0.0220 C.3     
  11 C11            4.3401     3.7844     1.4170 C.3     
  12 C12            4.8499     5.2270     1.4193 C.3     
  13 O13            5.0212     5.6695     2.7672 O.3     
  14 P14            5.5463     7.1435     3.1462 P.3     
  15 O15            4.4686     8.2378     2.6634 O.3     
  16 O16            5.7418     7.2500     4.7407 O.3     
  17 O17            6.8400     7.3946     2.4727 O.2     
  18 O18            5.5800     3.3137    -0.6033 O.3     
  19 O19            3.0354     3.7394     1.9983 O.3     
  20 H20           -0.9617     1.9065     0.0169 H       
  21 H21           -0.9290    -0.5514     0.0080 H       
  22 H22            1.2009    -1.7706    -0.0177 H       
  23 H23            1.1284     3.1736     0.0080 H       
  24 H24            4.0338    -1.2888    -0.0423 H       
  25 H25            5.6041     0.7167    -0.0474 H       
  26 H26            3.5973     3.8947    -0.6022 H       
  27 H27            5.0181     3.1585     1.9971 H       
  28 H28            5.8053     5.2755     0.8968 H       
  29 H29            4.1272     5.8686     0.9153 H       
  30 H30            3.5953     8.1339     3.0655 H       
  31 H31            6.0573     8.1132     5.0415 H       
  32 H32            6.2367     2.7782    -0.1376 H       
  33 H33            2.3786     4.2750     1.5325 H       
@<TRIPOS>BOND
   1    1    2 ar
   2    1    6 ar
   3    1   20 1
   4    2    3 ar
   5    2   21 1
   6    3    4 ar
   7    3   22 1
   8    4    5 ar
   9    4    7 1
  10    5    6 ar
  11    5    9 1
  12    6   23 1
  13    7    8 1
  14    7   24 1
  15    8    9 2
  16    8   25 1
  17    9   10 1
  18   10   11 1
  19   10   18 1
  20   10   26 1
  21   11   12 1
  22   11   19 1
  23   11   27 1
  24   12   13 1
  25   12   28 1
  26   12   29 1
  27   13   14 1
  28   14   15 1
  29   14   16 1
  30   14   17 2
  31   15   30 1
  32   16   31 1
  33   18   32 1
  34   19   33 1

#	End of record

