#	Name: ASD01148751
#	Creating user name:	WinNT
#	Creation time:	15. 06. 2019 19:03

#	Modifying user name:	WinNT
#	Modification time:	15. 06. 2019 19:03

#	Program:	/corina/corina34_cracker 3.40 0067  02.08.2006

@<TRIPOS>MOLECULE
ASD01148751
  55   57    0    0    0
SMALL
NO_CHARGES


@<TRIPOS>ATOM
   1 N1             0.0734     0.2636     1.4023 N.pl3   
   2 C2             0.3539    -0.9724     0.9215 C.2     
   3 C3             1.6757    -0.9916     0.5307 C.2     
   4 C4             2.2055     0.2985     0.7931 C.2     
   5 C5             1.2035     1.0437     1.3254 C.2     
   6 C6             2.4009    -2.1348    -0.0495 C.2     
   7 O7             2.1852    -3.2610     0.3560 O.2     
   8 N8             3.3036    -1.9329    -1.0297 N.am    
   9 C9             3.6466    -0.5690    -1.4401 C.3     
  10 C10            3.9419    -3.0773    -1.6848 C.3     
  11 C11            3.1062    -3.5046    -2.8931 C.3     
  12 O12            3.1102    -2.4602    -3.8684 O.3     
  13 C13            2.3542    -2.7594    -5.0435 C.3     
  14 C14           -1.1705     0.6815     1.8935 C.ar    
  15 C15           -1.6754     0.1338     3.0652 C.ar    
  16 C16           -2.9020     0.5477     3.5468 C.ar    
  17 C17           -3.6271     1.5063     2.8630 C.ar    
  18 C18           -3.1269     2.0537     1.6958 C.ar    
  19 C19           -1.8982     1.6483     1.2125 C.ar    
  20 S20           -5.1920     2.0309     3.4800 S.o2    
  21 O21           -5.9105     2.5445     2.3669 O.2     
  22 O22           -5.6761     0.9737     4.2969 O.2     
  23 N23           -4.9155     3.3135     4.4904 N.am    
  24 C24           -0.6119    -2.1257     0.8302 C.3     
  25 C25            1.3090     2.4563     1.7503 C.ar    
  26 C26            0.3864     2.9870     2.6529 C.ar    
  27 C27            0.4902     4.3052     3.0460 C.ar    
  28 C28            1.5070     5.1015     2.5465 C.ar    
  29 C29            2.4250     4.5805     1.6504 C.ar    
  30 C30            2.3350     3.2620     1.2548 C.ar    
  31 Cl31           1.6309     6.7596     3.0454 Cl      
  32 H32            3.2173     0.6261     0.6051 H       
  33 H33            4.4189    -0.1742    -0.7799 H       
  34 H34            4.0161    -0.5801    -2.4655 H       
  35 H35            2.7600     0.0622    -1.3802 H       
  36 H36            4.9415    -2.7954    -2.0158 H       
  37 H37            4.0126    -3.9061    -0.9805 H       
  38 H38            3.5318    -4.4091    -3.3276 H       
  39 H39            2.0823    -3.7012    -2.5754 H       
  40 H40            1.3146    -2.9406    -4.7704 H       
  41 H41            2.4071    -1.9175    -5.7338 H       
  42 H42            2.7642    -3.6485    -5.5227 H       
  43 H43           -1.1099    -0.6154     3.5992 H       
  44 H44           -3.2953     0.1221     4.4581 H       
  45 H45           -3.6956     2.8021     1.1640 H       
  46 H46           -1.5058     2.0797     0.3035 H       
  47 H47           -5.5880     4.0053     4.5911 H       
  48 H48           -4.0812     3.3731     4.9815 H       
  49 H49           -1.1190    -2.0994    -0.1343 H       
  50 H50           -0.0670    -3.0646     0.9287 H       
  51 H51           -1.3482    -2.0473     1.6301 H       
  52 H52           -0.4074     2.3671     3.0425 H       
  53 H53           -0.2232     4.7171     3.7444 H       
  54 H54            3.2156     5.2065     1.2636 H       
  55 H55            3.0545     2.8554     0.5595 H       
@<TRIPOS>BOND
   1    1    2 1
   2    1    5 1
   3    1   14 1
   4    2    3 2
   5    2   24 1
   6    3    4 1
   7    3    6 1
   8    4    5 2
   9    4   32 1
  10    5   25 1
  11    6    7 2
  12    6    8 am
  13    8    9 1
  14    8   10 1
  15    9   33 1
  16    9   34 1
  17    9   35 1
  18   10   11 1
  19   10   36 1
  20   10   37 1
  21   11   12 1
  22   11   38 1
  23   11   39 1
  24   12   13 1
  25   13   40 1
  26   13   41 1
  27   13   42 1
  28   14   15 ar
  29   14   19 ar
  30   15   16 ar
  31   15   43 1
  32   16   17 ar
  33   16   44 1
  34   17   18 ar
  35   17   20 1
  36   18   19 ar
  37   18   45 1
  38   19   46 1
  39   20   21 2
  40   20   22 2
  41   20   23 am
  42   23   47 1
  43   23   48 1
  44   24   49 1
  45   24   50 1
  46   24   51 1
  47   25   26 ar
  48   25   30 ar
  49   26   27 ar
  50   26   52 1
  51   27   28 ar
  52   27   53 1
  53   28   29 ar
  54   28   31 1
  55   29   30 ar
  56   29   54 1
  57   30   55 1

#	End of record

