#	Name: ASD03092503
#	Creating user name:	WinNT
#	Creation time:	15. 06. 2019 20:32

#	Modifying user name:	WinNT
#	Modification time:	15. 06. 2019 20:32

#	Program:	/corina/corina34_cracker 3.40 0067  02.08.2006

@<TRIPOS>MOLECULE
ASD03092503
  57   61    0    0    0
SMALL
NO_CHARGES


@<TRIPOS>ATOM
   1 C1            -0.1063     2.1223     0.7704 C.3     
   2 C2            -0.1159     0.6065     0.9783 C.3     
   3 C3             1.2137     1.3533     0.8547 C.3     
   4 C4            -0.5726     4.1559    -0.5697 C.2     
   5 C5            -0.5301     2.6499    -0.6018 C.3     
   6 O6            -0.2916     4.7489     0.4503 O.2     
   7 N7            -0.9229     4.8439    -1.6744 N.am    
   8 C8            -0.9643     6.3080    -1.6432 C.3     
   9 S9            -1.4023     7.7519    -5.3475 S.3     
  10 C10           -2.8732     7.4008    -4.5504 C.2     
  11 N11           -2.6408     6.9383    -3.3587 N.2     
  12 C12           -1.3817     6.8276    -2.9948 C.2     
  13 C13           -0.4954     7.2196    -3.9339 C.2     
  14 C14           -5.4583     8.2631    -7.0357 C.3     
  15 C15           -4.0400     8.1221    -6.4611 C.3     
  16 N16           -4.1309     7.5833    -5.0959 N.3     
  17 C17           -4.9043     6.3330    -5.0671 C.3     
  18 C18           -6.2719     6.5791    -5.7235 C.3     
  19 C19           -6.8747     7.8593    -5.0979 C.3     
  20 C20           -6.3243     8.9985    -5.9856 C.3     
  21 O21           -6.0284     6.9354    -7.1041 O.3     
  22 C22            3.1108     8.2652    -4.0121 C.ar    
  23 C23            1.7412     8.3231    -4.1532 C.ar    
  24 C24            0.9744     7.2045    -3.8006 C.ar    
  25 C25            1.6422     6.0713    -3.3173 C.ar    
  26 C26            3.0157     6.1013    -3.2088 C.ar    
  27 N27            3.6998     7.1768    -3.5525 N.ar    
  28 C28            3.7467     4.8898    -2.6901 C.3     
  29 C29            3.9482     9.4587    -4.3934 C.3     
  30 H30           -0.3791     2.7485     1.6198 H       
  31 H31           -0.3950     0.2355     1.9644 H       
  32 H32           -0.4242    -0.0149     0.1374 H       
  33 H33            1.7802     1.2232    -0.0674 H       
  34 H34            1.8094     1.4736     1.7596 H       
  35 H35            0.1873     2.3226    -1.3543 H       
  36 H36           -1.5187     2.2637    -0.8500 H       
  37 H37           -1.1477     4.3696    -2.4902 H       
  38 H38           -1.6817     6.6352    -0.8907 H       
  39 H39            0.0243     6.6941    -1.3950 H       
  40 H40           -5.4609     8.7717    -7.9998 H       
  41 H41           -3.4596     7.4417    -7.0843 H       
  42 H42           -3.5572     9.0991    -6.4366 H       
  43 H43           -4.3689     5.5597    -5.6179 H       
  44 H44           -5.0469     6.0156    -4.0342 H       
  45 H45           -6.9354     5.7203    -5.6220 H       
  46 H46           -7.9634     7.8311    -5.1426 H       
  47 H47           -6.5359     7.9784    -4.0687 H       
  48 H48           -5.7131     9.6818    -5.3961 H       
  49 H49           -7.1405     9.5345    -6.4701 H       
  50 H50            1.2661     9.2170    -4.5295 H       
  51 H51            1.0890     5.1881    -3.0340 H       
  52 H52            4.0066     4.2377    -3.5240 H       
  53 H53            4.6560     5.2055    -2.1787 H       
  54 H54            3.1063     4.3500    -1.9926 H       
  55 H55            4.0668    10.1107    -3.5280 H       
  56 H56            4.9281     9.1218    -4.7316 H       
  57 H57            3.4553    10.0067    -5.1964 H       
@<TRIPOS>BOND
   1    1    2 1
   2    1    3 1
   3    1    5 1
   4    1   30 1
   5    2    3 1
   6    2   31 1
   7    2   32 1
   8    3   33 1
   9    3   34 1
  10    4    5 1
  11    4    6 2
  12    4    7 am
  13    5   35 1
  14    5   36 1
  15    7    8 1
  16    7   37 1
  17    8   12 1
  18    8   38 1
  19    8   39 1
  20    9   10 1
  21    9   13 1
  22   10   11 2
  23   10   16 1
  24   11   12 1
  25   12   13 2
  26   13   24 1
  27   14   15 1
  28   14   20 1
  29   14   21 1
  30   14   40 1
  31   15   16 1
  32   15   41 1
  33   15   42 1
  34   16   17 1
  35   17   18 1
  36   17   43 1
  37   17   44 1
  38   18   19 1
  39   18   21 1
  40   18   45 1
  41   19   20 1
  42   19   46 1
  43   19   47 1
  44   20   48 1
  45   20   49 1
  46   22   23 ar
  47   22   27 ar
  48   22   29 1
  49   23   24 ar
  50   23   50 1
  51   24   25 ar
  52   25   26 ar
  53   25   51 1
  54   26   27 ar
  55   26   28 1
  56   28   52 1
  57   28   53 1
  58   28   54 1
  59   29   55 1
  60   29   56 1
  61   29   57 1

#	End of record

