#	Name: ASD00840134
#	Creating user name:	WinNT
#	Creation time:	15. 06. 2019 18:37

#	Modifying user name:	WinNT
#	Modification time:	15. 06. 2019 18:37

#	Program:	/corina/corina34_cracker 3.40 0067  02.08.2006

@<TRIPOS>MOLECULE
ASD00840134
  82   87    0    0    0
SMALL
NO_CHARGES


@<TRIPOS>ATOM
   1 N1            -0.0822     1.3690     0.0067 N.3     
   2 C2            -0.1702    -0.0901     0.1467 C.3     
   3 C3             0.5882    -0.5303     1.4009 C.3     
   4 C4             2.0524    -0.0975     1.2842 C.3     
   5 C5             2.1139     1.4202     1.0908 C.3     
   6 C6             1.3112     1.8038    -0.1545 C.3     
   7 N7            -2.2600     5.3667    -2.7892 N.am    
   8 C8            -1.7456     4.1258    -2.8178 C.2     
   9 C9            -2.6354     3.2545    -1.9571 C.3     
  10 C10           -3.7044     4.1996    -1.4585 C.ar    
  11 C11           -4.7993     4.0263    -0.6410 C.ar    
  12 C12           -5.6222     5.1020    -0.3508 C.ar    
  13 C13           -5.3384     6.3498    -0.8860 C.ar    
  14 C14           -4.2406     6.5231    -1.7061 C.ar    
  15 C15           -3.4098     5.4439    -2.0004 C.ar    
  16 O16           -0.7546     3.7704    -3.4201 O.2     
  17 F17           -6.1398     7.4004    -0.6042 F       
  18 F18           -6.6974     4.9363     0.4502 F       
  19 C19           -4.0047     1.1565    -2.1717 C.ar    
  20 C20           -3.2486     2.1507    -2.7798 C.ar    
  21 C21           -3.0663     2.1141    -4.1510 C.ar    
  22 C22           -3.6498     1.0792    -4.8691 C.ar    
  23 C23           -4.3887     0.1249    -4.1990 C.ar    
  24 N24           -4.5449     0.1864    -2.8901 N.ar    
  25 O25           -4.1862     1.1779    -0.8273 O.3     
  26 C26           -4.9736     0.1279    -0.2622 C.3     
  27 C27           -5.0662     0.3187     1.2531 C.3     
  28 S28           -1.6022     6.6576    -3.5914 S.o2    
  29 O29           -2.0478     7.8225    -2.9105 O.2     
  30 O30           -0.2290     6.3500    -3.7885 O.2     
  31 C31           -2.3362     6.7057    -5.1925 C.ar    
  32 C32           -3.4952     7.4299    -5.4000 C.ar    
  33 C33           -4.0711     7.4677    -6.6562 C.ar    
  34 C34           -3.4876     6.7816    -7.7049 C.ar    
  35 C35           -2.3280     6.0582    -7.4976 C.ar    
  36 C36           -1.7498     6.0240    -6.2424 C.ar    
  37 C37           -1.8556     2.6825    -0.8014 C.2     
  38 O38           -2.1282     3.0084     0.3346 O.2     
  39 N39           -0.8552     1.8088    -1.0301 N.am    
  40 N40            2.7723    -0.4656     2.5106 N.3     
  41 C41            4.2070    -0.1723     2.3872 C.3     
  42 C42            4.9065    -0.4948     3.7098 C.3     
  43 N43            4.6879    -1.9090     4.0444 N.3     
  44 C44            3.2532    -2.2023     4.1678 C.3     
  45 C45            2.5537    -1.8798     2.8453 C.3     
  46 C46            5.4079    -2.2771     5.2708 C.3     
  47 H47           -1.2163    -0.3842     0.2330 H       
  48 H48            0.2697    -0.5663    -0.7296 H       
  49 H49            0.1402    -0.0653     2.2791 H       
  50 H50            0.5359    -1.6148     1.4960 H       
  51 H51            2.5115    -0.5927     0.4286 H       
  52 H52            1.6899     1.9159     1.9640 H       
  53 H53            3.1515     1.7292     0.9643 H       
  54 H54            1.7441     1.3187    -1.0293 H       
  55 H55            1.3411     2.8853    -0.2870 H       
  56 H56           -5.0161     3.0526    -0.2271 H       
  57 H57           -4.0258     7.4972    -2.1201 H       
  58 H58           -2.4837     2.8736    -4.6512 H       
  59 H59           -3.5273     1.0215    -5.9406 H       
  60 H60           -4.8450    -0.6821    -4.7531 H       
  61 H61           -5.9745     0.1520    -0.6932 H       
  62 H62           -4.5074    -0.8331    -0.4795 H       
  63 H63           -4.0653     0.2947     1.6841 H       
  64 H64           -5.5324     1.2797     1.4704 H       
  65 H65           -5.6668    -0.4822     1.6841 H       
  66 H66           -3.9511     7.9659    -4.5807 H       
  67 H67           -4.9770     8.0329    -6.8181 H       
  68 H68           -3.9379     6.8106    -8.6861 H       
  69 H69           -1.8724     5.5220    -8.3168 H       
  70 H70           -0.8419     5.4618    -6.0813 H       
  71 H71           -0.6842     1.4923    -1.9309 H       
  72 H72            4.6356    -0.7813     1.5912 H       
  73 H73            4.3435     0.8832     2.1516 H       
  74 H74            5.9754    -0.3054     3.6114 H       
  75 H75            4.4968     0.1336     4.5006 H       
  76 H76            3.1168    -3.2578     4.4034 H       
  77 H77            2.8247    -1.5933     4.9638 H       
  78 H78            1.4848    -2.0692     2.9436 H       
  79 H79            2.9635    -2.5081     2.0545 H       
  80 H80            5.0531    -1.6632     6.0986 H       
  81 H81            5.2289    -3.3286     5.4955 H       
  82 H82            6.4760    -2.1128     5.1283 H       
@<TRIPOS>BOND
   1    1    2 1
   2    1    6 1
   3    1   39 1
   4    2    3 1
   5    2   47 1
   6    2   48 1
   7    3    4 1
   8    3   49 1
   9    3   50 1
  10    4    5 1
  11    4   40 1
  12    4   51 1
  13    5    6 1
  14    5   52 1
  15    5   53 1
  16    6   54 1
  17    6   55 1
  18    7    8 am
  19    7   15 1
  20    7   28 am
  21    8    9 1
  22    8   16 2
  23    9   10 1
  24    9   20 1
  25    9   37 1
  26   10   11 ar
  27   10   15 ar
  28   11   12 ar
  29   11   56 1
  30   12   13 ar
  31   12   18 1
  32   13   14 ar
  33   13   17 1
  34   14   15 ar
  35   14   57 1
  36   19   20 ar
  37   19   24 ar
  38   19   25 1
  39   20   21 ar
  40   21   22 ar
  41   21   58 1
  42   22   23 ar
  43   22   59 1
  44   23   24 ar
  45   23   60 1
  46   25   26 1
  47   26   27 1
  48   26   61 1
  49   26   62 1
  50   27   63 1
  51   27   64 1
  52   27   65 1
  53   28   29 2
  54   28   30 2
  55   28   31 1
  56   31   32 ar
  57   31   36 ar
  58   32   33 ar
  59   32   66 1
  60   33   34 ar
  61   33   67 1
  62   34   35 ar
  63   34   68 1
  64   35   36 ar
  65   35   69 1
  66   36   70 1
  67   37   38 2
  68   37   39 am
  69   39   71 1
  70   40   41 1
  71   40   45 1
  72   41   42 1
  73   41   72 1
  74   41   73 1
  75   42   43 1
  76   42   74 1
  77   42   75 1
  78   43   44 1
  79   43   46 1
  80   44   45 1
  81   44   76 1
  82   44   77 1
  83   45   78 1
  84   45   79 1
  85   46   80 1
  86   46   81 1
  87   46   82 1

#	End of record

