#	Name: ASD05250097
#	Creating user name:	WinNT
#	Creation time:	15. 06. 2019 20:58

#	Modifying user name:	WinNT
#	Modification time:	15. 06. 2019 20:58

#	Program:	/corina/corina34_cracker 3.40 0067  02.08.2006

@<TRIPOS>MOLECULE
ASD05250097
  42   44    0    0    0
SMALL
NO_CHARGES


@<TRIPOS>ATOM
   1 C1            -0.0187     1.5258     0.0104 C.3     
   2 C2             0.0021    -0.0041     0.0020 C.3     
   3 S3             0.7182    -0.5905    -1.5581 S.3     
   4 C4            -1.4266    -0.5342     0.1385 C.3     
   5 O5            -2.0310     0.0210     1.3084 O.3     
   6 C6            -1.3956    -2.0595     0.2555 C.3     
   7 C7            -2.8272    -2.5993     0.2666 C.3     
   8 O8            -3.4479    -2.3292    -0.9919 O.3     
   9 C9            -2.8007    -4.1099     0.5084 C.3     
  10 C10           -4.2333    -4.6298     0.6437 C.3     
  11 C11            3.1871     1.1298    -2.8219 C.2     
  12 N12            2.2731     2.1539    -2.5560 N.3     
  13 C13            2.1966     2.2479    -1.1354 C.2     
  14 C14            3.3944     2.7314    -0.6983 C.2     
  15 C15            4.2137     2.9319    -1.9745 C.3     
  16 N16            4.3899     1.5375    -2.4904 N.2     
  17 N17            3.3489     2.8267     0.6525 N.pl3   
  18 C18            1.3951     2.0474    -0.0003 C.2     
  19 C19            2.1211     2.4077     1.0807 C.2     
  20 O20            5.3794     3.7537    -1.8857 O.3     
  21 O21            2.8814    -0.0836    -3.3315 O.3     
  22 N22            3.0898     3.3573    -2.8994 N.3     
  23 H23           -0.5459     1.8868    -0.8726 H       
  24 H24           -0.5289     1.8773     0.9072 H       
  25 H25            0.6044    -0.3639     0.8362 H       
  26 H26           -0.1134    -0.0797    -2.4836 H       
  27 H27           -2.0055    -0.2489    -0.7398 H       
  28 H28           -1.5676    -0.1929     2.1297 H       
  29 H29           -0.8560    -2.4781    -0.5940 H       
  30 H30           -0.8933    -2.3428     1.1804 H       
  31 H31           -3.3924    -2.1138     1.0621 H       
  32 H32           -2.9972    -2.7312    -1.7471 H       
  33 H33           -2.3127    -4.6038    -0.3318 H       
  34 H34           -2.2493    -4.3216     1.4244 H       
  35 H35           -4.2144    -5.7060     0.8160 H       
  36 H36           -4.7212    -4.1358     1.4839 H       
  37 H37           -4.7847    -4.4181    -0.2724 H       
  38 H38            4.0691     3.1404     1.2216 H       
  39 H39            1.7881     2.3702     2.1074 H       
  40 H40            5.8594     3.8469    -2.7199 H       
  41 H41            3.6452    -0.6651    -3.4482 H       
  42 H42            3.3854     3.3306    -3.8637 H       
@<TRIPOS>BOND
   1    1    2 1
   2    1   18 1
   3    1   23 1
   4    1   24 1
   5    2    3 1
   6    2    4 1
   7    2   25 1
   8    3   26 1
   9    4    5 1
  10    4    6 1
  11    4   27 1
  12    5   28 1
  13    6    7 1
  14    6   29 1
  15    6   30 1
  16    7    8 1
  17    7    9 1
  18    7   31 1
  19    8   32 1
  20    9   10 1
  21    9   33 1
  22    9   34 1
  23   10   35 1
  24   10   36 1
  25   10   37 1
  26   11   12 1
  27   11   16 2
  28   11   21 1
  29   12   13 1
  30   12   22 1
  31   13   14 2
  32   13   18 1
  33   14   15 1
  34   14   17 1
  35   15   16 1
  36   15   20 1
  37   15   22 1
  38   17   19 1
  39   17   38 1
  40   18   19 2
  41   19   39 1
  42   20   40 1
  43   21   41 1
  44   22   42 1

#	End of record

