#	Name: ASD01900682
#	Creating user name:	WinNT
#	Creation time:	15. 06. 2019 19:52

#	Modifying user name:	WinNT
#	Modification time:	15. 06. 2019 19:52

#	Program:	/corina/corina34_cracker 3.40 0067  02.08.2006

@<TRIPOS>MOLECULE
ASD01900682
  32   35    0    0    0
SMALL
NO_CHARGES


@<TRIPOS>ATOM
   1 C1            -0.0183     1.4026     0.1326 C.ar    
   2 C2            -0.0082     0.0178     0.1216 C.ar    
   3 C3             1.1830    -0.6776     0.0631 C.ar    
   4 C4             2.3875     0.0114     0.0139 C.ar    
   5 C5             2.3724     1.4127     0.0292 C.ar    
   6 O6             3.5587    -0.6568    -0.0552 O.3     
   7 C7             4.7338    -0.0515     0.1916 C.2     
   8 C8             4.8718     1.2983     0.2222 C.2     
   9 C9             3.6748     2.1255    -0.0108 C.2     
  10 C10            5.9198    -0.8878     0.4395 C.2     
  11 N11            7.1189    -0.3074     0.6913 N.2     
  12 C12            8.1890    -1.0082     0.9154 C.2     
  13 N13            8.1622    -2.3757     0.9086 N.pl3   
  14 C14            6.9694    -3.0311     0.6581 C.2     
  15 C15            5.8108    -2.2682     0.4213 C.2     
  16 C16            1.1701     2.1048     0.0866 C.ar    
  17 C17            9.1281    -3.3144     1.1103 C.2     
  18 C18            8.5773    -4.5474     0.9938 C.2     
  19 C19            7.2176    -4.3900     0.7090 C.2     
  20 N20            3.7548     3.4147    -0.2395 N.2     
  21 O21            2.5959     4.1424    -0.6033 O.3     
  22 H22           -0.9575     1.9344     0.1728 H       
  23 H23           -0.9418    -0.5238     0.1595 H       
  24 H24            1.1779    -1.7576     0.0560 H       
  25 H25            5.8326     1.7536     0.4121 H       
  26 H26            9.1214    -0.4996     1.1113 H       
  27 H27            4.8631    -2.7467     0.2228 H       
  28 H28            1.1641     3.1847     0.0944 H       
  29 H29           10.1659    -3.1094     1.3279 H       
  30 H30            9.0979    -5.4874     1.1021 H       
  31 H31            6.4976    -5.1805     0.5574 H       
  32 H32            2.7536     5.0850    -0.7512 H       
@<TRIPOS>BOND
   1    1    2 ar
   2    1   16 ar
   3    1   22 1
   4    2    3 ar
   5    2   23 1
   6    3    4 ar
   7    3   24 1
   8    4    5 ar
   9    4    6 1
  10    5   16 ar
  11    5    9 1
  12    6    7 1
  13    7    8 2
  14    7   10 1
  15    8    9 1
  16    8   25 1
  17    9   20 2
  18   10   11 1
  19   10   15 2
  20   11   12 2
  21   12   13 1
  22   12   26 1
  23   13   14 1
  24   13   17 1
  25   14   15 1
  26   14   19 2
  27   15   27 1
  28   16   28 1
  29   17   18 2
  30   17   29 1
  31   18   19 1
  32   18   30 1
  33   19   31 1
  34   20   21 1
  35   21   32 1

#	End of record

