#	Name: ASD03090084
#	Creating user name:	WinNT
#	Creation time:	15. 06. 2019 20:28

#	Modifying user name:	WinNT
#	Modification time:	15. 06. 2019 20:28

#	Program:	/corina/corina34_cracker 3.40 0067  02.08.2006

@<TRIPOS>MOLECULE
ASD03090084
  44   46    0    0    0
SMALL
NO_CHARGES


@<TRIPOS>ATOM
   1 C1            -0.0178     1.4706     0.0304 C.2     
   2 C2             0.0023    -0.0041     0.0395 C.ar    
   3 C3             1.2219    -0.6881     0.0274 C.ar    
   4 C4             1.2375    -2.0589     0.0364 C.ar    
   5 C5             0.0401    -2.7703     0.0577 C.ar    
   6 C6            -1.1763    -2.0916     0.0698 C.ar    
   7 C7            -1.1980    -0.7208     0.0662 C.ar    
   8 O8             1.0268     2.0928     0.0123 O.2     
   9 N9            -1.1940     2.1285     0.0365 N.am    
  10 S10            0.0641    -4.5321     0.0687 S.3     
  11 C11           -1.6975    -4.9641     0.0959 C.3     
  12 F12           -2.3233    -4.4419    -1.0411 F       
  13 F13           -1.8362    -6.3561     0.1068 F       
  14 F14           -2.2916    -4.4273     1.2432 F       
  15 C15           -1.2140     3.5934     0.0274 C.3     
  16 C16           -2.6415     4.0763     0.0368 C.ar    
  17 C17           -3.2846     4.3050     1.2394 C.ar    
  18 C18           -4.5928     4.7477     1.2514 C.ar    
  19 C19           -5.2622     4.9635     0.0540 C.ar    
  20 C20           -4.6134     4.7333    -1.1521 C.ar    
  21 C21           -3.3036     4.2953    -1.1573 C.ar    
  22 N22           -6.5878     5.4115     0.0627 N.am    
  23 C23           -7.2804     5.7526    -1.0377 C.2     
  24 C24           -8.6749     6.1987    -0.6572 C.3     
  25 C25           -8.5844     6.4721     0.8620 C.3     
  26 C26           -7.4026     5.5634     1.2739 C.3     
  27 O27           -6.8497     5.7094    -2.1707 O.2     
  28 H28            2.1506    -0.1370     0.0106 H       
  29 H29            2.1791    -2.5877     0.0267 H       
  30 H30           -2.1032    -2.6458     0.0859 H       
  31 H31           -2.1413    -0.1951     0.0798 H       
  32 H32           -2.0273     1.6322     0.0469 H       
  33 H33           -0.6975     3.9693     0.9105 H       
  34 H34           -0.7130     3.9580    -0.8693 H       
  35 H35           -2.7634     4.1370     2.1703 H       
  36 H36           -5.0947     4.9254     2.1910 H       
  37 H37           -5.1314     4.9002    -2.0850 H       
  38 H38           -2.7972     4.1200    -2.0950 H       
  39 H39           -8.9439     7.1088    -1.1933 H       
  40 H40           -9.3971     5.4078    -0.8601 H       
  41 H41           -8.3614     7.5211     1.0569 H       
  42 H42           -9.5009     6.1690     1.3682 H       
  43 H43           -7.7683     4.5920     1.6067 H       
  44 H44           -6.8202     6.0386     2.0632 H       
@<TRIPOS>BOND
   1    1    2 1
   2    1    8 2
   3    1    9 am
   4    2    3 ar
   5    2    7 ar
   6    3    4 ar
   7    3   28 1
   8    4    5 ar
   9    4   29 1
  10    5    6 ar
  11    5   10 1
  12    6    7 ar
  13    6   30 1
  14    7   31 1
  15    9   15 1
  16    9   32 1
  17   10   11 1
  18   11   12 1
  19   11   13 1
  20   11   14 1
  21   15   16 1
  22   15   33 1
  23   15   34 1
  24   16   17 ar
  25   16   21 ar
  26   17   18 ar
  27   17   35 1
  28   18   19 ar
  29   18   36 1
  30   19   20 ar
  31   19   22 1
  32   20   21 ar
  33   20   37 1
  34   21   38 1
  35   22   23 am
  36   22   26 1
  37   23   24 1
  38   23   27 2
  39   24   25 1
  40   24   39 1
  41   24   40 1
  42   25   26 1
  43   25   41 1
  44   25   42 1
  45   26   43 1
  46   26   44 1

#	End of record

