#	Name: ASD03240401
#	Creating user name:	WinNT
#	Creation time:	15. 06. 2019 20:34

#	Modifying user name:	WinNT
#	Modification time:	15. 06. 2019 20:34

#	Program:	/corina/corina34_cracker 3.40 0067  02.08.2006

@<TRIPOS>MOLECULE
ASD03240401
  44   46    0    0    0
SMALL
NO_CHARGES


@<TRIPOS>ATOM
   1 C1            -0.1926     1.6492    -0.1404 C.ar    
   2 C2            -0.0689     0.2706    -0.0294 C.ar    
   3 C3            -1.2006    -0.5208     0.0270 C.ar    
   4 C4            -2.4547     0.0595    -0.0276 C.ar    
   5 C5            -2.5798     1.4317    -0.1381 C.ar    
   6 C6            -1.4516     2.2281    -0.1891 C.ar    
   7 C7            -4.4575    -1.5415     2.2971 C.ar    
   8 C8            -4.4139    -0.5546     1.3290 C.ar    
   9 C9            -3.6871    -0.8057     0.0330 C.3     
  10 C10           -5.1218    -1.3167     3.4859 C.ar    
  11 C11           -5.7491    -0.0933     3.7098 C.ar    
  12 C12           -5.7026     0.8971     2.7312 C.ar    
  13 C13           -5.0355     0.6618     1.5460 C.ar    
  14 C14           -4.6068    -0.4662    -1.1417 C.3     
  15 C15           -6.4656     0.1540     4.9865 C.2     
  16 C16           -7.1195     1.2995     5.3352 C.2     
  17 N17           -7.6330     1.1168     6.5684 N.pl3   
  18 N18           -7.2916    -0.1713     6.9981 N.2     
  19 C19           -6.5990    -0.7535     6.0553 C.2     
  20 O20            0.9186     2.4302    -0.1955 O.3     
  21 C21            0.7155     3.8401    -0.3095 C.3     
  22 Cl22           1.5053    -0.4581     0.0380 Cl      
  23 C23           -3.9154    -0.8381    -2.4549 C.3     
  24 N24           -4.7984    -0.5122    -3.5826 N.3     
  25 H25           -1.1055    -1.5932     0.1133 H       
  26 H26           -3.5605     1.8821    -0.1809 H       
  27 H27           -1.5504     3.3001    -0.2754 H       
  28 H28           -3.9747    -2.4914     2.1207 H       
  29 H29           -3.3975    -1.8550    -0.0238 H       
  30 H30           -5.1556    -2.0881     4.2410 H       
  31 H31           -6.1872     1.8474     2.8998 H       
  32 H32           -4.9984     1.4291     0.7868 H       
  33 H33           -5.5367    -1.0274    -1.0490 H       
  34 H34           -4.8248     0.6017    -1.1356 H       
  35 H35           -7.2096     2.1912     4.7326 H       
  36 H36           -8.1495     1.7658     7.0713 H       
  37 H37           -6.1934    -1.7538     6.0921 H       
  38 H38            1.6811     4.3446    -0.3435 H       
  39 H39            0.1611     4.0546    -1.2232 H       
  40 H40            0.1495     4.1964     0.5511 H       
  41 H41           -2.9855    -0.2770    -2.5475 H       
  42 H42           -3.6974    -1.9061    -2.4610 H       
  43 H43           -5.0673     0.4601    -3.5621 H       
  44 H44           -4.3640    -0.7487    -4.4621 H       
@<TRIPOS>BOND
   1    1    2 ar
   2    1   20 1
   3    1    6 ar
   4    2    3 ar
   5    2   22 1
   6    3    4 ar
   7    3   25 1
   8    4    5 ar
   9    4    9 1
  10    5    6 ar
  11    5   26 1
  12    6   27 1
  13    7    8 ar
  14    7   10 ar
  15    7   28 1
  16    8    9 1
  17    8   13 ar
  18    9   14 1
  19    9   29 1
  20   10   11 ar
  21   10   30 1
  22   11   12 ar
  23   11   15 1
  24   12   13 ar
  25   12   31 1
  26   13   32 1
  27   14   23 1
  28   14   33 1
  29   14   34 1
  30   15   16 2
  31   15   19 1
  32   16   17 1
  33   16   35 1
  34   17   18 1
  35   17   36 1
  36   18   19 2
  37   19   37 1
  38   20   21 1
  39   21   38 1
  40   21   39 1
  41   21   40 1
  42   23   24 1
  43   23   41 1
  44   23   42 1
  45   24   43 1
  46   24   44 1

#	End of record

