#	Name: ASD09320013
#	Creating user name:	WinNT
#	Creation time:	15. 06. 2019 21:21

#	Modifying user name:	WinNT
#	Modification time:	15. 06. 2019 21:21

#	Program:	/corina/corina34_cracker 3.40 0067  02.08.2006

@<TRIPOS>MOLECULE
ASD09320013
  46   49    0    0    0
SMALL
NO_CHARGES


@<TRIPOS>ATOM
   1 C1            -0.0179     1.4677     0.0101 C.2     
   2 C2             0.0021    -0.0041     0.0020 C.2     
   3 C3             1.1568    -0.6485    -0.0621 C.2     
   4 C4             1.2689     2.1882     0.0017 C.2     
   5 C5             2.4162     1.5181    -0.0563 C.2     
   6 C6             3.7212     2.2917    -0.0426 C.3     
   7 C7             4.6152     1.6984     1.0510 C.3     
   8 C8             4.7846     0.1957     0.8184 C.3     
   9 C9             5.7043    -0.3885     1.8759 C.3     
  10 C10            7.1532     0.1147     1.8441 C.3     
  11 C11            7.9266    -1.0417     2.5346 C.3     
  12 C12            7.0723    -2.2950     2.3743 C.2     
  13 C13            5.8996    -1.8896     1.5313 C.3     
  14 C14            6.2545    -2.0360     0.0503 C.3     
  15 C15            4.5830    -2.5890     1.8064 C.3     
  16 C16            3.5506    -2.0182     0.8213 C.3     
  17 C17            3.4226    -0.5036     0.9533 C.3     
  18 C18            2.4852     0.0219    -0.1377 C.3     
  19 C19            3.1174    -0.3434    -1.4823 C.3     
  20 O20           -1.0717     2.0759     0.0185 O.2     
  21 O21            7.2947    -3.3901     2.8321 O.2     
  22 H22            5.2058     0.0221    -0.1718 H       
  23 H23            2.9904    -0.2632     1.9246 H       
  24 H24            5.2754    -0.2577     2.8694 H       
  25 O25            1.2823     3.5467     0.0532 O.3     
  26 H26           -0.9241    -0.5576     0.0487 H       
  27 H27            1.1345    -1.7283    -0.0589 H       
  28 H28            4.2137     2.1998    -1.0107 H       
  29 H29            3.5242     3.3419     0.1726 H       
  30 H30            5.5916     2.1821     1.0233 H       
  31 H31            4.1558     1.8652     2.0252 H       
  32 H32            7.4938     0.2491     0.8174 H       
  33 H33            7.2540     1.0403     2.4108 H       
  34 H34            8.8934    -1.1847     2.0520 H       
  35 H35            8.0664    -0.8180     3.5922 H       
  36 H36            7.1772    -1.4943    -0.1575 H       
  37 H37            6.3909    -3.0909    -0.1881 H       
  38 H38            5.4482    -1.6273    -0.5587 H       
  39 H39            4.6927    -3.6619     1.6489 H       
  40 H40            4.2660    -2.3937     2.8309 H       
  41 H41            3.8572    -2.2619    -0.1959 H       
  42 H42            2.5809    -2.4754     1.0181 H       
  43 H43            2.4735     0.0003    -2.2919 H       
  44 H44            4.0935     0.1343    -1.5665 H       
  45 H45            3.2355    -1.4251    -1.5463 H       
  46 H46            0.4032     3.9475     0.0930 H       
@<TRIPOS>BOND
   1    1    2 1
   2    1    4 1
   3    1   20 2
   4    2    3 2
   5    2   26 1
   6    3   18 1
   7    3   27 1
   8    4    5 2
   9    4   25 1
  10    5    6 1
  11    5   18 1
  12    6    7 1
  13    6   28 1
  14    6   29 1
  15    7    8 1
  16    7   30 1
  17    7   31 1
  18    8    9 1
  19    8   22 1
  20    8   17 1
  21    9   10 1
  22    9   13 1
  23    9   24 1
  24   10   11 1
  25   10   32 1
  26   10   33 1
  27   11   12 1
  28   11   34 1
  29   11   35 1
  30   12   13 1
  31   12   21 2
  32   13   14 1
  33   13   15 1
  34   14   36 1
  35   14   37 1
  36   14   38 1
  37   15   16 1
  38   15   39 1
  39   15   40 1
  40   16   17 1
  41   16   41 1
  42   16   42 1
  43   17   23 1
  44   17   18 1
  45   18   19 1
  46   19   43 1
  47   19   44 1
  48   19   45 1
  49   25   46 1

#	End of record

