#	Name: ASD01152491
#	Creating user name:	WinNT
#	Creation time:	15. 06. 2019 19:05

#	Modifying user name:	WinNT
#	Modification time:	15. 06. 2019 19:05

#	Program:	/corina/corina34_cracker 3.40 0067  02.08.2006

@<TRIPOS>MOLECULE
ASD01152491
  52   55    0    0    0
SMALL
NO_CHARGES


@<TRIPOS>ATOM
   1 C1            -0.3507     1.3557    -0.0017 C.2     
   2 N2            -0.3390     0.0566    -0.1371 N.2     
   3 N3            -1.3672    -0.7402     0.3661 N.am    
   4 C4            -2.5202    -0.2268     0.8258 C.2     
   5 C5            -2.7993     1.2525     0.7007 C.3     
   6 C6            -1.4661     1.9777     0.7284 C.2     
   7 C7            -3.5213     1.5338    -0.6186 C.3     
   8 O8            -1.3302     3.0282     1.3208 O.2     
   9 C9            -1.1910    -2.1282     0.3926 C.ar    
  10 O10           -3.3409    -0.9541     1.3433 O.2     
  11 C11           -3.9049     2.9898    -0.6808 C.ar    
  12 C12           -2.1831    -2.9638    -0.1004 C.ar    
  13 C13           -0.0198    -2.6710     0.9074 C.ar    
  14 C14            0.1549    -4.0409     0.9335 C.ar    
  15 C15           -0.8337    -4.8760     0.4485 C.ar    
  16 C16           -2.0044    -4.3396    -0.0722 C.ar    
  17 C17           -3.0356     3.8794    -1.2222 C.ar    
  18 C18           -5.1487     3.3872    -0.1846 C.ar    
  19 C19           -5.5495     4.6826    -0.2136 C.ar    
  20 C20           -4.6943     5.6649    -0.7580 C.ar    
  21 C21           -3.3865     5.2449    -1.2851 C.ar    
  22 N22           -4.7740     6.9713    -0.9335 N.2     
  23 N23           -3.5947     7.4217    -1.5378 N.pl3   
  24 C24           -2.7661     6.3900    -1.7487 C.2     
  25 C25           -3.3100     8.8145    -1.8916 C.3     
  26 N26           -3.0022    -5.1857    -0.5687 N.am    
  27 C27           -3.2336    -6.3744     0.0229 C.2     
  28 O28           -2.5222    -6.7484     0.9312 O.2     
  29 C29           -4.3761    -7.2389    -0.4444 C.3     
  30 O30            0.6493     2.1162    -0.5193 O.3     
  31 C31            1.6964     1.4297    -1.2081 C.3     
  32 H32           -3.4146     1.5841     1.5371 H       
  33 H33           -2.8604     1.2963    -1.4522 H       
  34 H34           -4.4190     0.9186    -0.6798 H       
  35 H35           -3.0924    -2.5443    -0.5048 H       
  36 H36            0.7546    -2.0211     1.2872 H       
  37 H37            1.0662    -4.4604     1.3334 H       
  38 H38           -0.6940    -5.9467     0.4704 H       
  39 H39           -2.0815     3.5450    -1.6021 H       
  40 H40           -5.8097     2.6423     0.2334 H       
  41 H41           -6.5172     4.9609     0.1770 H       
  42 H42           -1.7861     6.4438    -2.1995 H       
  43 H43           -2.8214     9.3099    -1.0526 H       
  44 H44           -2.6541     8.8417    -2.7617 H       
  45 H45           -4.2429     9.3284    -2.1236 H       
  46 H46           -3.5274    -4.9167    -1.3386 H       
  47 H47           -4.0283    -7.9053    -1.2337 H       
  48 H48           -4.7501    -7.8299     0.3916 H       
  49 H49           -5.1764    -6.6066    -0.8291 H       
  50 H50            2.4278     2.1522    -1.5702 H       
  51 H51            2.1823     0.7311    -0.5269 H       
  52 H52            1.2778     0.8820    -2.0524 H       
@<TRIPOS>BOND
   1    1    2 2
   2    1   30 1
   3    1    6 1
   4    2    3 1
   5    3    4 am
   6    3    9 1
   7    4    5 1
   8    4   10 2
   9    5    6 1
  10    5    7 1
  11    5   32 1
  12    6    8 2
  13    7   11 1
  14    7   33 1
  15    7   34 1
  16    9   12 ar
  17    9   13 ar
  18   11   17 ar
  19   11   18 ar
  20   12   16 ar
  21   12   35 1
  22   13   14 ar
  23   13   36 1
  24   14   15 ar
  25   14   37 1
  26   15   16 ar
  27   15   38 1
  28   16   26 1
  29   17   21 ar
  30   17   39 1
  31   18   19 ar
  32   18   40 1
  33   19   20 ar
  34   19   41 1
  35   20   21 ar
  36   20   22 2
  37   21   24 2
  38   22   23 1
  39   23   24 1
  40   23   25 1
  41   24   42 1
  42   25   43 1
  43   25   44 1
  44   25   45 1
  45   26   27 am
  46   26   46 1
  47   27   28 2
  48   27   29 1
  49   29   47 1
  50   29   48 1
  51   29   49 1
  52   30   31 1
  53   31   50 1
  54   31   51 1
  55   31   52 1

#	End of record

