#	Name: ASD03331281
#	Creating user name:	WinNT
#	Creation time:	15. 06. 2019 20:38

#	Modifying user name:	WinNT
#	Modification time:	15. 06. 2019 20:38

#	Program:	/corina/corina34_cracker 3.40 0067  02.08.2006

@<TRIPOS>MOLECULE
ASD03331281
  46   48    0    0    0
SMALL
NO_CHARGES


@<TRIPOS>ATOM
   1 N1             0.1273     1.5621    -0.0485 N.am    
   2 C2             0.3226     0.1381     0.2634 C.3     
   3 C3             1.0030    -0.5336    -0.9342 C.3     
   4 N4             2.2287     0.2018    -1.2729 N.3     
   5 C5             1.9262     1.5764    -1.6938 C.3     
   6 C6             1.2837     2.3345    -0.5274 C.3     
   7 C7            -1.0806     2.1424     0.0954 C.2     
   8 O8            -2.0778     1.4540     0.1955 O.2     
   9 N9            -1.1831     3.4859     0.1284 N.am    
  10 C10           -2.4362     4.0954    -0.0015 C.ar    
  11 C11           -2.5671     5.4646     0.1897 C.ar    
  12 C12            3.0000    -0.5065    -2.3030 C.3     
  13 C13            4.1101     0.3833    -2.8000 C.ar    
  14 C14            5.3467     0.3551    -2.1830 C.ar    
  15 C15            6.3659     1.1706    -2.6384 C.ar    
  16 C16            6.1484     2.0151    -3.7117 C.ar    
  17 C17            4.9099     2.0434    -4.3296 C.ar    
  18 C18            3.8930     1.2232    -3.8763 C.ar    
  19 Br19           7.5420     3.1313    -4.3346 Br      
  20 Br20           4.6112     3.1977    -5.7973 Br      
  21 C21           -3.5502     3.3332    -0.3275 C.ar    
  22 C22           -4.7854     3.9378    -0.4555 C.ar    
  23 C23           -4.9134     5.3006    -0.2593 C.ar    
  24 C24           -3.8050     6.0632     0.0603 C.ar    
  25 C25            0.0171     4.3081     0.3002 C.3     
  26 H26            0.9545     0.0398     1.1460 H       
  27 H27           -0.6434    -0.3324     0.4470 H       
  28 H28            1.2552    -1.5629    -0.6790 H       
  29 H29            0.3262    -0.5257    -1.7886 H       
  30 H30            2.8480     2.0774    -1.9895 H       
  31 H31            1.2366     1.5549    -2.5376 H       
  32 H32            0.9531     3.3163    -0.8665 H       
  33 H33            2.0080     2.4475     0.2793 H       
  34 H34           -1.7018     6.0607     0.4397 H       
  35 H35            3.4257    -1.4153    -1.8775 H       
  36 H36            2.3438    -0.7669    -3.1334 H       
  37 H37            5.5167    -0.3041    -1.3446 H       
  38 H38            7.3318     1.1485    -2.1558 H       
  39 H39            2.9266     1.2449    -4.3580 H       
  40 H40           -3.4509     2.2688    -0.4812 H       
  41 H41           -5.6521     3.3456    -0.7094 H       
  42 H42           -5.8803     5.7711    -0.3599 H       
  43 H43           -3.9082     7.1274     0.2130 H       
  44 H44            0.3814     4.6277    -0.6762 H       
  45 H45           -0.2255     5.1840     0.9020 H       
  46 H46            0.7885     3.7245     0.8026 H       
@<TRIPOS>BOND
   1    1    2 1
   2    1    6 1
   3    1    7 am
   4    2    3 1
   5    2   26 1
   6    2   27 1
   7    3    4 1
   8    3   28 1
   9    3   29 1
  10    4    5 1
  11    4   12 1
  12    5    6 1
  13    5   30 1
  14    5   31 1
  15    6   32 1
  16    6   33 1
  17    7    8 2
  18    7    9 am
  19    9   10 1
  20    9   25 1
  21   10   11 ar
  22   10   21 ar
  23   11   24 ar
  24   11   34 1
  25   12   13 1
  26   12   35 1
  27   12   36 1
  28   13   14 ar
  29   13   18 ar
  30   14   15 ar
  31   14   37 1
  32   15   16 ar
  33   15   38 1
  34   16   17 ar
  35   16   19 1
  36   17   18 ar
  37   17   20 1
  38   18   39 1
  39   21   22 ar
  40   21   40 1
  41   22   23 ar
  42   22   41 1
  43   23   24 ar
  44   23   42 1
  45   24   43 1
  46   25   44 1
  47   25   45 1
  48   25   46 1

#	End of record

