#	Name: ASD02508192
#	Creating user name:	WinNT
#	Creation time:	15. 06. 2019 20:23

#	Modifying user name:	WinNT
#	Modification time:	15. 06. 2019 20:23

#	Program:	/corina/corina34_cracker 3.40 0067  02.08.2006

@<TRIPOS>MOLECULE
ASD02508192
  53   55    0    0    0
SMALL
NO_CHARGES


@<TRIPOS>ATOM
   1 C1            -0.0168     1.3904     0.0097 C.ar    
   2 C2             0.0021    -0.0041     0.0020 C.ar    
   3 C3            -1.1922    -0.7077     0.0096 C.ar    
   4 C4            -2.3933    -0.0260     0.0248 C.ar    
   5 C5            -2.4110     1.3580     0.0319 C.ar    
   6 C6            -1.2261     2.0677     0.0299 C.ar    
   7 S7            -3.9102    -0.9224     0.0344 S.o2    
   8 N8            -4.6586    -0.6040     1.4770 N.am    
   9 C9            -5.5849     0.5297     1.6048 C.3     
  10 N10            1.3140     1.8071    -0.0008 N.am    
  11 C11            2.0846     0.7014    -0.0141 C.2     
  12 O12            1.3018    -0.3890    -0.0125 O.3     
  13 O13           -4.7245    -0.3441    -0.9763 O.2     
  14 O14           -3.5621    -2.2999     0.0585 O.2     
  15 C15            1.7879     3.1933     0.0021 C.3     
  16 O16            3.3005     0.6929    -0.0257 O.2     
  17 C17           -6.9290     0.0079     2.1276 C.3     
  18 N18           -6.6791    -0.8386     3.3028 N.am    
  19 C19           -3.7268     2.0925     0.0474 C.3     
  20 C20           -5.7527    -1.9723     3.1750 C.3     
  21 C21           -4.4130    -1.4538     2.6506 C.3     
  22 C22           -7.2882    -0.5794     4.4768 C.2     
  23 O23           -8.0518     0.3611     4.5705 O.2     
  24 O24           -7.0505    -1.3626     5.5458 O.3     
  25 C25           -7.7411    -1.0244     6.7774 C.3     
  26 C26           -9.2526    -1.0884     6.5488 C.3     
  27 C27           -7.3483    -2.0186     7.8720 C.3     
  28 C28           -7.3502     0.3904     7.2093 C.3     
  29 H29           -1.1834    -1.7877     0.0034 H       
  30 H30           -1.2417     3.1476     0.0359 H       
  31 H31           -5.1774     1.2579     2.3061 H       
  32 H32           -5.7279     0.9969     0.6304 H       
  33 H33            1.9152     3.5316     1.0305 H       
  34 H34            2.7426     3.2521    -0.5205 H       
  35 H35            1.0584     3.8277    -0.5014 H       
  36 H36           -7.5628     0.8484     2.4103 H       
  37 H37           -7.4203    -0.5793     1.3517 H       
  38 H38           -4.0348     2.2644     1.0788 H       
  39 H39           -3.6149     3.0493    -0.4626 H       
  40 H40           -4.4825     1.4951    -0.4627 H       
  41 H41           -5.6097    -2.4395     4.1493 H       
  42 H42           -6.1603    -2.7004     2.4736 H       
  43 H43           -3.7802    -2.2952     2.3684 H       
  44 H44           -3.9201    -0.8657     3.4247 H       
  45 H45           -9.5311    -2.0963     6.2411 H       
  46 H46           -9.7710    -0.8345     7.4733 H       
  47 H47           -9.5324    -0.3801     5.7690 H       
  48 H48           -6.2715    -1.9729     8.0349 H       
  49 H49           -7.8668    -1.7646     8.7966 H       
  50 H50           -7.6268    -3.0265     7.5643 H       
  51 H51           -7.6300     1.0987     6.4295 H       
  52 H52           -7.8686     0.6443     8.1339 H       
  53 H53           -6.2734     0.4360     7.3722 H       
@<TRIPOS>BOND
   1    1    2 ar
   2    1   10 1
   3    1    6 ar
   4    2    3 ar
   5    2   12 1
   6    3    4 ar
   7    3   29 1
   8    4    5 ar
   9    4    7 1
  10    5    6 ar
  11    5   19 1
  12    6   30 1
  13    7    8 am
  14    7   13 2
  15    7   14 2
  16    8    9 1
  17    8   21 1
  18    9   17 1
  19    9   31 1
  20    9   32 1
  21   10   11 am
  22   10   15 1
  23   11   12 1
  24   11   16 2
  25   15   33 1
  26   15   34 1
  27   15   35 1
  28   17   18 1
  29   17   36 1
  30   17   37 1
  31   18   20 1
  32   18   22 am
  33   19   38 1
  34   19   39 1
  35   19   40 1
  36   20   21 1
  37   20   41 1
  38   20   42 1
  39   21   43 1
  40   21   44 1
  41   22   23 2
  42   22   24 1
  43   24   25 1
  44   25   26 1
  45   25   27 1
  46   25   28 1
  47   26   45 1
  48   26   46 1
  49   26   47 1
  50   27   48 1
  51   27   49 1
  52   27   50 1
  53   28   51 1
  54   28   52 1
  55   28   53 1

#	End of record

