#	Name: ASD08170164
#	Creating user name:	WinNT
#	Creation time:	15. 06. 2019 21:17

#	Modifying user name:	WinNT
#	Modification time:	15. 06. 2019 21:17

#	Program:	/corina/corina34_cracker 3.40 0067  02.08.2006

@<TRIPOS>MOLECULE
ASD08170164
  78   79    0    0    0
SMALL
NO_CHARGES


@<TRIPOS>ATOM
   1 Cl1            0.0000     0.0000     0.0000 Cl      
   2 H2             0.0000     1.3700     0.0000 H       
   3 Cl3            5.0000     6.3700     5.0000 Cl      
   4 H4             5.0000     7.7400     5.0000 H       
   5 C5            13.0967    24.7985    11.7951 C.3     
   6 C6            14.5113    26.8580    11.7926 C.3     
   7 C7            15.9467    27.3875    11.7818 C.3     
   8 C8            15.9263    28.8944    11.7901 C.2     
   9 C9            13.1171    23.2917    11.7868 C.2     
  10 S10           15.8986    29.9423    10.3714 S.3     
  11 C11           15.8891    31.3086    11.4048 C.2     
  12 N12           15.9062    30.8985    12.6372 N.2     
  13 N13           15.9202    29.6526    12.8402 N.2     
  14 S14           13.1176    22.2590    10.3567 S.3     
  15 N15           13.1432    22.5223    12.8284 N.2     
  16 N16           13.1573    21.2786    12.6118 N.2     
  17 C17           13.1467    20.8818    11.3750 C.2     
  18 N18           13.1589    19.5582    10.9483 N.am    
  19 C19           13.1845    18.5589    11.8523 C.2     
  20 O20           13.1968    18.8139    13.0379 O.2     
  21 N21           15.8672    32.6367    10.9926 N.am    
  22 C22           15.8619    33.6262    11.9076 C.2     
  23 C23           15.8381    35.0653    11.4609 C.3     
  24 O24           15.8761    33.3586    13.0904 O.2     
  25 C25           13.1977    17.1246    11.3898 C.3     
  26 C26           13.2260    16.2108    12.5878 C.ar    
  27 C27           14.5321    25.3281    11.7842 C.3     
  28 C28           12.0419    15.7764    13.1520 C.ar    
  29 C29           15.8366    35.9663    12.6690 C.ar    
  30 C30           17.0331    36.3951    13.2111 C.ar    
  31 C31           12.0653    14.9352    14.2555 C.ar    
  32 C32           13.2780    14.5304    14.7915 C.ar    
  33 C33           14.4647    14.9673    14.2233 C.ar    
  34 C34           14.4360    15.8042    13.1167 C.ar    
  35 C35           17.0343    37.2244    14.3238 C.ar    
  36 C36           15.8338    37.6230    14.8911 C.ar    
  37 C37           14.6347    37.1919    14.3450 C.ar    
  38 C38           14.6387    36.3668    13.2292 C.ar    
  39 O39           15.6551    14.5726    14.7467 O.3     
  40 C40           15.6092    13.7069    15.8828 C.3     
  41 O41           10.9003    14.5090    14.8105 O.3     
  42 C42           10.9999    13.6449    15.9443 C.3     
  43 O43           18.2113    37.6450    14.8571 O.3     
  44 C44           18.1372    38.4969    16.0020 C.3     
  45 O45           13.4563    37.5806    14.8991 O.3     
  46 C46           13.5276    38.4341    16.0431 C.3     
  47 H47           12.5695    25.1596    10.9120 H       
  48 H48           12.5865    25.1501    12.6919 H       
  49 H49           14.0011    27.2095    12.6894 H       
  50 H50           13.9842    27.2190    10.9096 H       
  51 H51           16.4739    27.0265    12.6648 H       
  52 H52           16.4569    27.0360    10.8850 H       
  53 H53           13.1491    19.3542    10.0000 H       
  54 H54           15.8558    32.8507    10.0466 H       
  55 H55           16.7200    35.2721    10.8546 H       
  56 H56           14.9403    35.2477    10.8705 H       
  57 H57           12.3024    16.9244    10.8012 H       
  58 H58           14.0821    16.9485    10.7775 H       
  59 H59           15.0593    24.9670    12.6673 H       
  60 H60           15.0423    24.9766    10.8874 H       
  61 H61           11.0973    16.0920    12.7341 H       
  62 H62           17.9680    36.0842    12.7688 H       
  63 H63           13.2983    13.8761    15.6504 H       
  64 H64           15.3602    16.1448    12.6737 H       
  65 H65           15.8327    38.2681    15.7573 H       
  66 H66           13.7048    36.0307    12.8034 H       
  67 H67           15.0815    14.2037    16.6970 H       
  68 H68           15.0863    12.7878    15.6183 H       
  69 H69           16.6246    13.4690    16.1996 H       
  70 H70           11.5396    12.7400    15.6652 H       
  71 H71           11.5359    14.1555    16.7444 H       
  72 H72           10.0000    13.3801    16.2882 H       
  73 H73           19.1445    38.7583    16.3262 H       
  74 H74           17.5912    39.4046    15.7448 H       
  75 H75           17.6193    37.9776    16.8084 H       
  76 H76           14.0734    37.9288    16.8399 H       
  77 H77           14.0443    39.3561    15.7768 H       
  78 H78           12.5195    38.6683    16.3851 H       
@<TRIPOS>BOND
   1    1    2 1
   2    3    4 1
   3    5    9 1
   4    5   27 1
   5    5   47 1
   6    5   48 1
   7    6    7 1
   8    6   27 1
   9    6   49 1
  10    6   50 1
  11    7    8 1
  12    7   51 1
  13    7   52 1
  14    8   10 1
  15    8   13 2
  16    9   14 1
  17    9   15 2
  18   10   11 1
  19   11   12 2
  20   11   21 1
  21   12   13 1
  22   14   17 1
  23   15   16 1
  24   16   17 2
  25   17   18 1
  26   18   19 am
  27   18   53 1
  28   19   20 2
  29   19   25 1
  30   21   22 am
  31   21   54 1
  32   22   23 1
  33   22   24 2
  34   23   29 1
  35   23   55 1
  36   23   56 1
  37   25   26 1
  38   25   57 1
  39   25   58 1
  40   26   28 ar
  41   26   34 ar
  42   27   59 1
  43   27   60 1
  44   28   31 ar
  45   28   61 1
  46   29   30 ar
  47   29   38 ar
  48   30   35 ar
  49   30   62 1
  50   31   32 ar
  51   31   41 1
  52   32   33 ar
  53   32   63 1
  54   33   34 ar
  55   33   39 1
  56   34   64 1
  57   35   36 ar
  58   35   43 1
  59   36   37 ar
  60   36   65 1
  61   37   38 ar
  62   37   45 1
  63   38   66 1
  64   39   40 1
  65   40   67 1
  66   40   68 1
  67   40   69 1
  68   41   42 1
  69   42   70 1
  70   42   71 1
  71   42   72 1
  72   43   44 1
  73   44   73 1
  74   44   74 1
  75   44   75 1
  76   45   46 1
  77   46   76 1
  78   46   77 1
  79   46   78 1

#	End of record

