#	Name: ASD04880713
#	Creating user name:	WinNT
#	Creation time:	15. 06. 2019 20:53

#	Modifying user name:	WinNT
#	Modification time:	15. 06. 2019 20:53

#	Program:	/corina/corina34_cracker 3.40 0067  02.08.2006

@<TRIPOS>MOLECULE
ASD04880713
  81   86    0    0    0
SMALL
NO_CHARGES


@<TRIPOS>ATOM
   1 C1             1.3206     1.3732     3.2652 C.ar    
   2 C2             1.6864     0.0413     3.2666 C.ar    
   3 C3             2.4746    -0.4618     2.2481 C.ar    
   4 C4             2.8994     0.3661     1.2248 C.ar    
   5 C5             2.5370     1.6985     1.2170 C.ar    
   6 C6             1.7450     2.2073     2.2389 C.ar    
   7 N7             1.3766     3.5545     2.2342 N.3     
   8 C8             0.4694     3.8485     1.1160 C.3     
   9 C9             0.0273     5.3117     1.1924 C.3     
  10 N10            1.2111     6.1814     1.1489 N.3     
  11 C11            2.1183     5.8874     2.2671 C.3     
  12 C12            2.5604     4.4241     2.1907 C.3     
  13 C13            0.8438     7.5245     1.1442 C.ar    
  14 C14            1.1381     8.3285     2.2394 C.ar    
  15 C15            0.7766     9.6575     2.2390 C.ar    
  16 C16            0.1123    10.2019     1.1364 C.ar    
  17 C17           -0.1848     9.3957     0.0339 C.ar    
  18 C18            0.1847     8.0639     0.0359 C.ar    
  19 C19            0.4567     1.9194     4.3727 C.3     
  20 N20           -0.1057     7.2540    -1.0697 N.am    
  21 C21           -1.2228     7.4736    -1.7910 C.2     
  22 C22           -1.5705     6.5747    -2.8960 C.2     
  23 C23           -2.6671     6.6818    -3.7028 C.2     
  24 C24           -2.6011     5.6183    -4.6166 C.2     
  25 C25           -1.4815     4.9176    -4.3312 C.2     
  26 O26           -0.8601     5.5004    -3.2976 O.3     
  27 O27           -1.9430     8.4181    -1.5251 O.2     
  28 C28           -0.2753    11.6253     1.1364 C.2     
  29 C29            1.0972    10.5253     3.4286 C.3     
  30 C30            0.3596    10.2315     4.7365 C.3     
  31 C31            1.8410     9.8755     4.5971 C.3     
  32 O32            0.0385    12.3409     2.0681 O.2     
  33 N33           -0.9771    12.1327     0.1037 N.am    
  34 C34           -1.3620    13.5462     0.1037 C.3     
  35 C35           -2.1446    13.8618    -1.1726 C.3     
  36 C36           -2.5465    15.3380    -1.1726 C.3     
  37 N37           -3.2958    15.6401    -2.3947 N.am    
  38 C38           -4.7538    15.5293    -2.5207 C.3     
  39 C39           -5.0361    15.5131    -4.0394 C.3     
  40 C40           -3.8029    16.2608    -4.5973 C.3     
  41 C41           -2.7369    16.0600    -3.5428 C.2     
  42 O42           -1.5505    16.2479    -3.7098 O.2     
  43 H43            1.3567    -0.6078     4.0643 H       
  44 H44            2.7596    -1.5035     2.2517 H       
  45 H45            3.5156    -0.0299     0.4311 H       
  46 H46            2.8693     2.3445     0.4179 H       
  47 H47            0.9865     3.6736     0.1726 H       
  48 H48           -0.4051     3.2007     1.1773 H       
  49 H49           -0.6227     5.5398     0.3476 H       
  50 H50           -0.5136     5.4801     2.1236 H       
  51 H51            2.9928     6.5352     2.2058 H       
  52 H52            1.6012     6.0623     3.2105 H       
  53 H53            3.2104     4.1961     3.0354 H       
  54 H54            3.1013     4.2558     1.2594 H       
  55 H55            1.6510     7.9100     3.0927 H       
  56 H56           -0.6981     9.8136    -0.8195 H       
  57 H57            1.0850     2.2043     5.2166 H       
  58 H58           -0.0862     2.7933     4.0126 H       
  59 H59           -0.2534     1.1557     4.6898 H       
  60 H60            0.4972     6.5352    -1.3160 H       
  61 H61           -3.4362     7.4380    -3.6482 H       
  62 H62           -3.3118     5.4008    -5.4002 H       
  63 H63           -1.1412     4.0357    -4.8535 H       
  64 H64            1.3259    11.5668     3.2028 H       
  65 H65            0.1035    11.0798     5.3713 H       
  66 H66           -0.3575     9.4107     4.7366 H       
  67 H67            2.0986     8.8203     4.5054 H       
  68 H68            2.5595    10.4895     5.1401 H       
  69 H69           -1.2275    11.5619    -0.6396 H       
  70 H70           -1.9861    13.7529     0.9731 H       
  71 H71           -0.4666    14.1666     0.1435 H       
  72 H72           -1.5204    13.6551    -2.0420 H       
  73 H73           -3.0400    13.2414    -1.2125 H       
  74 H74           -3.1706    15.5447    -0.3032 H       
  75 H75           -1.6511    15.9583    -1.1327 H       
  76 H76           -5.1028    14.6040    -2.0623 H       
  77 H77           -5.2390    16.3877    -2.0560 H       
  78 H78           -5.0771    14.4917    -4.4177 H       
  79 H79           -5.9558    16.0504    -4.2710 H       
  80 H80           -3.4907    15.8262    -5.5470 H       
  81 H81           -4.0217    17.3220    -4.7159 H       
@<TRIPOS>BOND
   1    1    2 ar
   2    1    6 ar
   3    1   19 1
   4    2    3 ar
   5    2   43 1
   6    3    4 ar
   7    3   44 1
   8    4    5 ar
   9    4   45 1
  10    5    6 ar
  11    5   46 1
  12    6    7 1
  13    7    8 1
  14    7   12 1
  15    8    9 1
  16    8   47 1
  17    8   48 1
  18    9   10 1
  19    9   49 1
  20    9   50 1
  21   10   11 1
  22   10   13 1
  23   11   12 1
  24   11   51 1
  25   11   52 1
  26   12   53 1
  27   12   54 1
  28   13   14 ar
  29   13   18 ar
  30   14   15 ar
  31   14   55 1
  32   15   16 ar
  33   15   29 1
  34   16   17 ar
  35   16   28 1
  36   17   18 ar
  37   17   56 1
  38   18   20 1
  39   19   57 1
  40   19   58 1
  41   19   59 1
  42   20   21 am
  43   20   60 1
  44   21   22 1
  45   21   27 2
  46   22   23 2
  47   22   26 1
  48   23   24 1
  49   23   61 1
  50   24   25 2
  51   24   62 1
  52   25   26 1
  53   25   63 1
  54   28   32 2
  55   28   33 am
  56   29   30 1
  57   29   31 1
  58   29   64 1
  59   30   31 1
  60   30   65 1
  61   30   66 1
  62   31   67 1
  63   31   68 1
  64   33   34 1
  65   33   69 1
  66   34   35 1
  67   34   70 1
  68   34   71 1
  69   35   36 1
  70   35   72 1
  71   35   73 1
  72   36   37 1
  73   36   74 1
  74   36   75 1
  75   37   38 1
  76   37   41 am
  77   38   39 1
  78   38   76 1
  79   38   77 1
  80   39   40 1
  81   39   78 1
  82   39   79 1
  83   40   41 1
  84   40   80 1
  85   40   81 1
  86   41   42 2

#	End of record

