#	Name: ASD01811689
#	Creating user name:	WinNT
#	Creation time:	15. 06. 2019 19:27

#	Modifying user name:	WinNT
#	Modification time:	15. 06. 2019 19:27

#	Program:	/corina/corina34_cracker 3.40 0067  02.08.2006

@<TRIPOS>MOLECULE
ASD01811689
  51   54    0    0    0
SMALL
NO_CHARGES


@<TRIPOS>ATOM
   1 C1            -0.0167     1.3805     0.0096 C.ar    
   2 C2             0.0021    -0.0041     0.0020 C.ar    
   3 C3            -1.1845    -0.7161     0.0090 C.ar    
   4 C4            -2.3942    -0.0535     0.0241 C.ar    
   5 C5            -2.4213     1.3425     0.0323 C.ar    
   6 C6            -1.2177     2.0512     0.0304 C.ar    
   7 C7             1.2777     2.1522     0.0014 C.3     
   8 C8             1.3184    -0.7376    -0.0144 C.3     
   9 C9            -1.1549    -2.2228    -0.0004 C.3     
  10 C10           -1.0078    -2.7311     1.4107 C.ar    
  11 C11           -2.1319    -2.9883     2.1732 C.ar    
  12 C12           -1.9975    -3.4545     3.4673 C.ar    
  13 C13           -0.7378    -3.6638     3.9997 C.ar    
  14 C14            0.3868    -3.4063     3.2361 C.ar    
  15 C15            0.2511    -2.9454     1.9401 C.ar    
  16 Cl16          -0.5683    -4.2489     5.6253 Cl      
  17 C17           -3.5309     2.3149     0.0477 C.2     
  18 N18           -3.0504     3.5703     0.0501 N.am    
  19 C19           -1.5841     3.5142     0.0402 C.3     
  20 O20           -4.7107     2.0226     0.0563 O.2     
  21 C21           -3.8575     4.7928     0.0640 C.3     
  22 C22           -4.7300     4.8158     1.3228 C.3     
  23 C23           -5.6250     6.0585     1.2877 C.3     
  24 C24           -6.4581     6.0417     0.0035 C.3     
  25 O25           -5.5864     5.9891    -1.1276 O.3     
  26 C26           -4.7589     4.8249    -1.1729 C.3     
  27 O27           -3.8957     4.8602     2.4821 O.3     
  28 H28           -3.3180    -0.6130     0.0291 H       
  29 H29            1.5800     2.3437    -1.0282 H       
  30 H30            1.1390     3.0999     0.5217 H       
  31 H31            2.0504     1.5710     0.5048 H       
  32 H32            1.6456    -0.9199     1.0092 H       
  33 H33            1.1977    -1.6891    -0.5323 H       
  34 H34            2.0641    -0.1342    -0.5322 H       
  35 H35           -2.0831    -2.6018    -0.4281 H       
  36 H36           -0.3118    -2.5659    -0.5999 H       
  37 H37           -3.1152    -2.8245     1.7576 H       
  38 H38           -2.8758    -3.6551     4.0631 H       
  39 H39            1.3704    -3.5695     3.6511 H       
  40 H40            1.1289    -2.7443     1.3439 H       
  41 H41           -1.1849     3.9949     0.9333 H       
  42 H42           -1.1966     4.0028    -0.8538 H       
  43 H43           -3.2017     5.6635     0.0595 H       
  44 H44           -5.3507     3.9203     1.3527 H       
  45 H45           -6.2885     6.0540     2.1525 H       
  46 H46           -5.0048     6.9547     1.3079 H       
  47 H47           -7.1075     5.1663     0.0029 H       
  48 H48           -7.0657     6.9452    -0.0475 H       
  49 H49           -4.1424     4.8519    -2.0714 H       
  50 H50           -5.3861     3.9336    -1.1889 H       
  51 H51           -4.3831     4.8767     3.3171 H       
@<TRIPOS>BOND
   1    1    2 ar
   2    1    7 1
   3    1    6 ar
   4    2    3 ar
   5    2    8 1
   6    3    4 ar
   7    3    9 1
   8    4    5 ar
   9    4   28 1
  10    5    6 ar
  11    5   17 1
  12    6   19 1
  13    7   29 1
  14    7   30 1
  15    7   31 1
  16    8   32 1
  17    8   33 1
  18    8   34 1
  19    9   10 1
  20    9   35 1
  21    9   36 1
  22   10   11 ar
  23   10   15 ar
  24   11   12 ar
  25   11   37 1
  26   12   13 ar
  27   12   38 1
  28   13   14 ar
  29   13   16 1
  30   14   15 ar
  31   14   39 1
  32   15   40 1
  33   17   18 am
  34   17   20 2
  35   18   19 1
  36   18   21 1
  37   19   41 1
  38   19   42 1
  39   21   22 1
  40   21   26 1
  41   21   43 1
  42   22   23 1
  43   22   27 1
  44   22   44 1
  45   23   24 1
  46   23   45 1
  47   23   46 1
  48   24   25 1
  49   24   47 1
  50   24   48 1
  51   25   26 1
  52   26   49 1
  53   26   50 1
  54   27   51 1

#	End of record

