#	Name: ASD03091637
#	Creating user name:	WinNT
#	Creation time:	15. 06. 2019 20:31

#	Modifying user name:	WinNT
#	Modification time:	15. 06. 2019 20:31

#	Program:	/corina/corina34_cracker 3.40 0067  02.08.2006

@<TRIPOS>MOLECULE
ASD03091637
  18   19    0    0    0
SMALL
NO_CHARGES


@<TRIPOS>ATOM
   1 C1            -0.0161     1.3337     0.0094 C.2     
   2 C2             0.0021    -0.0041     0.0020 C.2     
   3 C3             1.2759    -0.5924    -0.0133 C.ar    
   4 C4             2.3068     0.3559    -0.0181 C.ar    
   5 S5             1.6172     1.9753    -0.0028 S.3     
   6 C6             3.6409    -0.0631    -0.0323 C.ar    
   7 C7             3.9489    -1.4025    -0.0418 C.ar    
   8 C8             2.9362    -2.3528    -0.0377 C.ar    
   9 C9             1.6193    -1.9678    -0.0235 C.ar    
  10 C10           -1.2344     2.1520     0.0198 C.2     
  11 O11           -2.3261     1.6169     0.0223 O.2     
  12 O12           -1.1429     3.4974     0.0267 O.3     
  13 F13            0.6452    -2.9039    -0.0193 F       
  14 H14           -0.9037    -0.5922     0.0079 H       
  15 H15            4.4339     0.6701    -0.0363 H       
  16 H16            4.9820    -1.7170    -0.0528 H       
  17 H17            3.1872    -3.4032    -0.0459 H       
  18 H18           -1.9728     3.9938     0.0335 H       
@<TRIPOS>BOND
   1    1    2 2
   2    1    5 1
   3    1   10 1
   4    2    3 1
   5    2   14 1
   6    3    4 ar
   7    3    9 ar
   8    4    5 1
   9    4    6 ar
  10    6    7 ar
  11    6   15 1
  12    7    8 ar
  13    7   16 1
  14    8    9 ar
  15    8   17 1
  16    9   13 1
  17   10   11 2
  18   10   12 1
  19   12   18 1

#	End of record

