#	Name: ASD06710009
#	Creating user name:	WinNT
#	Creation time:	15. 06. 2019 21:08

#	Modifying user name:	WinNT
#	Modification time:	15. 06. 2019 21:08

#	Program:	/corina/corina34_cracker 3.40 0067  02.08.2006

@<TRIPOS>MOLECULE
ASD06710009
  19   20    0    0    0
SMALL
NO_CHARGES


@<TRIPOS>ATOM
   1 C1            -0.0167     1.3828     0.0096 C.ar    
   2 C2             0.0021    -0.0041     0.0020 C.ar    
   3 C3             1.1972    -0.6900    -0.0126 C.ar    
   4 C4             2.3990     0.0099    -0.0203 C.ar    
   5 C5             2.3781     1.4139    -0.0130 C.ar    
   6 C6             1.1635     2.0942     0.0022 C.ar    
   7 N7             3.7213    -0.3842    -0.0346 N.pl3   
   8 C8             4.5371     0.6964    -0.0368 C.2     
   9 C9             3.7903     1.8386    -0.0241 C.2     
  10 C10            4.2932     3.2171    -0.0225 C.2     
  11 O11            3.5124     4.1492    -0.0109 O.2     
  12 O12            5.6213     3.4503    -0.0340 O.3     
  13 H13           -0.9606     1.9076     0.0169 H       
  14 H14           -0.9288    -0.5516     0.0079 H       
  15 H15            1.2007    -1.7700    -0.0177 H       
  16 H16            1.1463     3.1740     0.0074 H       
  17 H17            4.0238    -1.3058    -0.0418 H       
  18 H18            5.6164     0.6600    -0.0463 H       
  19 H19            5.9047     4.3749    -0.0325 H       
@<TRIPOS>BOND
   1    1    2 ar
   2    1    6 ar
   3    1   13 1
   4    2    3 ar
   5    2   14 1
   6    3    4 ar
   7    3   15 1
   8    4    5 ar
   9    4    7 1
  10    5    6 ar
  11    5    9 1
  12    6   16 1
  13    7    8 1
  14    7   17 1
  15    8    9 2
  16    8   18 1
  17    9   10 1
  18   10   11 2
  19   10   12 1
  20   12   19 1

#	End of record

