#	Name: ASD08830229
#	Creating user name:	WinNT
#	Creation time:	15. 06. 2019 21:20

#	Modifying user name:	WinNT
#	Modification time:	15. 06. 2019 21:20

#	Program:	/corina/corina34_cracker 3.40 0067  02.08.2006

@<TRIPOS>MOLECULE
ASD08830229
  45   46    0    0    0
SMALL
NO_CHARGES


@<TRIPOS>ATOM
   1 C1            -0.0179     1.4674     0.0101 C.ar    
   2 C2             0.0021    -0.0041     0.0020 C.2     
   3 C3            -1.2926    -0.7753     0.0102 C.3     
   4 C4            -0.9927    -2.2755    -0.0007 C.3     
   5 N5            -2.2547    -3.0273     0.0073 N.3     
   6 O6             1.0602    -0.5960    -0.0113 O.2     
   7 C7            -1.2362     2.1538     0.0313 C.ar    
   8 C8            -3.0009    -2.8174    -1.2419 C.3     
   9 C9             1.1815     2.1867     0.0025 C.ar    
  10 C10            1.1544     3.5653     0.0101 C.ar    
  11 C11           -0.0554     4.2372     0.0257 C.ar    
  12 C12           -1.2466     3.5326     0.0387 C.ar    
  13 C13           -2.0135    -4.4594     0.2357 C.3     
  14 C14           -3.3553    -5.1942     0.2960 C.3     
  15 O15           -4.0798    -4.9532    -0.9133 O.3     
  16 C16           -4.3328    -3.5686    -1.1668 C.3     
  17 C17           -0.0759     5.7441     0.0349 C.3     
  18 C18            0.6264     6.2713    -1.2179 C.3     
  19 C19           -1.5251     6.2344     0.0517 C.3     
  20 C20            0.6503     6.2563     1.2804 C.3     
  21 H21           -1.8592    -0.5245     0.9070 H       
  22 H22           -1.8762    -0.5150    -0.8728 H       
  23 H23           -0.4261    -2.5263    -0.8975 H       
  24 H24           -0.4091    -2.5358     0.8824 H       
  25 H25           -2.1665     1.6053     0.0414 H       
  26 H26           -3.1908    -1.7527    -1.3779 H       
  27 H27           -2.4175    -3.1940    -2.0820 H       
  28 H28            2.1264     1.6638    -0.0089 H       
  29 H29            2.0798     4.1222     0.0043 H       
  30 H30           -2.1867     4.0640     0.0508 H       
  31 H31           -1.4143    -4.8623    -0.5808 H       
  32 H32           -1.4825    -4.5933     1.1781 H       
  33 H33           -3.1796    -6.2641     0.4080 H       
  34 H34           -3.9326    -4.8285     1.1451 H       
  35 H35           -4.9386    -3.1558    -0.3601 H       
  36 H36           -4.8641    -3.4629    -2.1126 H       
  37 H37            0.1091     5.9064    -2.1052 H       
  38 H38            0.6117     7.3612    -1.2112 H       
  39 H39            1.6589     5.9220    -1.2299 H       
  40 H40           -2.0254     5.8587     0.9443 H       
  41 H41           -1.5399     7.3243     0.0584 H       
  42 H42           -2.0424     5.8694    -0.8356 H       
  43 H43            1.6827     5.9070     1.2685 H       
  44 H44            0.6355     7.3462     1.2871 H       
  45 H45            0.1499     5.8807     2.1730 H       
@<TRIPOS>BOND
   1    1    2 1
   2    1    9 ar
   3    1    7 ar
   4    2    3 1
   5    2    6 2
   6    3    4 1
   7    3   21 1
   8    3   22 1
   9    4    5 1
  10    4   23 1
  11    4   24 1
  12    5   13 1
  13    5    8 1
  14    7   12 ar
  15    7   25 1
  16    8   16 1
  17    8   26 1
  18    8   27 1
  19    9   10 ar
  20    9   28 1
  21   10   11 ar
  22   10   29 1
  23   11   12 ar
  24   11   17 1
  25   12   30 1
  26   13   14 1
  27   13   31 1
  28   13   32 1
  29   14   15 1
  30   14   33 1
  31   14   34 1
  32   15   16 1
  33   16   35 1
  34   16   36 1
  35   17   18 1
  36   17   19 1
  37   17   20 1
  38   18   37 1
  39   18   38 1
  40   18   39 1
  41   19   40 1
  42   19   41 1
  43   19   42 1
  44   20   43 1
  45   20   44 1
  46   20   45 1

#	End of record

