#	Name: ASD04840048
#	Creating user name:	WinNT
#	Creation time:	15. 06. 2019 20:52

#	Modifying user name:	WinNT
#	Modification time:	15. 06. 2019 20:52

#	Program:	/corina/corina34_cracker 3.40 0067  02.08.2006

@<TRIPOS>MOLECULE
ASD04840048
  35   36    0    0    0
SMALL
NO_CHARGES


@<TRIPOS>ATOM
   1 C1            -0.0167     1.3819     0.0096 C.ar    
   2 C2             0.0021    -0.0041     0.0020 C.ar    
   3 C3             1.2326    -0.6433    -0.0132 C.ar    
   4 C4             2.4108     0.1245    -0.0203 C.ar    
   5 N5             2.3376     1.4537    -0.0128 N.ar    
   6 C6             1.1793     2.0791     0.0020 C.ar    
   7 N7             1.6320    -1.9688    -0.0241 N.pl3   
   8 C8             2.9966    -1.9775    -0.0372 C.2     
   9 N9             3.4501    -0.7473    -0.0349 N.2     
  10 N10            3.7805    -3.1097    -0.0512 N.pl3   
  11 C11            5.2405    -2.9896    -0.0644 C.3     
  12 C12            5.8669    -4.3855    -0.0784 C.3     
  13 P13            5.3459    -5.3003     1.4099 P.3     
  14 O14            5.6393    -6.7399     1.2319 O.2     
  15 O15            6.1476    -4.7434     2.6902 O.3     
  16 O16            3.7648    -5.0989     1.6375 O.3     
  17 P17            5.3174    -5.2832    -1.5669 P.3     
  18 O18            3.8425    -5.4044    -1.5535 O.2     
  19 O19            5.7776    -4.4753    -2.8813 O.3     
  20 O20            5.9766    -6.7520    -1.5816 O.3     
  21 C21            0.7545    -3.1419    -0.0216 C.3     
  22 H22           -0.9568     1.9136     0.0170 H       
  23 H23           -0.9171    -0.5710     0.0081 H       
  24 H24            1.1618     3.1590     0.0076 H       
  25 H25            3.3659    -3.9866    -0.0522 H       
  26 H26            5.5520    -2.4427    -0.9543 H       
  27 H27            5.5690    -2.4529     0.8255 H       
  28 H28            6.9532    -4.2962    -0.0883 H       
  29 H29            6.0022    -3.8039     2.8672 H       
  30 H30            3.4175    -5.5590     2.4139 H       
  31 H31            6.7345    -4.3578    -2.9559 H       
  32 H32            5.7273    -7.2873    -2.3474 H       
  33 H33            0.5267    -3.4275    -1.0486 H       
  34 H34            1.2546    -3.9686     0.4830 H       
  35 H35           -0.1706    -2.9025     0.5027 H       
@<TRIPOS>BOND
   1    1    2 ar
   2    1    6 ar
   3    1   22 1
   4    2    3 ar
   5    2   23 1
   6    3    4 ar
   7    3    7 1
   8    4    5 ar
   9    4    9 1
  10    5    6 ar
  11    6   24 1
  12    7    8 1
  13    7   21 1
  14    8    9 2
  15    8   10 1
  16   10   11 1
  17   10   25 1
  18   11   12 1
  19   11   26 1
  20   11   27 1
  21   12   13 1
  22   12   17 1
  23   12   28 1
  24   13   14 2
  25   13   15 1
  26   13   16 1
  27   15   29 1
  28   16   30 1
  29   17   18 2
  30   17   19 1
  31   17   20 1
  32   19   31 1
  33   20   32 1
  34   21   33 1
  35   21   34 1
  36   21   35 1

#	End of record

