#	Name: ASD01881859
#	Creating user name:	WinNT
#	Creation time:	15. 06. 2019 19:43

#	Modifying user name:	WinNT
#	Modification time:	15. 06. 2019 19:43

#	Program:	/corina/corina34_cracker 3.40 0067  02.08.2006

@<TRIPOS>MOLECULE
ASD01881859
  43   46    0    0    0
SMALL
NO_CHARGES


@<TRIPOS>ATOM
   1 N1            -0.0161     1.3345     0.0094 N.am    
   2 C2             0.0021    -0.0041     0.0020 C.2     
   3 C3             1.2829    -0.7910     0.0278 C.3     
   4 O4             2.3811     0.0596    -0.3104 O.3     
   5 C5             2.3946     1.2802     0.4391 C.3     
   6 C6             1.2047     2.1370     0.0020 C.3     
   7 O7            -1.0521    -0.6032    -0.0260 O.2     
   8 C8            -1.3102     2.0211     0.0192 C.3     
   9 C9            -1.7539     2.2523     1.4650 C.3     
  10 O10           -0.8446     3.1503     2.1046 O.3     
  11 N11           -1.6368     4.5724     7.3347 N.pl3   
  12 N12           -0.5196     5.4145     7.4367 N.2     
  13 N13            0.1050     5.4352     6.3124 N.2     
  14 C14           -0.5184     4.6453     5.4155 C.ar    
  15 C15           -1.6391     4.0810     6.0491 C.ar    
  16 C16           -0.2557     4.3250     4.0764 C.ar    
  17 C17           -1.0971     3.4632     3.4036 C.ar    
  18 C18           -2.2036     2.9118     4.0451 C.ar    
  19 C19           -2.4730     3.2160     5.3498 C.ar    
  20 C20           -2.6065     4.2704     8.3905 C.3     
  21 C21           -3.7504     5.2852     8.3377 C.3     
  22 C22           -4.9295     5.0707     9.2888 C.3     
  23 C23           -3.9353     6.2048     9.5464 C.3     
  24 Br24           1.2440     5.0691     3.1972 Br      
  25 H25            1.4362    -1.2011     1.0260 H       
  26 H26            1.2214    -1.6069    -0.6924 H       
  27 H27            2.3130     1.0571     1.5029 H       
  28 H28            3.3230     1.8178     0.2459 H       
  29 H29            1.3822     2.5167    -1.0042 H       
  30 H30            1.0907     2.9756     0.6890 H       
  31 H31           -1.2163     2.9804    -0.4899 H       
  32 H32           -2.0507     1.4081    -0.4945 H       
  33 H33           -2.7555     2.6824     1.4734 H       
  34 H34           -1.7621     1.3021     1.9990 H       
  35 H35           -2.8544     2.2388     3.5067 H       
  36 H36           -3.3336     2.7833     5.8382 H       
  37 H37           -3.0043     3.2665     8.2421 H       
  38 H38           -2.1154     4.3268     9.3619 H       
  39 H39           -3.9671     5.6985     7.3526 H       
  40 H40           -5.9219     5.3432     8.9297 H       
  41 H41           -4.8903     4.2066     9.9522 H       
  42 H42           -3.2421     6.0868    10.3792 H       
  43 H43           -4.2737     7.2234     9.3567 H       
@<TRIPOS>BOND
   1    1    2 am
   2    1    6 1
   3    1    8 1
   4    2    3 1
   5    2    7 2
   6    3    4 1
   7    3   25 1
   8    3   26 1
   9    4    5 1
  10    5    6 1
  11    5   27 1
  12    5   28 1
  13    6   29 1
  14    6   30 1
  15    8    9 1
  16    8   31 1
  17    8   32 1
  18    9   10 1
  19    9   33 1
  20    9   34 1
  21   10   17 1
  22   11   12 1
  23   11   15 1
  24   11   20 1
  25   12   13 2
  26   13   14 1
  27   14   15 ar
  28   14   16 ar
  29   15   19 ar
  30   16   17 ar
  31   16   24 1
  32   17   18 ar
  33   18   19 ar
  34   18   35 1
  35   19   36 1
  36   20   21 1
  37   20   37 1
  38   20   38 1
  39   21   22 1
  40   21   23 1
  41   21   39 1
  42   22   23 1
  43   22   40 1
  44   22   41 1
  45   23   42 1
  46   23   43 1

#	End of record

