#	Name: ASD03092135
#	Creating user name:	WinNT
#	Creation time:	15. 06. 2019 20:32

#	Modifying user name:	WinNT
#	Modification time:	15. 06. 2019 20:32

#	Program:	/corina/corina34_cracker 3.40 0067  02.08.2006

@<TRIPOS>MOLECULE
ASD03092135
  46   48    0    0    0
SMALL
NO_CHARGES


@<TRIPOS>ATOM
   1 N1             0.3252     1.0017    -0.2132 N.pl3   
   2 C2             0.0475    -0.3046     0.0612 C.2     
   3 C3            -1.3111    -0.4449     0.0515 C.2     
   4 C4            -1.8687     0.8073    -0.2359 C.2     
   5 N5            -0.8921     1.6719    -0.3878 N.2     
   6 N6            -3.2361     1.0907    -0.3375 N.pl3   
   7 C7            -3.6654     2.4094    -0.5161 C.ar    
   8 C8            -4.8512     2.6691    -1.1906 C.ar    
   9 C9            -5.2739     3.9745    -1.3655 C.ar    
  10 C10           -4.5139     5.0221    -0.8676 C.ar    
  11 C11           -2.9092     3.4610    -0.0141 C.ar    
  12 C12            1.0361    -1.3738     0.3217 C.ar    
  13 C13            1.6597     1.5994    -0.3032 C.3     
  14 C14            0.7054    -2.7205     0.1330 C.ar    
  15 C15            1.6579    -3.6849     0.3879 C.ar    
  16 N16            2.8651    -3.3518     0.8037 N.ar    
  17 C17            3.2178    -2.0947     0.9944 C.ar    
  18 C18            2.3297    -1.0663     0.7582 C.ar    
  19 C19            4.6121    -1.7781     1.4706 C.3     
  20 C20           -3.3316     4.7635    -0.1957 C.ar    
  21 F21           -6.4270     4.2288    -2.0218 F       
  22 C22            1.3150    -5.1389     0.1893 C.3     
  23 O23            1.6740     2.5782    -1.3442 O.3     
  24 C24            2.0108     2.2660     1.0285 C.3     
  25 C25            3.4506     2.7811     0.9770 C.3     
  26 F26           -4.9276     6.2967    -1.0390 F       
  27 H27           -1.8579    -1.3584     0.2330 H       
  28 H28           -3.8856     0.3722    -0.2840 H       
  29 H29           -5.4425     1.8528    -1.5784 H       
  30 H30           -1.9891     3.2604     0.5146 H       
  31 H31            2.3916     0.8226    -0.5247 H       
  32 H32           -0.2808    -3.0004    -0.2068 H       
  33 H33            2.6253    -0.0396     0.9164 H       
  34 H34            5.2681    -1.6436     0.6105 H       
  35 H35            4.5951    -0.8621     2.0612 H       
  36 H36            4.9817    -2.5995     2.0845 H       
  37 H37           -2.7409     5.5810     0.1907 H       
  38 H38            1.5519    -5.4316    -0.8336 H       
  39 H39            1.8939    -5.7469     0.8845 H       
  40 H40            0.2513    -5.2898     0.3733 H       
  41 H41            1.0457     3.3014    -1.2127 H       
  42 H42            1.3325     3.1004     1.2071 H       
  43 H43            1.9134     1.5396     1.8353 H       
  44 H44            3.5479     3.5076     0.1702 H       
  45 H45            3.7007     3.2560     1.9257 H       
  46 H46            4.1288     1.9467     0.7984 H       
@<TRIPOS>BOND
   1    1    2 1
   2    1   13 1
   3    1    5 1
   4    2    3 2
   5    2   12 1
   6    3    4 1
   7    3   27 1
   8    4    5 2
   9    4    6 1
  10    6    7 1
  11    6   28 1
  12    7    8 ar
  13    7   11 ar
  14    8    9 ar
  15    8   29 1
  16    9   10 ar
  17    9   21 1
  18   10   20 ar
  19   10   26 1
  20   11   20 ar
  21   11   30 1
  22   12   14 ar
  23   12   18 ar
  24   13   23 1
  25   13   24 1
  26   13   31 1
  27   14   15 ar
  28   14   32 1
  29   15   16 ar
  30   15   22 1
  31   16   17 ar
  32   17   18 ar
  33   17   19 1
  34   18   33 1
  35   19   34 1
  36   19   35 1
  37   19   36 1
  38   20   37 1
  39   22   38 1
  40   22   39 1
  41   22   40 1
  42   23   41 1
  43   24   25 1
  44   24   42 1
  45   24   43 1
  46   25   44 1
  47   25   45 1
  48   25   46 1

#	End of record

