#	Name: ASD01903204
#	Creating user name:	WinNT
#	Creation time:	15. 06. 2019 19:54

#	Modifying user name:	WinNT
#	Modification time:	15. 06. 2019 19:54

#	Program:	/corina/corina34_cracker 3.40 0067  02.08.2006

@<TRIPOS>MOLECULE
ASD01903204
  33   35    0    0    0
SMALL
NO_CHARGES


@<TRIPOS>ATOM
   1 S1            -0.0242     1.7573    -0.0310 S.3     
   2 C2             0.0013    -0.0032    -0.0100 C.2     
   3 N3             1.2298    -0.4177    -0.0143 N.2     
   4 C4             2.1805     0.5163    -0.0327 C.2     
   5 C5             1.7374     1.7861    -0.0447 C.2     
   6 N6            -1.1204    -0.8209     0.0083 N.pl3   
   7 C7            -2.3881    -0.2603     0.1280 C.ar    
   8 C8             3.6266     0.1789    -0.0395 C.2     
   9 C9             4.6450     0.8908    -0.7084 C.2     
  10 N10            5.7824     0.2924    -0.4809 N.2     
  11 N11            5.5463    -0.8198     0.3365 N.am    
  12 C12            4.2103    -0.8701     0.6033 C.2     
  13 N13           -2.5130     1.0424     0.3295 N.ar    
  14 C14           -3.6965     1.6139     0.4481 C.ar    
  15 C15           -4.8546     0.8673     0.3654 C.ar    
  16 C16           -4.7673    -0.5027     0.1546 C.ar    
  17 C17           -3.5133    -1.0725     0.0290 C.ar    
  18 C18           -3.7849     3.1007     0.6772 C.3     
  19 F19            2.5105     2.8938    -0.0643 F       
  20 C20            6.4770    -1.6851     0.7853 C.2     
  21 N21            7.7715    -1.5161     0.4503 N.am    
  22 O22            6.1491    -2.6175     1.4918 O.2     
  23 H23           -1.0203    -1.7832    -0.0622 H       
  24 H24            4.5067     1.7791    -1.3068 H       
  25 H25            3.7065    -1.6100     1.2076 H       
  26 H26           -5.8189     1.3436     0.4639 H       
  27 H27           -5.6585    -1.1088     0.0861 H       
  28 H28           -3.4088    -2.1348    -0.1356 H       
  29 H29           -3.8331     3.6141    -0.2831 H       
  30 H30           -4.6808     3.3266     1.2554 H       
  31 H31           -2.9046     3.4369     1.2251 H       
  32 H32            8.0333    -0.7717    -0.1137 H       
  33 H33            8.4413    -2.1388     0.7734 H       
@<TRIPOS>BOND
   1    1    2 1
   2    1    5 1
   3    2    3 2
   4    2    6 1
   5    3    4 1
   6    4    5 2
   7    4    8 1
   8    5   19 1
   9    6    7 1
  10    6   23 1
  11    7   13 ar
  12    7   17 ar
  13    8    9 1
  14    8   12 2
  15    9   10 2
  16    9   24 1
  17   10   11 1
  18   11   12 1
  19   11   20 am
  20   12   25 1
  21   13   14 ar
  22   14   15 ar
  23   14   18 1
  24   15   16 ar
  25   15   26 1
  26   16   17 ar
  27   16   27 1
  28   17   28 1
  29   18   29 1
  30   18   30 1
  31   18   31 1
  32   20   21 am
  33   20   22 2
  34   21   32 1
  35   21   33 1

#	End of record

