#	Name: ASD04880373
#	Creating user name:	WinNT
#	Creation time:	15. 06. 2019 20:53

#	Modifying user name:	WinNT
#	Modification time:	15. 06. 2019 20:53

#	Program:	/corina/corina34_cracker 3.40 0067  02.08.2006

@<TRIPOS>MOLECULE
ASD04880373
  34   36    0    0    0
SMALL
NO_CHARGES


@<TRIPOS>ATOM
   1 C1            -0.0528     1.2852    -0.6176 C.ar    
   2 C2            -0.0135    -0.0935    -0.6164 C.ar    
   3 C3             1.2097    -0.7565    -0.5100 C.ar    
   4 C4             2.3995    -0.0068    -0.4043 C.ar    
   5 C5             2.3362     1.3878    -0.4077 C.ar    
   6 C6             1.1164     2.0222    -0.5138 C.ar    
   7 C7             3.6982    -0.6897    -0.2909 C.2     
   8 N8             3.8609    -1.9614    -0.1525 N.2     
   9 N9             5.1938    -2.3585    -0.0678 N.am    
  10 C10            6.0524    -1.1673    -0.1647 C.3     
  11 C11            5.0479    -0.0090    -0.3251 C.3     
  12 C12            5.6262    -3.6265     0.0793 C.2     
  13 O13            6.8146    -3.8749     0.0149 O.2     
  14 C14            4.6557    -4.7150     0.3189 C.ar    
  15 C15            5.0743    -6.0467     0.2885 C.ar    
  16 C16            3.3182    -4.4158     0.5822 C.ar    
  17 C17            2.4161    -5.4388     0.8053 C.ar    
  18 C18            2.8384    -6.7580     0.7677 C.ar    
  19 C19            4.1645    -7.0588     0.5127 C.ar    
  20 F20            1.1209    -5.1522     1.0609 F       
  21 C21            1.2565    -2.1877    -0.5077 C.1     
  22 N22            1.2936    -3.3231    -0.5058 N.1     
  23 H23           -1.0013     1.7943    -0.7047 H       
  24 H24           -0.9295    -0.6599    -0.6973 H       
  25 H25            3.2424     1.9698    -0.3268 H       
  26 H26            1.0718     3.1013    -0.5164 H       
  27 H27            6.6427    -1.0452     0.7434 H       
  28 H28            6.7004    -1.2317    -1.0388 H       
  29 H29            5.2013     0.5011    -1.2761 H       
  30 H30            5.1373     0.6921     0.5047 H       
  31 H31            6.1090    -6.2839     0.0893 H       
  32 H32            2.9890    -3.3876     0.6119 H       
  33 H33            2.1303    -7.5544     0.9430 H       
  34 H34            4.4871    -8.0891     0.4845 H       
@<TRIPOS>BOND
   1    1    2 ar
   2    1    6 ar
   3    1   23 1
   4    2    3 ar
   5    2   24 1
   6    3    4 ar
   7    3   21 1
   8    4    5 ar
   9    4    7 1
  10    5    6 ar
  11    5   25 1
  12    6   26 1
  13    7    8 2
  14    7   11 1
  15    8    9 1
  16    9   10 1
  17    9   12 am
  18   10   11 1
  19   10   27 1
  20   10   28 1
  21   11   29 1
  22   11   30 1
  23   12   13 2
  24   12   14 1
  25   14   15 ar
  26   14   16 ar
  27   15   19 ar
  28   15   31 1
  29   16   17 ar
  30   16   32 1
  31   17   18 ar
  32   17   20 1
  33   18   19 ar
  34   18   33 1
  35   19   34 1
  36   21   22 3

#	End of record

