#	Name: ASD01940395
#	Creating user name:	WinNT
#	Creation time:	15. 06. 2019 20:12

#	Modifying user name:	WinNT
#	Modification time:	15. 06. 2019 20:12

#	Program:	/corina/corina34_cracker 3.40 0067  02.08.2006

@<TRIPOS>MOLECULE
ASD01940395
  42   45    0    0    0
SMALL
NO_CHARGES


@<TRIPOS>ATOM
   1 N1             1.2157     2.1122    -2.3821 N.pl3   
   2 N2             1.5597     0.8998    -2.9915 N.2     
   3 C3             2.3420     0.2191    -2.2048 C.2     
   4 C4             2.5517     0.9661    -1.0215 C.ar    
   5 C5             3.2917     0.7330     0.1516 C.ar    
   6 C6             3.2924     1.6996     1.1633 C.ar    
   7 C7             2.5598     2.8870     1.0019 C.ar    
   8 C8             1.8438     3.1122    -0.1324 C.ar    
   9 C9             1.8264     2.1634    -1.1584 C.ar    
  10 C10            4.0608     1.4718     2.3974 C.2     
  11 O11            4.7752     0.4922     2.4969 O.2     
  12 N12            3.9732     2.3483     3.4174 N.am    
  13 O13            4.7126     2.1291     4.6049 O.3     
  14 C14            4.5245     3.1362     5.6010 C.3     
  15 C15            5.3664     2.7985     6.8331 C.3     
  16 C16            5.3939     3.8202     7.9717 C.3     
  17 C17            4.6234     2.5090     8.1388 C.3     
  18 N18            4.0111    -0.4399     0.3038 N.pl3   
  19 C19            3.4436    -1.5259     0.9787 C.ar    
  20 C20            4.1157    -2.7430     1.0308 C.ar    
  21 C21            3.5516    -3.8135     1.6991 C.ar    
  22 C22            2.3204    -3.6746     2.3154 C.ar    
  23 C23            1.6505    -2.4659     2.2644 C.ar    
  24 C24            2.2112    -1.3900     1.6029 C.ar    
  25 I25            1.4690    -5.2995     3.3273 I       
  26 F26            5.3175    -2.8785     0.4287 F       
  27 H27            0.6464     2.7990    -2.7629 H       
  28 H28            2.7607    -0.7531    -2.4191 H       
  29 H29            2.5647     3.6289     1.7868 H       
  30 H30            1.2850     4.0300    -0.2409 H       
  31 H31            3.4035     3.1294     3.3380 H       
  32 H32            4.8338     4.1028     5.2034 H       
  33 H33            3.4718     3.1784     5.8808 H       
  34 H34            6.2803     2.2371     6.6385 H       
  35 H35            6.3256     3.9306     8.5264 H       
  36 H36            4.8121     4.7329     7.8430 H       
  37 H37            3.5347     2.5590     8.1201 H       
  38 H38            5.0482     1.7568     8.8035 H       
  39 H39            4.9086    -0.5088    -0.0575 H       
  40 H40            4.0720    -4.7590     1.7401 H       
  41 H41            0.6896    -2.3613     2.7463 H       
  42 H42            1.6889    -0.4454     1.5678 H       
@<TRIPOS>BOND
   1    1    2 1
   2    1    9 1
   3    1   27 1
   4    2    3 2
   5    3    4 1
   6    3   28 1
   7    4    5 ar
   8    4    9 ar
   9    5    6 ar
  10    5   18 1
  11    6    7 ar
  12    6   10 1
  13    7    8 ar
  14    7   29 1
  15    8    9 ar
  16    8   30 1
  17   10   11 2
  18   10   12 am
  19   12   13 1
  20   12   31 1
  21   13   14 1
  22   14   15 1
  23   14   32 1
  24   14   33 1
  25   15   16 1
  26   15   17 1
  27   15   34 1
  28   16   17 1
  29   16   35 1
  30   16   36 1
  31   17   37 1
  32   17   38 1
  33   18   19 1
  34   18   39 1
  35   19   20 ar
  36   19   24 ar
  37   20   21 ar
  38   20   26 1
  39   21   22 ar
  40   21   40 1
  41   22   23 ar
  42   22   25 1
  43   23   24 ar
  44   23   41 1
  45   24   42 1

#	End of record

