#	Name: ASD03082252
#	Creating user name:	WinNT
#	Creation time:	15. 06. 2019 20:27

#	Modifying user name:	WinNT
#	Modification time:	15. 06. 2019 20:27

#	Program:	/corina/corina34_cracker 3.40 0067  02.08.2006

@<TRIPOS>MOLECULE
ASD03082252
  42   44    0    0    0
SMALL
NO_CHARGES


@<TRIPOS>ATOM
   1 N1            -0.1036     1.0674    -0.0999 N.pl3   
   2 N2            -0.1137    -0.3356    -0.1588 N.2     
   3 C3             1.1153    -0.7371     0.0733 C.2     
   4 N4             1.8907     0.3293     0.2731 N.2     
   5 C5             1.1703     1.4282     0.1721 C.2     
   6 N6             1.5411    -2.0664     0.1058 N.pl3   
   7 C7             2.9013    -2.3618     0.2438 C.ar    
   8 C8             3.2974    -3.5725     0.7979 C.ar    
   9 C9             4.6409    -3.8620     0.9332 C.ar    
  10 C10            5.5930    -2.9464     0.5170 C.ar    
  11 C11            5.2005    -1.7391    -0.0355 C.ar    
  12 C12            3.8578    -1.4476    -0.1780 C.ar    
  13 C13            5.0712    -5.1751     1.5346 C.3     
  14 F14            3.9403    -5.9250     1.8751 F       
  15 F15            5.8387    -5.8847     0.6047 F       
  16 F16            5.8342    -4.9346     2.6823 F       
  17 C17            3.4522     4.4100     0.3608 C.ar    
  18 C18            3.0313     3.1049     0.2076 C.ar    
  19 C19            1.6684     2.8132     0.3284 C.ar    
  20 C20            0.7893     3.8669     0.6006 C.ar    
  21 C21            1.2964     5.1427     0.7383 C.ar    
  22 N22            2.5894     5.3744     0.6170 N.ar    
  23 C23           -1.2459     1.9627    -0.2999 C.3     
  24 F24            6.9067    -3.2316     0.6507 F       
  25 N25           -1.9162     2.1930     0.9823 N.am    
  26 C26           -3.0009     2.9905     1.0419 C.2     
  27 C27           -3.6905     3.2274     2.3608 C.3     
  28 O28           -3.4222     3.5176     0.0341 O.2     
  29 H29            0.8937    -2.7850     0.0328 H       
  30 H30            2.5553    -4.2867     1.1228 H       
  31 H31            5.9447    -1.0265    -0.3590 H       
  32 H32            3.5521    -0.5078    -0.6135 H       
  33 H33            4.5029     4.6445     0.2738 H       
  34 H34            3.7432     2.3204    -0.0025 H       
  35 H35           -0.2705     3.6845     0.7012 H       
  36 H36            0.6258     5.9627     0.9485 H       
  37 H37           -0.8963     2.9131    -0.7030 H       
  38 H38           -1.9465     1.5069    -0.9995 H       
  39 H39           -1.5792     1.7714     1.7883 H       
  40 H40           -3.1731     2.6756     3.1456 H       
  41 H41           -3.6734     4.2921     2.5936 H       
  42 H42           -4.7236     2.8859     2.2972 H       
@<TRIPOS>BOND
   1    1    2 1
   2    1    5 1
   3    1   23 1
   4    2    3 2
   5    3    4 1
   6    3    6 1
   7    4    5 2
   8    5   19 1
   9    6    7 1
  10    6   29 1
  11    7    8 ar
  12    7   12 ar
  13    8    9 ar
  14    8   30 1
  15    9   10 ar
  16    9   13 1
  17   10   11 ar
  18   10   24 1
  19   11   12 ar
  20   11   31 1
  21   12   32 1
  22   13   14 1
  23   13   15 1
  24   13   16 1
  25   17   18 ar
  26   17   22 ar
  27   17   33 1
  28   18   19 ar
  29   18   34 1
  30   19   20 ar
  31   20   21 ar
  32   20   35 1
  33   21   22 ar
  34   21   36 1
  35   23   25 1
  36   23   37 1
  37   23   38 1
  38   25   26 am
  39   25   39 1
  40   26   27 1
  41   26   28 2
  42   27   40 1
  43   27   41 1
  44   27   42 1

#	End of record

