#	Name: ASD01871023
#	Creating user name:	WinNT
#	Creation time:	15. 06. 2019 19:39

#	Modifying user name:	WinNT
#	Modification time:	15. 06. 2019 19:39

#	Program:	/corina/corina34_cracker 3.40 0067  02.08.2006

@<TRIPOS>MOLECULE
ASD01871023
  28   30    0    0    0
SMALL
NO_CHARGES


@<TRIPOS>ATOM
   1 C1            -0.0162     1.3405     0.0094 C.2     
   2 C2             0.0021    -0.0041     0.0020 C.2     
   3 S3            -1.6654    -0.5717     0.0149 S.3     
   4 C4            -2.2296     1.0416     0.0289 C.2     
   5 N5            -1.2338     1.8676     0.0295 N.2     
   6 O6            -3.5355     1.4044     0.0426 O.3     
   7 C7            -4.4699     0.4205     0.0460 C.ar    
   8 C8            -5.8183     0.7527     0.0600 C.ar    
   9 N9            -4.0878    -0.8459     0.0305 N.ar    
  10 C10           -4.9630    -1.8330     0.0327 C.ar    
  11 C11           -6.3198    -1.5760     0.0510 C.ar    
  12 C12           -6.7615    -0.2604     0.0628 C.ar    
  13 C13            1.2200     2.1645     0.0020 C.2     
  14 C14            2.5387     1.6847    -0.1126 C.2     
  15 N15            3.3489     2.7099    -0.0793 N.2     
  16 N16            2.5853     3.8756     0.0569 N.pl3   
  17 C17            1.2829     3.5233     0.0992 C.2     
  18 C18           -4.4761    -3.2591     0.0145 C.3     
  19 H19            0.8844    -0.6268    -0.0103 H       
  20 H20           -6.1269     1.7877     0.0688 H       
  21 H21           -7.0295    -2.3901     0.0523 H       
  22 H22           -7.8171    -0.0323     0.0775 H       
  23 H23            2.8302     0.6495    -0.2110 H       
  24 H24            2.9320     4.7801     0.1080 H       
  25 H25            0.4433     4.1952     0.1994 H       
  26 H26           -4.3462    -3.6117     1.0377 H       
  27 H27           -5.2071    -3.8862    -0.4958 H       
  28 H28           -3.5228    -3.3108    -0.5114 H       
@<TRIPOS>BOND
   1    1    2 2
   2    1   13 1
   3    1    5 1
   4    2    3 1
   5    2   19 1
   6    3    4 1
   7    4    5 2
   8    4    6 1
   9    6    7 1
  10    7    8 ar
  11    7    9 ar
  12    8   12 ar
  13    8   20 1
  14    9   10 ar
  15   10   11 ar
  16   10   18 1
  17   11   12 ar
  18   11   21 1
  19   12   22 1
  20   13   14 1
  21   13   17 2
  22   14   15 2
  23   14   23 1
  24   15   16 1
  25   16   17 1
  26   16   24 1
  27   17   25 1
  28   18   26 1
  29   18   27 1
  30   18   28 1

#	End of record

