#	Name: ASD04880433
#	Creating user name:	WinNT
#	Creation time:	15. 06. 2019 20:53

#	Modifying user name:	WinNT
#	Modification time:	15. 06. 2019 20:53

#	Program:	/corina/corina34_cracker 3.40 0067  02.08.2006

@<TRIPOS>MOLECULE
ASD04880433
  50   52    0    0    0
SMALL
NO_CHARGES


@<TRIPOS>ATOM
   1 C1            -0.0184     1.5028     0.0103 C.2     
   2 C2             0.0021    -0.0041     0.0020 C.3     
   3 C3            -1.4117    -0.5257     0.0127 C.ar    
   4 C4            -2.0713    -0.7584    -1.1795 C.ar    
   5 C5            -3.3699    -1.2380    -1.1693 C.ar    
   6 C6            -4.0066    -1.4841     0.0355 C.ar    
   7 C7            -3.3453    -1.2507     1.2261 C.ar    
   8 C8            -2.0464    -0.7767     1.2147 C.ar    
   9 F9            -4.0157    -1.4654    -2.3340 F       
  10 N10            1.1395     2.1925     0.0030 N.am    
  11 N11            2.4158     1.6335    -0.0127 N.2     
  12 C12            3.3697     2.4994    -0.0171 C.2     
  13 C13            2.7859     3.8941    -0.0033 C.3     
  14 C14            1.2624     3.6589     0.0038 C.3     
  15 C15            0.6171     4.2540    -1.2494 C.3     
  16 C16            0.6348     4.2511     1.2673 C.3     
  17 C17            4.8088     2.1797    -0.0325 C.ar    
  18 C18            5.2303     0.8472    -0.0443 C.ar    
  19 C19            6.5804     0.5532    -0.0593 C.ar    
  20 C20            7.5182     1.5840    -0.0621 C.ar    
  21 C21            7.1003     2.9064    -0.0503 C.ar    
  22 C22            5.7543     3.2078    -0.0412 C.ar    
  23 O23            8.8459     1.2927    -0.0759 O.3     
  24 C24            9.7525     2.3973    -0.0779 C.3     
  25 O25            6.9941    -0.7423    -0.0708 O.3     
  26 C26            5.9785    -1.7476    -0.0667 C.3     
  27 O27           -1.0771     2.0950     0.0185 O.2     
  28 H28            0.5123    -0.3556    -0.8948 H       
  29 H29            0.5293    -0.3651     0.8851 H       
  30 H30           -1.5738    -0.5658    -2.1186 H       
  31 H31           -5.0198    -1.8579     0.0447 H       
  32 H32           -3.8416    -1.4425     2.1659 H       
  33 H33           -1.5287    -0.5988     2.1457 H       
  34 H34            3.0979     4.4304     0.8928 H       
  35 H35            3.0804     4.4407    -0.8992 H       
  36 H36           -0.4452     4.0100    -1.2618 H       
  37 H37            0.7411     5.3369    -1.2426 H       
  38 H38            1.0956     3.8390    -2.1364 H       
  39 H39            1.1257     3.8340     2.1465 H       
  40 H40            0.7587     5.3340     1.2612 H       
  41 H41           -0.4272     4.0070     1.2941 H       
  42 H42            4.5025     0.0492    -0.0414 H       
  43 H43            7.8305     3.7022    -0.0525 H       
  44 H44            5.4316     4.2384    -0.0366 H       
  45 H45           10.7773     2.0262    -0.0894 H       
  46 H46            9.5777     3.0091    -0.9629 H       
  47 H47            9.5940     2.9991     0.8169 H       
  48 H48            5.3676    -1.6432     0.8300 H       
  49 H49            5.3501    -1.6329    -0.9499 H       
  50 H50            6.4432    -2.7335    -0.0769 H       
@<TRIPOS>BOND
   1    1    2 1
   2    1   10 am
   3    1   27 2
   4    2    3 1
   5    2   28 1
   6    2   29 1
   7    3    4 ar
   8    3    8 ar
   9    4    5 ar
  10    4   30 1
  11    5    6 ar
  12    5    9 1
  13    6    7 ar
  14    6   31 1
  15    7    8 ar
  16    7   32 1
  17    8   33 1
  18   10   11 1
  19   10   14 1
  20   11   12 2
  21   12   13 1
  22   12   17 1
  23   13   14 1
  24   13   34 1
  25   13   35 1
  26   14   15 1
  27   14   16 1
  28   15   36 1
  29   15   37 1
  30   15   38 1
  31   16   39 1
  32   16   40 1
  33   16   41 1
  34   17   18 ar
  35   17   22 ar
  36   18   19 ar
  37   18   42 1
  38   19   20 ar
  39   19   25 1
  40   20   21 ar
  41   20   23 1
  42   21   22 ar
  43   21   43 1
  44   22   44 1
  45   23   24 1
  46   24   45 1
  47   24   46 1
  48   24   47 1
  49   25   26 1
  50   26   48 1
  51   26   49 1
  52   26   50 1

#	End of record

