#	Name: ASD03092441
#	Creating user name:	WinNT
#	Creation time:	15. 06. 2019 20:32

#	Modifying user name:	WinNT
#	Modification time:	15. 06. 2019 20:32

#	Program:	/corina/corina34_cracker 3.40 0067  02.08.2006

@<TRIPOS>MOLECULE
ASD03092441
  59   62    0    0    0
SMALL
NO_CHARGES


@<TRIPOS>ATOM
   1 O1             0.0664     0.5800    -0.2751 O.3     
   2 C2            -0.0885    -0.7591    -0.2204 C.2     
   3 C3             1.1509    -1.3301    -0.2689 C.2     
   4 C4             2.0765    -0.2786    -0.3560 C.2     
   5 C5             1.3705     0.8737    -0.3569 C.2     
   6 C6            -1.3644    -1.4758    -0.1249 C.2     
   7 O7            -1.3775    -2.6920    -0.0819 O.2     
   8 N8            -2.5226    -0.7877    -0.0847 N.am    
   9 C9             1.4642    -2.8038    -0.2349 C.3     
  10 C10           -3.7971    -1.5036     0.0108 C.3     
  11 S11           -6.7660     1.0684     0.7648 S.3     
  12 C12           -6.4311     0.8476    -0.8969 C.2     
  13 N13           -5.4582     0.0006    -1.0519 N.2     
  14 C14           -4.9303    -0.5105     0.0390 C.2     
  15 C15           -5.4893    -0.0704     1.1857 C.2     
  16 C16           -5.6557    -1.2239     4.7558 C.ar    
  17 C17           -6.0645    -0.8559     3.4923 C.ar    
  18 C18           -5.0996    -0.4718     2.5514 C.ar    
  19 C19           -3.7543    -0.4800     2.9436 C.ar    
  20 C20           -3.4357    -0.8623     4.2286 C.ar    
  21 N21           -4.3769    -1.2174     5.0837 N.ar    
  22 C22           -1.9930    -0.8758     4.6638 C.3     
  23 C23           -6.6832    -1.6332     5.7794 C.3     
  24 N24           -7.1005     1.4798    -1.9289 N.3     
  25 C25           -8.1453     2.3740    -1.4093 C.3     
  26 C26           -8.8987     3.0057    -2.5829 C.3     
  27 O27           -7.9690     3.6916    -3.4258 O.3     
  28 C28           -6.9379     2.8505    -3.9499 C.3     
  29 C29           -6.1647     2.2172    -2.7902 C.3     
  30 C30           -5.9828     3.6854    -4.8052 C.3     
  31 C31           -9.9341     3.9983    -2.0504 C.3     
  32 H32            3.1510    -0.3726    -0.4111 H       
  33 H33            1.7890     1.8676    -0.4144 H       
  34 H34           -2.5122     0.1817    -0.1189 H       
  35 H35            1.4832    -3.1948    -1.2522 H       
  36 H36            2.4372    -2.9577     0.2318 H       
  37 H37            0.6989    -3.3248     0.3403 H       
  38 H38           -3.9107    -2.1600    -0.8520 H       
  39 H39           -3.8123    -2.0983     0.9242 H       
  40 H40           -7.1124    -0.8639     3.2310 H       
  41 H41           -2.9790    -0.1914     2.2493 H       
  42 H42           -1.7299     0.0967     5.0800 H       
  43 H43           -1.8491    -1.6462     5.4214 H       
  44 H44           -1.3563    -1.0875     3.8048 H       
  45 H45           -6.8511    -2.7083     5.7159 H       
  46 H46           -6.3234    -1.3799     6.7767 H       
  47 H47           -7.6182    -1.1074     5.5861 H       
  48 H48           -8.8414     1.8024    -0.7954 H       
  49 H49           -7.6868     3.1581    -0.8068 H       
  50 H50           -9.4016     2.2258    -3.1547 H       
  51 H51           -7.3839     2.0661    -4.5614 H       
  52 H52           -5.6745     2.9988    -2.2097 H       
  53 H53           -5.4150     1.5311    -3.1842 H       
  54 H54           -5.5362     4.4682    -4.1921 H       
  55 H55           -5.1973     3.0438    -5.2043 H       
  56 H56           -6.5347     4.1392    -5.6284 H       
  57 H57           -9.4298     4.7787    -1.4805 H       
  58 H58          -10.4701     4.4477    -2.8864 H       
  59 H59          -10.6401     3.4757    -1.4050 H       
@<TRIPOS>BOND
   1    1    2 1
   2    1    5 1
   3    2    3 2
   4    2    6 1
   5    3    4 1
   6    3    9 1
   7    4    5 2
   8    4   32 1
   9    5   33 1
  10    6    7 2
  11    6    8 am
  12    8   10 1
  13    8   34 1
  14    9   35 1
  15    9   36 1
  16    9   37 1
  17   10   14 1
  18   10   38 1
  19   10   39 1
  20   11   12 1
  21   11   15 1
  22   12   13 2
  23   12   24 1
  24   13   14 1
  25   14   15 2
  26   15   18 1
  27   16   17 ar
  28   16   21 ar
  29   16   23 1
  30   17   18 ar
  31   17   40 1
  32   18   19 ar
  33   19   20 ar
  34   19   41 1
  35   20   21 ar
  36   20   22 1
  37   22   42 1
  38   22   43 1
  39   22   44 1
  40   23   45 1
  41   23   46 1
  42   23   47 1
  43   24   25 1
  44   24   29 1
  45   25   26 1
  46   25   48 1
  47   25   49 1
  48   26   27 1
  49   26   31 1
  50   26   50 1
  51   27   28 1
  52   28   29 1
  53   28   30 1
  54   28   51 1
  55   29   52 1
  56   29   53 1
  57   30   54 1
  58   30   55 1
  59   30   56 1
  60   31   57 1
  61   31   58 1
  62   31   59 1

#	End of record

