#	Name: ASD08178231
#	Creating user name:	WinNT
#	Creation time:	15. 06. 2019 21:18

#	Modifying user name:	WinNT
#	Modification time:	15. 06. 2019 21:18

#	Program:	/corina/corina34_cracker 3.40 0067  02.08.2006

@<TRIPOS>MOLECULE
ASD08178231
  76   79    0    0    0
SMALL
NO_CHARGES


@<TRIPOS>ATOM
   1 C1            -0.6594    -0.3799    -1.4001 C.ar    
   2 C2            -0.7838    -1.8660    -1.1832 C.3     
   3 C3            -1.5958    -2.1300     0.0863 C.3     
   4 C4            -1.7221    -3.6388     0.3065 C.3     
   5 C5            -2.5341    -3.9027     1.5761 C.3     
   6 C6            -2.6585    -5.3889     1.7929 C.2     
   7 N7            -1.8415    -6.1334     2.4681 N.2     
   8 N8            -2.1208    -7.3628     2.5339 N.2     
   9 C9            -3.1928    -7.7711     1.9247 C.2     
  10 S10           -3.9469    -6.4256     1.1792 S.3     
  11 N11           -3.6550    -9.0824     1.8885 N.am    
  12 C12           -2.9718   -10.0554     2.5232 C.2     
  13 C13           -3.4726   -11.4763     2.4839 C.3     
  14 O14           -1.9540    -9.7876     3.1260 O.2     
  15 C15           -2.5354   -12.3610     3.2648 C.ar    
  16 C16           -2.7467   -12.5678     4.6157 C.ar    
  17 C17           -1.8896   -13.3780     5.3342 C.ar    
  18 C18           -0.8148   -13.9858     4.6985 C.ar    
  19 C19           -0.6056   -13.7765     3.3417 C.ar    
  20 C20           -1.4691   -12.9689     2.6278 C.ar    
  21 C21            0.5939     0.1982    -1.5399 C.ar    
  22 C22            0.6609     1.5690    -1.7377 C.ar    
  23 C23           -0.5362     2.2808    -1.7837 C.ar    
  24 N24           -1.6866     1.6401    -1.6398 N.ar    
  25 N25           -1.7421     0.3701    -1.4625 N.ar    
  26 N26           -0.5231     3.6613    -1.9800 N.am    
  27 C27           -1.6822     4.3304    -2.1385 C.2     
  28 C28           -1.6767     5.8342    -2.2372 C.3     
  29 O29           -2.7296     3.7224    -2.2018 O.2     
  30 C30           -3.0888     6.3315    -2.4094 C.ar    
  31 C31           -3.8538     6.6380    -1.2995 C.ar    
  32 C32           -3.6173     6.4865    -3.6773 C.ar    
  33 C33           -4.9126     6.9426    -3.8352 C.ar    
  34 C34           -5.6797     7.2433    -2.7252 C.ar    
  35 C35           -5.1492     7.0941    -1.4575 C.ar    
  36 N36            0.0557   -14.8069     5.4237 N.am    
  37 C37           -0.4120   -15.5445     6.4501 C.2     
  38 C38            0.5428   -16.3387     7.3038 C.3     
  39 O39           -1.6013   -15.5692     6.6868 O.2     
  40 N40           -0.2086   -17.0506     8.3462 N.3     
  41 C41           -1.0848   -18.0727     7.7585 C.3     
  42 C42            0.6991   -17.6425     9.3381 C.3     
  43 H43           -1.2885    -2.3169    -2.0377 H       
  44 H44            0.2095    -2.3020    -1.0764 H       
  45 H45           -1.0911    -1.6791     0.9408 H       
  46 H46           -2.5891    -1.6940    -0.0205 H       
  47 H47           -2.2268    -4.0897    -0.5479 H       
  48 H48           -0.7288    -4.0747     0.4133 H       
  49 H49           -2.0294    -3.4518     2.4305 H       
  50 H50           -3.5274    -3.4668     1.4692 H       
  51 H51           -4.4690    -9.2965     1.4064 H       
  52 H52           -4.4683   -11.5229     2.9250 H       
  53 H53           -3.5171   -11.8174     1.4496 H       
  54 H54           -3.5828   -12.0949     5.1094 H       
  55 H55           -2.0548   -13.5386     6.3893 H       
  56 H56            0.2294   -14.2477     2.8445 H       
  57 H57           -1.3072   -12.8060     1.5725 H       
  58 H58            1.4909    -0.4016    -1.4956 H       
  59 H59            1.6111     2.0694    -1.8521 H       
  60 H60            0.3203     4.1400    -2.0024 H       
  61 H61           -1.2512     6.2565    -1.3268 H       
  62 H62           -1.0768     6.1399    -3.0944 H       
  63 H63           -3.4396     6.5208    -0.3090 H       
  64 H64           -3.0180     6.2516    -4.5445 H       
  65 H65           -5.3252     7.0644    -4.8258 H       
  66 H66           -6.6915     7.6000    -2.8486 H       
  67 H67           -5.7484     7.3290    -0.5902 H       
  68 H68            0.9958   -14.8452     5.1876 H       
  69 H69            1.0730   -17.0596     6.6815 H       
  70 H70            1.2607   -15.6639     7.7701 H       
  71 H71           -0.4822   -18.7946     7.2073 H       
  72 H72           -1.6292   -18.5845     8.5520 H       
  73 H73           -1.7932   -17.5974     7.0800 H       
  74 H74            1.2876   -16.8545     9.8079 H       
  75 H75            0.1169   -18.1634    10.0981 H       
  76 H76            1.3664   -18.3488     8.8441 H       
@<TRIPOS>BOND
   1    1    2 1
   2    1   21 ar
   3    1   25 ar
   4    2    3 1
   5    2   43 1
   6    2   44 1
   7    3    4 1
   8    3   45 1
   9    3   46 1
  10    4    5 1
  11    4   47 1
  12    4   48 1
  13    5    6 1
  14    5   49 1
  15    5   50 1
  16    6    7 2
  17    6   10 1
  18    7    8 1
  19    8    9 2
  20    9   10 1
  21    9   11 1
  22   11   12 am
  23   11   51 1
  24   12   13 1
  25   12   14 2
  26   13   15 1
  27   13   52 1
  28   13   53 1
  29   15   16 ar
  30   15   20 ar
  31   16   17 ar
  32   16   54 1
  33   17   18 ar
  34   17   55 1
  35   18   19 ar
  36   18   36 1
  37   19   20 ar
  38   19   56 1
  39   20   57 1
  40   21   22 ar
  41   21   58 1
  42   22   23 ar
  43   22   59 1
  44   23   24 ar
  45   23   26 1
  46   24   25 ar
  47   26   27 am
  48   26   60 1
  49   27   28 1
  50   27   29 2
  51   28   30 1
  52   28   61 1
  53   28   62 1
  54   30   31 ar
  55   30   32 ar
  56   31   35 ar
  57   31   63 1
  58   32   33 ar
  59   32   64 1
  60   33   34 ar
  61   33   65 1
  62   34   35 ar
  63   34   66 1
  64   35   67 1
  65   36   37 am
  66   36   68 1
  67   37   38 1
  68   37   39 2
  69   38   40 1
  70   38   69 1
  71   38   70 1
  72   40   41 1
  73   40   42 1
  74   41   71 1
  75   41   72 1
  76   41   73 1
  77   42   74 1
  78   42   75 1
  79   42   76 1

#	End of record

