#	Name: ASD01813484
#	Creating user name:	WinNT
#	Creation time:	15. 06. 2019 19:30

#	Modifying user name:	WinNT
#	Modification time:	15. 06. 2019 19:30

#	Program:	/corina/corina34_cracker 3.40 0067  02.08.2006

@<TRIPOS>MOLECULE
ASD01813484
  48   51    0    0    0
SMALL
NO_CHARGES


@<TRIPOS>ATOM
   1 C1            -0.0021     1.3829    -0.0442 C.ar    
   2 C2             0.0111    -0.0044    -0.0527 C.ar    
   3 C3             1.2039    -0.6975    -0.0478 C.ar    
   4 C4             2.4126    -0.0020    -0.0342 C.ar    
   5 C5             2.3944     1.4027    -0.0256 C.ar    
   6 C6             1.1803     2.0893    -0.0306 C.ar    
   7 N7             3.6119    -0.6821    -0.0282 N.pl3   
   8 C8             4.7979    -0.0611    -0.0137 C.2     
   9 C9             4.9076     1.3150    -0.0038 C.2     
  10 C10            3.6796     2.1261    -0.0112 C.2     
  11 O11            3.7228     3.3439    -0.0032 O.2     
  12 C12            6.2286     1.9591     0.0130 C.2     
  13 O13            6.3226     3.3039     0.0226 O.3     
  14 O14            7.2363     1.2793     0.0182 O.2     
  15 C15            3.5874    -2.1468    -0.0375 C.3     
  16 C16            3.4448    -2.6379    -1.4551 C.ar    
  17 N17            2.2432    -2.7364    -1.9900 N.ar    
  18 C18            2.0643    -3.1594    -3.2246 C.ar    
  19 C19            3.1537    -3.5212    -4.0153 C.ar    
  20 C20            4.4409    -3.4277    -3.4764 C.ar    
  21 C21            4.5766    -2.9727    -2.1766 C.ar    
  22 C22            2.9513    -3.9976    -5.4044 C.ar    
  23 F23            1.2011    -2.0484    -0.0559 F       
  24 C24            1.6612    -4.0864    -5.9295 C.ar    
  25 C25            1.4715    -4.5267    -7.2138 C.ar    
  26 C26            2.5732    -4.8869    -7.9990 C.ar    
  27 C27            3.8664    -4.7965    -7.4703 C.ar    
  28 C28            4.0515    -4.3511    -6.1870 C.ar    
  29 C29            2.3725    -5.3598    -9.3763 C.2     
  30 O30            1.2494    -5.5278    -9.8021 O.2     
  31 C31            3.5622    -5.6359   -10.2591 C.3     
  32 H32           -0.9439     1.9114    -0.0527 H       
  33 H33           -0.9224    -0.5475    -0.0629 H       
  34 H34            1.1673     3.1692    -0.0243 H       
  35 H35            5.6989    -0.6567    -0.0094 H       
  36 H36            7.2127     3.6816     0.0336 H       
  37 H37            4.5158    -2.5284     0.3876 H       
  38 H38            2.7440    -2.4999     0.5559 H       
  39 H39            1.0646    -3.2269    -3.6277 H       
  40 H40            5.3071    -3.7001    -4.0611 H       
  41 H41            5.5552    -2.8872    -1.7276 H       
  42 H42            0.8117    -3.8084    -5.3234 H       
  43 H43            0.4730    -4.5960    -7.6195 H       
  44 H44            4.7178    -5.0739    -8.0742 H       
  45 H45            5.0489    -4.2808    -5.7788 H       
  46 H46            4.4752    -5.3438    -9.7403 H       
  47 H47            3.6018    -6.6997   -10.4933 H       
  48 H48            3.4701    -5.0638   -11.1824 H       
@<TRIPOS>BOND
   1    1    2 ar
   2    1    6 ar
   3    1   32 1
   4    2    3 ar
   5    2   33 1
   6    3    4 ar
   7    3   23 1
   8    4    5 ar
   9    4    7 1
  10    5    6 ar
  11    5   10 1
  12    6   34 1
  13    7    8 1
  14    7   15 1
  15    8    9 2
  16    8   35 1
  17    9   10 1
  18    9   12 1
  19   10   11 2
  20   12   13 1
  21   12   14 2
  22   13   36 1
  23   15   16 1
  24   15   37 1
  25   15   38 1
  26   16   17 ar
  27   16   21 ar
  28   17   18 ar
  29   18   19 ar
  30   18   39 1
  31   19   20 ar
  32   19   22 1
  33   20   21 ar
  34   20   40 1
  35   21   41 1
  36   22   24 ar
  37   22   28 ar
  38   24   25 ar
  39   24   42 1
  40   25   26 ar
  41   25   43 1
  42   26   27 ar
  43   26   29 1
  44   27   28 ar
  45   27   44 1
  46   28   45 1
  47   29   30 2
  48   29   31 1
  49   31   46 1
  50   31   47 1
  51   31   48 1

#	End of record

