#	Name: ASD03930150
#	Creating user name:	WinNT
#	Creation time:	15. 06. 2019 20:47

#	Modifying user name:	WinNT
#	Modification time:	15. 06. 2019 20:47

#	Program:	/corina/corina34_cracker 3.40 0067  02.08.2006

@<TRIPOS>MOLECULE
ASD03930150
  41   43    0    0    0
SMALL
NO_CHARGES


@<TRIPOS>ATOM
   1 C1            -0.0162     1.3436     0.0094 C.2     
   2 N2             0.0021    -0.0041     0.0020 N.am    
   3 O3             1.0277     1.9654     0.0028 O.2     
   4 O4            -1.1912     2.0008     0.0186 O.3     
   5 C5             1.8167    -0.9169     1.4198 C.3     
   6 C6             1.2806    -0.7192    -0.0140 C.3     
   7 C7             1.0906    -2.1719    -0.4998 C.3     
   8 C8             2.0792    -2.9904     0.3027 C.ar    
   9 C9             2.5745    -4.2653     0.0850 C.ar    
  10 C10            3.4832    -4.8177     0.9660 C.ar    
  11 C11            3.9005    -4.0964     2.0693 C.ar    
  12 C12            3.4078    -2.8250     2.2880 C.ar    
  13 C13            2.4964    -2.2693     1.4056 C.ar    
  14 C14            4.0199    -6.2051     0.7249 C.3     
  15 O15            5.2032    -6.1262    -0.0724 O.3     
  16 C16           -1.1349     3.4517     0.0262 C.3     
  17 C17           -2.5351     4.0087     0.0359 C.ar    
  18 C18           -3.1717     4.2577     1.2374 C.ar    
  19 C19           -4.4561     4.7686     1.2463 C.ar    
  20 C20           -5.1038     5.0309     0.0536 C.ar    
  21 C21           -4.4670     4.7828    -1.1480 C.ar    
  22 C22           -3.1809     4.2760    -1.1568 C.ar    
  23 H23           -0.8313    -0.5005     0.0073 H       
  24 H24            2.5352    -0.1351     1.6660 H       
  25 H25            0.9940    -0.9145     2.1348 H       
  26 H26            2.0105    -0.1963    -0.6320 H       
  27 H27            0.0726    -2.5071    -0.3011 H       
  28 H28            1.3133    -2.2469    -1.5642 H       
  29 H29            2.2487    -4.8295    -0.7764 H       
  30 H30            4.6109    -4.5270     2.7595 H       
  31 H31            3.7342    -2.2622     3.1500 H       
  32 H32            4.2559    -6.6744     1.6799 H       
  33 H33            3.2695    -6.7994     0.2036 H       
  34 H34            5.6039    -6.9844    -0.2675 H       
  35 H35           -0.6031     3.7900     0.9155 H       
  36 H36           -0.6116     3.7997    -0.8644 H       
  37 H37           -2.6656     4.0527     2.1692 H       
  38 H38           -4.9537     4.9624     2.1850 H       
  39 H39           -6.1076     5.4294     0.0605 H       
  40 H40           -4.9732     4.9875    -2.0798 H       
  41 H41           -2.6820     4.0856    -2.0955 H       
@<TRIPOS>BOND
   1    1    2 am
   2    1    3 2
   3    1    4 1
   4    2    6 1
   5    2   23 1
   6    4   16 1
   7    5    6 1
   8    5   13 1
   9    5   24 1
  10    5   25 1
  11    6    7 1
  12    6   26 1
  13    7    8 1
  14    7   27 1
  15    7   28 1
  16    8    9 ar
  17    8   13 ar
  18    9   10 ar
  19    9   29 1
  20   10   11 ar
  21   10   14 1
  22   11   12 ar
  23   11   30 1
  24   12   13 ar
  25   12   31 1
  26   14   15 1
  27   14   32 1
  28   14   33 1
  29   15   34 1
  30   16   17 1
  31   16   35 1
  32   16   36 1
  33   17   18 ar
  34   17   22 ar
  35   18   19 ar
  36   18   37 1
  37   19   20 ar
  38   19   38 1
  39   20   21 ar
  40   20   39 1
  41   21   22 ar
  42   21   40 1
  43   22   41 1

#	End of record

