#	Name: ASD01870194
#	Creating user name:	WinNT
#	Creation time:	15. 06. 2019 19:38

#	Modifying user name:	WinNT
#	Modification time:	15. 06. 2019 19:38

#	Program:	/corina/corina34_cracker 3.40 0067  02.08.2006

@<TRIPOS>MOLECULE
ASD01870194
  54   58    0    0    0
SMALL
NO_CHARGES


@<TRIPOS>ATOM
   1 C1             0.2497     1.2188     1.3867 C.ar    
   2 C2             0.2067    -0.1347     1.0593 C.ar    
   3 C3             1.2741    -0.7504     0.4794 C.ar    
   4 C4             2.4378    -0.0145     0.2047 C.ar    
   5 C5             2.4821     1.3646     0.5375 C.ar    
   6 C6             1.3601     1.9649     1.1358 C.ar    
   7 C7             3.5580    -0.6195    -0.3939 C.ar    
   8 C8             4.6723     0.1102    -0.6511 C.ar    
   9 C9             4.7320     1.4797    -0.3264 C.ar    
  10 C10            3.6414     2.0986     0.2636 C.ar    
  11 C11            5.8002     2.4846    -0.4948 C.2     
  12 N12            5.3952     3.6790    -0.0301 N.am    
  13 C13            4.0255     3.5410     0.4782 C.3     
  14 C14            6.1876     4.9112    -0.0312 C.3     
  15 C15            5.2667     6.1124    -0.2667 C.3     
  16 C16            4.2698     6.2158     0.8906 C.3     
  17 O17            4.9834     6.3337     2.1231 O.3     
  18 C18            5.8249     5.2172     2.4192 C.3     
  19 C19            6.8842     5.0736     1.3233 C.3     
  20 C20            3.5201    -2.0833    -0.7502 C.3     
  21 C21            2.8832    -2.2542    -2.1053 C.ar    
  22 C22            3.6580    -2.2356    -3.2477 C.ar    
  23 N23            3.1103    -2.3842    -4.4390 N.ar    
  24 C24            1.8073    -2.5558    -4.5872 C.ar    
  25 C25            0.9670    -2.5850    -3.4813 C.ar    
  26 C26            1.5117    -2.4376    -2.2178 C.ar    
  27 O27            6.8909     2.2633    -0.9837 O.2     
  28 O28            4.5566     5.9363    -1.4942 O.3     
  29 O29            1.2863    -2.7042    -5.8311 O.3     
  30 C30            2.2024    -2.6645    -6.9271 C.3     
  31 H31           -0.6121     1.6838     1.8421 H       
  32 H32           -0.6866    -0.7044     1.2689 H       
  33 H33            1.2257    -1.8006     0.2321 H       
  34 H34            1.3790     3.0134     1.3943 H       
  35 H35            5.5259    -0.3656    -1.1110 H       
  36 H36            3.3523     4.1948    -0.0763 H       
  37 H37            3.9938     3.7833     1.5404 H       
  38 H38            6.9346     4.8636    -0.8235 H       
  39 H39            5.8624     7.0238    -0.3168 H       
  40 H40            3.6396     7.0940     0.7501 H       
  41 H41            3.6472     5.3215     0.9152 H       
  42 H42            6.3149     5.3760     3.3798 H       
  43 H43            5.2226     4.3098     2.4637 H       
  44 H44            7.4994     4.1965     1.5240 H       
  45 H45            7.5126     5.9640     1.3052 H       
  46 H46            4.5359    -2.4779    -0.7738 H       
  47 H47            2.9376    -2.6239    -0.0042 H       
  48 H48            4.7260    -2.0973    -3.1654 H       
  49 H49           -0.0966    -2.7249    -3.6058 H       
  50 H50            0.8832    -2.4565    -1.3398 H       
  51 H51            3.9533     6.6615    -1.7071 H       
  52 H52            1.6567    -2.7951    -7.8616 H       
  53 H53            2.7153    -1.7028    -6.9373 H       
  54 H54            2.9339    -3.4653    -6.8185 H       
@<TRIPOS>BOND
   1    1    2 ar
   2    1    6 ar
   3    1   31 1
   4    2    3 ar
   5    2   32 1
   6    3    4 ar
   7    3   33 1
   8    4    5 ar
   9    4    7 ar
  10    5    6 ar
  11    5   10 ar
  12    6   34 1
  13    7    8 ar
  14    7   20 1
  15    8    9 ar
  16    8   35 1
  17    9   10 ar
  18    9   11 1
  19   10   13 1
  20   11   12 am
  21   11   27 2
  22   12   13 1
  23   12   14 1
  24   13   36 1
  25   13   37 1
  26   14   15 1
  27   14   19 1
  28   14   38 1
  29   15   16 1
  30   15   28 1
  31   15   39 1
  32   16   17 1
  33   16   40 1
  34   16   41 1
  35   17   18 1
  36   18   19 1
  37   18   42 1
  38   18   43 1
  39   19   44 1
  40   19   45 1
  41   20   21 1
  42   20   46 1
  43   20   47 1
  44   21   22 ar
  45   21   26 ar
  46   22   23 ar
  47   22   48 1
  48   23   24 ar
  49   24   25 ar
  50   24   29 1
  51   25   26 ar
  52   25   49 1
  53   26   50 1
  54   28   51 1
  55   29   30 1
  56   30   52 1
  57   30   53 1
  58   30   54 1

#	End of record

