#	Name: ASD01478084
#	Creating user name:	WinNT
#	Creation time:	15. 06. 2019 19:21

#	Modifying user name:	WinNT
#	Modification time:	15. 06. 2019 19:21

#	Program:	/corina/corina34_cracker 3.40 0067  02.08.2006

@<TRIPOS>MOLECULE
ASD01478084
  44   45    0    0    0
SMALL
NO_CHARGES


@<TRIPOS>ATOM
   1 O1             0.2125     2.0992    -0.3262 O.3     
   2 C2             0.2040     0.7345    -0.7498 C.3     
   3 C3            -0.7444    -0.0702     0.1412 C.3     
   4 O4            -0.0226    -1.1322     0.7683 O.3     
   5 C5            -0.2476    -1.2362     2.1756 C.3     
   6 O6             1.0036    -1.1794     2.8636 O.3     
   7 C7             1.0801    -0.1450     3.8465 C.3     
   8 C8             2.3660     0.6585     3.6424 C.3     
   9 O9             2.0397     2.0324     3.4240 O.3     
  10 C10            2.6059     2.5820     2.2326 C.3     
  11 C11            1.4993     3.2163     1.3875 C.3     
  12 C12            1.5129     2.6028    -0.0140 C.3     
  13 O13            0.2118     2.9691     2.0116 O.3     
  14 C14           -0.7473     3.8931     1.8201 C.2     
  15 O15           -0.5154     4.8790     1.1501 O.2     
  16 O16           -1.9634     3.7247     2.3711 O.3     
  17 C17           -2.9181     4.6377     2.0504 C.ar    
  18 C18           -3.5418     4.5851     0.8124 C.ar    
  19 C19           -4.5120     5.5138     0.4890 C.ar    
  20 C20           -4.8612     6.4956     1.3978 C.ar    
  21 C21           -4.2409     6.5501     2.6324 C.ar    
  22 C22           -3.2742     5.6202     2.9627 C.ar    
  23 N23           -5.9003     7.4901     1.0484 N.pl3   
  24 O24           -6.4470     7.4432    -0.0390 O.2     
  25 O25           -6.2087     8.3553     1.8482 O.2     
  26 H26           -0.1336     0.6774    -1.7846 H       
  27 H27            1.2108     0.3239    -0.6729 H       
  28 H28           -1.1668     0.5826     0.9051 H       
  29 H29           -1.5481    -0.4863    -0.4662 H       
  30 H30           -0.8807    -0.4120     2.5043 H       
  31 H31           -0.7406    -2.1831     2.3957 H       
  32 H32            0.2190     0.5158     3.7462 H       
  33 H33            1.0832    -0.5891     4.8419 H       
  34 H34            2.9939     0.5707     4.5291 H       
  35 H35            2.9033     0.2706     2.7769 H       
  36 H36            3.3417     3.3415     2.4969 H       
  37 H37            3.0903     1.7899     1.6616 H       
  38 H38            1.6679     4.2908     1.3155 H       
  39 H39            2.2357     1.7876    -0.0468 H       
  40 H40            1.7917     3.3650    -0.7416 H       
  41 H41           -3.2689     3.8189     0.1018 H       
  42 H42           -4.9978     5.4733    -0.4747 H       
  43 H43           -4.5152     7.3181     3.3404 H       
  44 H44           -2.7930     5.6607     3.9287 H       
@<TRIPOS>BOND
   1    1    2 1
   2    1   12 1
   3    2    3 1
   4    2   26 1
   5    2   27 1
   6    3    4 1
   7    3   28 1
   8    3   29 1
   9    4    5 1
  10    5    6 1
  11    5   30 1
  12    5   31 1
  13    6    7 1
  14    7    8 1
  15    7   32 1
  16    7   33 1
  17    8    9 1
  18    8   34 1
  19    8   35 1
  20    9   10 1
  21   10   11 1
  22   10   36 1
  23   10   37 1
  24   11   12 1
  25   11   13 1
  26   11   38 1
  27   12   39 1
  28   12   40 1
  29   13   14 1
  30   14   15 2
  31   14   16 1
  32   16   17 1
  33   17   18 ar
  34   17   22 ar
  35   18   19 ar
  36   18   41 1
  37   19   20 ar
  38   19   42 1
  39   20   21 ar
  40   20   23 1
  41   21   22 ar
  42   21   43 1
  43   22   44 1
  44   23   24 2
  45   23   25 2

#	End of record

