#	Name: ASD01915897
#	Creating user name:	WinNT
#	Creation time:	15. 06. 2019 20:06

#	Modifying user name:	WinNT
#	Modification time:	15. 06. 2019 20:06

#	Program:	/corina/corina34_cracker 3.40 0067  02.08.2006

@<TRIPOS>MOLECULE
ASD01915897
  39   42    0    0    0
SMALL
NO_CHARGES


@<TRIPOS>ATOM
   1 C1            -0.0027     1.4781     0.2373 C.2     
   2 C2             0.0708     0.1235    -0.0267 C.2     
   3 C3            -1.2001    -0.6632    -0.3025 C.3     
   4 C4            -2.3565    -0.0098     0.4517 C.3     
   5 N5            -2.4009     1.4359     0.2671 N.am    
   6 C6            -1.2794     2.1929     0.2819 C.2     
   7 O7            -1.3296     3.4084     0.3300 O.2     
   8 S8             1.6188     2.0845     0.4945 S.3     
   9 C9             2.2544     0.5162     0.2429 C.2     
  10 N10            1.2983    -0.3297    -0.0067 N.2     
  11 C11           -3.6387     2.0584     0.0691 C.ar    
  12 O12            3.5686     0.2000     0.2954 O.3     
  13 C13            4.4804     1.2620     0.5831 C.3     
  14 C14            5.8882     0.7246     0.6004 C.ar    
  15 C15            6.6527     0.6998    -0.5561 C.ar    
  16 C16            6.4518     0.2484     1.7743 C.ar    
  17 C17            7.7456    -0.2370     1.7517 C.ar    
  18 N18            8.4417    -0.2499     0.6317 N.ar    
  19 C19            7.9399     0.1996    -0.5019 C.ar    
  20 C20           -4.5721     2.0926     1.0967 C.ar    
  21 C21           -5.7928     2.7078     0.8993 C.ar    
  22 C22           -6.0864     3.2898    -0.3225 C.ar    
  23 C23           -5.1571     3.2567    -1.3485 C.ar    
  24 C24           -3.9330     2.6476    -1.1535 C.ar    
  25 F25           -7.2814     3.8902    -0.5138 F       
  26 H26           -1.4103    -0.6547    -1.3720 H       
  27 H27           -1.0753    -1.6907     0.0392 H       
  28 H28           -3.2944    -0.4388     0.0989 H       
  29 H29           -2.2506    -0.2260     1.5148 H       
  30 H30            4.3948     2.0321    -0.1836 H       
  31 H31            4.2432     1.6908     1.5567 H       
  32 H32            6.2473     1.0665    -1.4875 H       
  33 H33            5.8870     0.2570     2.6948 H       
  34 H34            8.1918    -0.6097     2.6618 H       
  35 H35            8.5403     0.1728    -1.3992 H       
  36 H36           -4.3438     1.6383     2.0495 H       
  37 H37           -6.5190     2.7347     1.6982 H       
  38 H38           -5.3882     3.7109    -2.3007 H       
  39 H39           -3.2084     2.6221    -1.9540 H       
@<TRIPOS>BOND
   1    1    2 2
   2    1    8 1
   3    1    6 1
   4    2    3 1
   5    2   10 1
   6    3    4 1
   7    3   26 1
   8    3   27 1
   9    4    5 1
  10    4   28 1
  11    4   29 1
  12    5    6 am
  13    5   11 1
  14    6    7 2
  15    8    9 1
  16    9   10 2
  17    9   12 1
  18   11   20 ar
  19   11   24 ar
  20   12   13 1
  21   13   14 1
  22   13   30 1
  23   13   31 1
  24   14   15 ar
  25   14   16 ar
  26   15   19 ar
  27   15   32 1
  28   16   17 ar
  29   16   33 1
  30   17   18 ar
  31   17   34 1
  32   18   19 ar
  33   19   35 1
  34   20   21 ar
  35   20   36 1
  36   21   22 ar
  37   21   37 1
  38   22   23 ar
  39   22   25 1
  40   23   24 ar
  41   23   38 1
  42   24   39 1

#	End of record

