#	Name: ASD01910469
#	Creating user name:	WinNT
#	Creation time:	15. 06. 2019 19:55

#	Modifying user name:	WinNT
#	Modification time:	15. 06. 2019 19:55

#	Program:	/corina/corina34_cracker 3.40 0067  02.08.2006

@<TRIPOS>MOLECULE
ASD01910469
  46   49    0    0    0
SMALL
NO_CHARGES


@<TRIPOS>ATOM
   1 C1             1.7881     0.3988    -0.5090 C.ar    
   2 C2             1.5911    -0.9962    -0.0432 C.2     
   3 N3             0.5555    -1.8079    -0.3548 N.2     
   4 C4             0.7910    -2.9344     0.2704 C.2     
   5 O5             1.9415    -2.7833     0.9339 O.3     
   6 N6             2.3896    -1.6728     0.7410 N.2     
   7 C7            -0.0730    -4.1689     0.2466 C.3     
   8 C8             0.7290    -5.3429    -0.3197 C.3     
   9 C9            -0.1575    -6.5892    -0.3749 C.3     
  10 C10           -0.6102    -6.9521     1.0428 C.3     
  11 N11           -1.2553    -5.7789     1.6481 N.am    
  12 C12           -0.5247    -4.5044     1.6714 C.3     
  13 C13           -2.4937    -5.8702     2.1720 C.2     
  14 C14           -3.2626    -7.1201     2.0327 C.2     
  15 O15           -2.9768    -4.9214     2.7596 O.2     
  16 C16            2.9102     1.1189    -0.1039 C.ar    
  17 C17            3.0897     2.4155    -0.5397 C.ar    
  18 C18            2.1558     3.0020    -1.3787 C.ar    
  19 C19            1.0386     2.2896    -1.7839 C.ar    
  20 C20            0.8543     0.9906    -1.3575 C.ar    
  21 F21            2.3349     4.2723    -1.8025 F       
  22 C22           -4.0256    -7.7656     2.9750 C.2     
  23 O23           -4.5215    -8.8513     2.3772 O.3     
  24 N24           -4.1764    -8.9585     1.2260 N.2     
  25 C25           -3.4073    -7.9805     0.8484 C.2     
  26 C26           -4.2570    -7.3339     4.4002 C.3     
  27 C27           -5.4903    -6.4308     4.4658 C.3     
  28 H28           -0.9467    -3.9894    -0.3799 H       
  29 H29            1.0726    -5.0969    -1.3245 H       
  30 H30            1.5894    -5.5374     0.3206 H       
  31 H31           -1.0308    -6.3872    -0.9952 H       
  32 H32            0.4073    -7.4188    -0.8001 H       
  33 H33           -1.3203    -7.7779     0.9995 H       
  34 H34            0.2546    -7.2420     1.6396 H       
  35 H35            0.3471    -4.5948     2.3194 H       
  36 H36           -1.1785    -3.7152     2.0428 H       
  37 H37            3.6382     0.6628     0.5506 H       
  38 H38            3.9591     2.9743    -0.2262 H       
  39 H39            0.3129     2.7506    -2.4376 H       
  40 H40           -0.0168     0.4360    -1.6738 H       
  41 H41           -2.9628    -7.8353    -0.1251 H       
  42 H42           -4.4166    -8.2129     5.0247 H       
  43 H43           -3.3860    -6.7861     4.7598 H       
  44 H44           -5.3306    -5.5519     3.8413 H       
  45 H45           -6.3613    -6.9787     4.1061 H       
  46 H46           -5.6576    -6.1186     5.4966 H       
@<TRIPOS>BOND
   1    1    2 1
   2    1   16 ar
   3    1   20 ar
   4    2    3 1
   5    2    6 2
   6    3    4 2
   7    4    5 1
   8    4    7 1
   9    5    6 1
  10    7    8 1
  11    7   12 1
  12    7   28 1
  13    8    9 1
  14    8   29 1
  15    8   30 1
  16    9   10 1
  17    9   31 1
  18    9   32 1
  19   10   11 1
  20   10   33 1
  21   10   34 1
  22   11   12 1
  23   11   13 am
  24   12   35 1
  25   12   36 1
  26   13   14 1
  27   13   15 2
  28   14   22 2
  29   14   25 1
  30   16   17 ar
  31   16   37 1
  32   17   18 ar
  33   17   38 1
  34   18   19 ar
  35   18   21 1
  36   19   20 ar
  37   19   39 1
  38   20   40 1
  39   22   23 1
  40   22   26 1
  41   23   24 1
  42   24   25 2
  43   25   41 1
  44   26   27 1
  45   26   42 1
  46   26   43 1
  47   27   44 1
  48   27   45 1
  49   27   46 1

#	End of record

