#	Name: ASD02198837
#	Creating user name:	WinNT
#	Creation time:	15. 06. 2019 20:20

#	Modifying user name:	WinNT
#	Modification time:	15. 06. 2019 20:20

#	Program:	/corina/corina34_cracker 3.40 0067  02.08.2006

@<TRIPOS>MOLECULE
ASD02198837
  54   58    0    0    0
SMALL
NO_CHARGES


@<TRIPOS>ATOM
   1 C1            -0.0436     1.5032    -0.1142 C.2     
   2 C2            -0.0736     0.1634     0.0985 C.2     
   3 N3             1.0704    -0.5384     0.2607 N.pl3   
   4 N4             2.2351    -0.0039     0.2265 N.2     
   5 C5             2.4068     1.2857     0.0280 C.2     
   6 C6             1.2213     2.1369    -0.1599 C.2     
   7 C7             0.9786    -1.9176     0.4774 C.ar    
   8 C8             1.5805    -2.4896     1.5976 C.ar    
   9 C9             1.4874    -3.8549     1.8094 C.ar    
  10 C10            0.7955    -4.6507     0.9067 C.ar    
  11 C11            0.1964    -4.0785    -0.2090 C.ar    
  12 C12            0.2831    -2.7174    -0.4199 C.ar    
  13 C13            3.7638     1.8677    -0.0054 C.2     
  14 N14            4.3053     2.6076    -1.0188 N.pl3   
  15 N15            5.6075     2.9590    -0.6418 N.2     
  16 C16            5.8519     2.4595     0.5435 C.2     
  17 C17            4.7201     1.7720     0.9818 C.2     
  18 C18            3.6716     2.9526    -2.2193 C.ar    
  19 C19            2.9085     2.0122    -2.8984 C.ar    
  20 C20            2.2843     2.3557    -4.0819 C.ar    
  21 C21            2.4193     3.6342    -4.5905 C.ar    
  22 C22            3.1791     4.5731    -3.9167 C.ar    
  23 C23            3.8004     4.2377    -2.7299 C.ar    
  24 O24            1.3244     3.3401    -0.3479 O.2     
  25 N25            0.7015    -6.0307     1.1202 N.am    
  26 C26            0.0019    -6.9856     0.2472 C.3     
  27 C27            0.2135    -8.3434     0.9445 C.3     
  28 O28            1.0018    -8.0146     2.1249 O.3     
  29 C29            1.2391    -6.6982     2.1503 C.2     
  30 O30            1.8773    -6.1564     3.0310 O.2     
  31 C31            3.3243     5.9652    -4.4752 C.3     
  32 F32            2.6061     6.0650    -5.6716 F       
  33 F33            2.8256     6.8919    -3.5533 F       
  34 F34            4.6759     6.2312    -4.7191 F       
  35 O35            2.2578    -1.7086     2.4798 O.3     
  36 C36            2.8489    -2.3626     3.6044 C.3     
  37 H37           -0.9549     2.0670    -0.2486 H       
  38 H38           -1.0235    -0.3488     0.1390 H       
  39 H39            1.9530    -4.3003     2.6762 H       
  40 H40           -0.3412    -4.6995    -0.9103 H       
  41 H41           -0.1834    -2.2750    -1.2877 H       
  42 H42            6.7758     2.5652     1.0926 H       
  43 H43            4.6148     1.2524     1.9227 H       
  44 H44            2.8033     1.0131    -2.5020 H       
  45 H45            1.6907     1.6246    -4.6106 H       
  46 H46            1.9306     3.9003    -5.5162 H       
  47 H47            4.3933     4.9714    -2.2040 H       
  48 H48           -1.0599    -6.7457     0.1905 H       
  49 H49            0.4475    -6.9925    -0.7475 H       
  50 H50           -0.7436    -8.7780     1.2330 H       
  51 H51            0.7634    -9.0247     0.2953 H       
  52 H52            3.5686    -3.1037     3.2568 H       
  53 H53            3.3574    -1.6264     4.2270 H       
  54 H54            2.0716    -2.8566     4.1874 H       
@<TRIPOS>BOND
   1    1    2 2
   2    1    6 1
   3    1   37 1
   4    2    3 1
   5    2   38 1
   6    3    4 1
   7    3    7 1
   8    4    5 2
   9    5    6 1
  10    5   13 1
  11    6   24 2
  12    7    8 ar
  13    7   12 ar
  14    8    9 ar
  15    8   35 1
  16    9   10 ar
  17    9   39 1
  18   10   11 ar
  19   10   25 1
  20   11   12 ar
  21   11   40 1
  22   12   41 1
  23   13   14 1
  24   13   17 2
  25   14   15 1
  26   14   18 1
  27   15   16 2
  28   16   17 1
  29   16   42 1
  30   17   43 1
  31   18   19 ar
  32   18   23 ar
  33   19   20 ar
  34   19   44 1
  35   20   21 ar
  36   20   45 1
  37   21   22 ar
  38   21   46 1
  39   22   23 ar
  40   22   31 1
  41   23   47 1
  42   25   26 1
  43   25   29 am
  44   26   27 1
  45   26   48 1
  46   26   49 1
  47   27   28 1
  48   27   50 1
  49   27   51 1
  50   28   29 1
  51   29   30 2
  52   31   32 1
  53   31   33 1
  54   31   34 1
  55   35   36 1
  56   36   52 1
  57   36   53 1
  58   36   54 1

#	End of record

