#	Name: ASD02508085
#	Creating user name:	WinNT
#	Creation time:	15. 06. 2019 20:23

#	Modifying user name:	WinNT
#	Modification time:	15. 06. 2019 20:23

#	Program:	/corina/corina34_cracker 3.40 0067  02.08.2006

@<TRIPOS>MOLECULE
ASD02508085
  30   32    0    0    0
SMALL
NO_CHARGES


@<TRIPOS>ATOM
   1 C1             0.9742     2.2719    -0.0450 C.ar    
   2 C2             0.6297     0.9172     0.0754 C.ar    
   3 C3             2.3276     2.5872    -0.1732 C.ar    
   4 C4             3.3024     1.6064    -0.1824 C.ar    
   5 C5             2.9410     0.2720    -0.0620 C.ar    
   6 C6             1.5972    -0.0596     0.0671 C.ar    
   7 N7             0.1266     3.3682    -0.0595 N.am    
   8 C8             0.6596     4.5874    -0.1843 C.2     
   9 S9             2.4110     4.3496    -0.3012 S.3     
  10 N10            3.9187    -0.7288    -0.0704 N.am    
  11 S11            3.8686    -1.9446     1.0528 S.o2    
  12 C12            4.0527    -1.1981     2.6381 C.ar    
  13 C13            2.9343    -0.8991     3.3970 C.ar    
  14 O14            0.0618     5.6473    -0.2146 O.2     
  15 O15            2.5515    -2.4763     1.0101 O.2     
  16 O16            5.0321    -2.7329     0.8429 O.2     
  17 C17            5.3160    -0.9153     3.1281 C.ar    
  18 C18            5.4594    -0.3286     4.3741 C.ar    
  19 C19            4.3418    -0.0253     5.1285 C.ar    
  20 C20            3.0801    -0.3124     4.6427 C.ar    
  21 F21            1.7009    -1.1792     2.9222 F       
  22 F22            6.4086    -1.2121     2.3911 F       
  23 H23           -0.4087     0.6381     0.1763 H       
  24 H24            4.3427     1.8783    -0.2833 H       
  25 H25            1.3098    -1.0964     0.1611 H       
  26 H26           -0.8333     3.2531     0.0190 H       
  27 H27            4.6258    -0.7105    -0.7341 H       
  28 H28            6.4450    -0.1082     4.7568 H       
  29 H29            4.4546     0.4320     6.1004 H       
  30 H30            2.2075    -0.0749     5.2331 H       
@<TRIPOS>BOND
   1    1    2 ar
   2    1    3 ar
   3    1    7 1
   4    2    6 ar
   5    2   23 1
   6    3    4 ar
   7    3    9 1
   8    4    5 ar
   9    4   24 1
  10    5    6 ar
  11    5   10 1
  12    6   25 1
  13    7    8 am
  14    7   26 1
  15    8    9 1
  16    8   14 2
  17   10   11 am
  18   10   27 1
  19   11   12 1
  20   11   15 2
  21   11   16 2
  22   12   13 ar
  23   12   17 ar
  24   13   21 1
  25   13   20 ar
  26   17   18 ar
  27   17   22 1
  28   18   19 ar
  29   18   28 1
  30   19   20 ar
  31   19   29 1
  32   20   30 1

#	End of record

