#	Name: ASD01881569
#	Creating user name:	WinNT
#	Creation time:	15. 06. 2019 19:42

#	Modifying user name:	WinNT
#	Modification time:	15. 06. 2019 19:42

#	Program:	/corina/corina34_cracker 3.40 0067  02.08.2006

@<TRIPOS>MOLECULE
ASD01881569
  47   50    0    0    0
SMALL
NO_CHARGES


@<TRIPOS>ATOM
   1 C1            -0.3065     1.0469     0.4519 C.2     
   2 C2            -0.0873    -0.2609     0.8401 C.2     
   3 N3            -1.2191    -0.6676     1.4857 N.pl3   
   4 C4            -2.0940     0.3852     1.4786 C.2     
   5 N5            -1.5195     1.3997     0.8585 N.2     
   6 C6            -1.8713    -1.7786     2.1822 C.3     
   7 N7            -3.1986    -1.3016     2.5862 N.am    
   8 C8            -3.3254    -0.0279     2.1706 C.2     
   9 Br9            0.9126     2.1453    -0.4880 Br      
  10 O10           -4.3052     0.6728     2.3405 O.2     
  11 C11           -4.2076    -2.0752     3.3139 C.3     
  12 C12           -4.0114    -1.8812     4.8189 C.3     
  13 C13           -5.0652    -2.6891     5.5789 C.3     
  14 C14           -4.8691    -2.4951     7.0838 C.3     
  15 C15            1.1313    -1.0612     0.6028 C.ar    
  16 C16            1.7423    -1.0509    -0.6532 C.ar    
  17 C17            1.6790    -1.8258     1.6354 C.ar    
  18 C18            2.8159    -2.5711     1.4100 C.ar    
  19 C19            3.4174    -2.5627     0.1577 C.ar    
  20 C20            2.8790    -1.7990    -0.8704 C.ar    
  21 O21            4.5381    -3.2983    -0.0603 O.3     
  22 C22            4.3870    -4.5847    -0.4708 C.ar    
  23 C23            3.1226    -5.0782    -0.7596 C.ar    
  24 C24            2.9718    -6.3864    -1.1767 C.ar    
  25 C25            4.0792    -7.2041    -1.3061 C.ar    
  26 C26            5.3402    -6.7151    -1.0186 C.ar    
  27 C27            5.4973    -5.4057    -0.6075 C.ar    
  28 H28           -1.9698    -2.6326     1.5121 H       
  29 H29           -1.2919    -2.0590     3.0618 H       
  30 H30           -5.2026    -1.7325     3.0301 H       
  31 H31           -4.1031    -3.1318     3.0672 H       
  32 H32           -3.0164    -2.2239     5.1027 H       
  33 H33           -4.1159    -0.8247     5.0656 H       
  34 H34           -6.0603    -2.3464     5.2950 H       
  35 H35           -4.9607    -3.7457     5.3321 H       
  36 H36           -5.6198    -3.0707     7.6253 H       
  37 H37           -3.8740    -2.8378     7.3677 H       
  38 H38           -4.9736    -1.4385     7.3306 H       
  39 H39            1.3242    -0.4578    -1.4530 H       
  40 H40            1.2123    -1.8326     2.6093 H       
  41 H41            3.2402    -3.1623     2.2080 H       
  42 H42            3.3495    -1.7951    -1.8426 H       
  43 H43            2.2572    -4.4401    -0.6580 H       
  44 H44            1.9879    -6.7709    -1.4015 H       
  45 H45            3.9590    -8.2268    -1.6320 H       
  46 H46            6.2035    -7.3560    -1.1201 H       
  47 H47            6.4824    -5.0242    -0.3830 H       
@<TRIPOS>BOND
   1    1    2 2
   2    1    9 1
   3    1    5 1
   4    2    3 1
   5    2   15 1
   6    3    4 1
   7    3    6 1
   8    4    5 2
   9    4    8 1
  10    6    7 1
  11    6   28 1
  12    6   29 1
  13    7    8 am
  14    7   11 1
  15    8   10 2
  16   11   12 1
  17   11   30 1
  18   11   31 1
  19   12   13 1
  20   12   32 1
  21   12   33 1
  22   13   14 1
  23   13   34 1
  24   13   35 1
  25   14   36 1
  26   14   37 1
  27   14   38 1
  28   15   16 ar
  29   15   17 ar
  30   16   20 ar
  31   16   39 1
  32   17   18 ar
  33   17   40 1
  34   18   19 ar
  35   18   41 1
  36   19   20 ar
  37   19   21 1
  38   20   42 1
  39   21   22 1
  40   22   23 ar
  41   22   27 ar
  42   23   24 ar
  43   23   43 1
  44   24   25 ar
  45   24   44 1
  46   25   26 ar
  47   25   45 1
  48   26   27 ar
  49   26   46 1
  50   27   47 1

#	End of record

