#	Name: ASD01916703
#	Creating user name:	WinNT
#	Creation time:	15. 06. 2019 20:07

#	Modifying user name:	WinNT
#	Modification time:	15. 06. 2019 20:07

#	Program:	/corina/corina34_cracker 3.40 0067  02.08.2006

@<TRIPOS>MOLECULE
ASD01916703
  32   34    0    0    0
SMALL
NO_CHARGES


@<TRIPOS>ATOM
   1 O1            -0.0161     1.3386     0.0094 O.3     
   2 C2             0.0021    -0.0041     0.0020 C.2     
   3 N3             1.2264    -0.4373    -0.0120 N.2     
   4 C4             2.0693     0.6308    -0.0143 C.ar    
   5 C5             1.2619     1.7771    -0.0004 C.ar    
   6 C6             1.8476     3.0347     0.0003 C.ar    
   7 C7             3.2217     3.1551    -0.0126 C.ar    
   8 C8             4.0273     2.0271    -0.0263 C.ar    
   9 C9             3.4626     0.7655    -0.0273 C.ar    
  10 O10            4.2556    -0.3381    -0.0408 O.3     
  11 C11           -1.2225    -0.8823     0.0094 C.3     
  12 C12           -1.6230    -1.1868     1.4544 C.3     
  13 C13           -2.8192    -2.0447     1.4616 C.1     
  14 C14           -3.7732    -2.7289     1.4674 C.1     
  15 C15           -4.9368    -3.5634     1.4745 C.ar    
  16 C16           -5.4877    -3.9730     2.6893 C.ar    
  17 C17           -6.6120    -4.7791     2.6794 C.ar    
  18 C18           -7.1506    -5.1507     1.4551 C.ar    
  19 C19           -6.5538    -4.7088     0.2888 C.ar    
  20 N20           -5.4866    -3.9372     0.3249 N.ar    
  21 H21            1.2279     3.9192     0.0106 H       
  22 H22            3.6736     4.1361    -0.0123 H       
  23 H23            5.1019     2.1346    -0.0363 H       
  24 H24            4.4764    -0.6529    -0.9280 H       
  25 H25           -2.0414    -0.3683    -0.4939 H       
  26 H26           -1.0041    -1.8147    -0.5112 H       
  27 H27           -0.8042    -1.7008     1.9577 H       
  28 H28           -1.8414    -0.2544     1.9750 H       
  29 H29           -5.0426    -3.6654     3.6240 H       
  30 H30           -7.0606    -5.1123     3.6037 H       
  31 H31           -8.0276    -5.7796     1.4140 H       
  32 H32           -6.9707    -4.9968    -0.6650 H       
@<TRIPOS>BOND
   1    1    2 1
   2    1    5 1
   3    2    3 2
   4    2   11 1
   5    3    4 1
   6    4    5 ar
   7    4    9 ar
   8    5    6 ar
   9    6    7 ar
  10    6   21 1
  11    7    8 ar
  12    7   22 1
  13    8    9 ar
  14    8   23 1
  15    9   10 1
  16   10   24 1
  17   11   12 1
  18   11   25 1
  19   11   26 1
  20   12   13 1
  21   12   27 1
  22   12   28 1
  23   13   14 3
  24   14   15 1
  25   15   16 ar
  26   15   20 ar
  27   16   17 ar
  28   16   29 1
  29   17   18 ar
  30   17   30 1
  31   18   19 ar
  32   18   31 1
  33   19   20 ar
  34   19   32 1

#	End of record

