#	Name: ASD01882255
#	Creating user name:	WinNT
#	Creation time:	15. 06. 2019 19:44

#	Modifying user name:	WinNT
#	Modification time:	15. 06. 2019 19:44

#	Program:	/corina/corina34_cracker 3.40 0067  02.08.2006

@<TRIPOS>MOLECULE
ASD01882255
  46   49    0    0    0
SMALL
NO_CHARGES


@<TRIPOS>ATOM
   1 C1            -0.0167     1.3816     0.0096 C.ar    
   2 C2             0.0021    -0.0041     0.0020 C.ar    
   3 C3             1.2173    -0.6623    -0.0131 C.ar    
   4 N4             2.3516     0.0103    -0.0199 N.ar    
   5 C5             2.3772     1.3282    -0.0131 C.ar    
   6 C6             1.1980     2.0592     0.0017 C.ar    
   7 C7             1.2464    -2.1690    -0.0215 C.3     
   8 C8             0.8697    -2.6787    -1.4141 C.3     
   9 C9             2.6529    -2.6539     0.3358 C.3     
  10 C10            0.2463    -2.7042     1.0052 C.3     
  11 O11            1.2294     3.4179     0.0082 O.3     
  12 C12            2.5172     4.0372    -0.0007 C.3     
  13 C13            2.3518     5.5582     0.0085 C.3     
  14 C14            2.4690     7.2245     1.5430 C.2     
  15 O15            1.8987     6.0161     1.2949 O.3     
  16 C16            3.7224     6.2615    -0.1268 C.3     
  17 N17            3.5597     7.4341     0.7506 N.pl3   
  18 C18            3.2651     9.1917     2.0808 C.ar    
  19 N19            2.2954     8.2718     2.3215 N.2     
  20 C20            4.0907     8.6662     1.0711 C.ar    
  21 C21            3.5499    10.4465     2.6174 C.ar    
  22 C22            5.1829     9.3928     0.6130 C.ar    
  23 C23            5.4596    10.6216     1.1398 C.ar    
  24 C24            4.6476    11.1614     2.1458 C.ar    
  25 C25            4.9479    12.4510     2.6910 C.1     
  26 N26            5.1861    13.4741     3.1236 N.1     
  27 H27           -0.9517     1.9221     0.0170 H       
  28 H28           -0.9220    -0.5630     0.0082 H       
  29 H29            3.3259     1.8443    -0.0190 H       
  30 H30            1.5823    -2.2974    -2.1455 H       
  31 H31            0.8908    -3.7685    -1.4201 H       
  32 H32           -0.1322    -2.3333    -1.6686 H       
  33 H33            2.9212    -2.2908     1.3279 H       
  34 H34            2.6740    -3.7437     0.3298 H       
  35 H35            3.3654    -2.2726    -0.3956 H       
  36 H36           -0.7557    -2.3588     0.7507 H       
  37 H37            0.2674    -3.7940     0.9992 H       
  38 H38            0.5146    -2.3411     1.9973 H       
  39 H39            3.0756     3.7270     0.8825 H       
  40 H40            3.0590     3.7360    -0.8973 H       
  41 H41            1.6724     5.8775    -0.7817 H       
  42 H42            4.5258     5.6177     0.2311 H       
  43 H43            3.9003     6.5696    -1.1570 H       
  44 H44            2.9231    10.8614     3.3929 H       
  45 H45            5.8149     8.9843    -0.1617 H       
  46 H46            6.3101    11.1810     0.7790 H       
@<TRIPOS>BOND
   1    1    2 ar
   2    1    6 ar
   3    1   27 1
   4    2    3 ar
   5    2   28 1
   6    3    4 ar
   7    3    7 1
   8    4    5 ar
   9    5    6 ar
  10    5   29 1
  11    6   11 1
  12    7    8 1
  13    7    9 1
  14    7   10 1
  15    8   30 1
  16    8   31 1
  17    8   32 1
  18    9   33 1
  19    9   34 1
  20    9   35 1
  21   10   36 1
  22   10   37 1
  23   10   38 1
  24   11   12 1
  25   12   13 1
  26   12   39 1
  27   12   40 1
  28   13   16 1
  29   13   15 1
  30   13   41 1
  31   14   15 1
  32   14   17 1
  33   14   19 2
  34   16   17 1
  35   16   42 1
  36   16   43 1
  37   17   20 1
  38   18   19 1
  39   18   20 ar
  40   18   21 ar
  41   20   22 ar
  42   21   24 ar
  43   21   44 1
  44   22   23 ar
  45   22   45 1
  46   23   24 ar
  47   23   46 1
  48   24   25 1
  49   25   26 3

#	End of record

