#	Name: ASD01913078
#	Creating user name:	WinNT
#	Creation time:	15. 06. 2019 20:00

#	Modifying user name:	WinNT
#	Modification time:	15. 06. 2019 20:00

#	Program:	/corina/corina34_cracker 3.40 0067  02.08.2006

@<TRIPOS>MOLECULE
ASD01913078
  33   35    0    0    0
SMALL
NO_CHARGES


@<TRIPOS>ATOM
   1 C1            -0.0167     1.3816     0.0096 C.ar    
   2 C2             0.0021    -0.0041     0.0020 C.ar    
   3 C3             1.1986    -0.6930    -0.0093 C.ar    
   4 C4             2.4008     0.0007    -0.0132 C.ar    
   5 C5             2.3809     1.4050    -0.0123 C.ar    
   6 C6             1.1655     2.0911     0.0022 C.ar    
   7 O7             3.5728    -0.6758    -0.0114 O.3     
   8 C8             4.7452    -0.0184    -0.4920 C.3     
   9 C9             4.9119     1.3228     0.2371 C.3     
  10 C10            3.6592     2.1379    -0.0314 C.2     
  11 O11            3.7082     3.3299    -0.2507 O.2     
  12 C12           -1.2974    -0.7672     0.0067 C.3     
  13 O13           -1.7173    -1.0011    -1.3391 O.3     
  14 C14           -2.8802    -1.6824    -1.5130 C.ar    
  15 C15           -3.3472    -1.9446    -2.7928 C.ar    
  16 C16           -3.5995    -2.1218    -0.4111 C.ar    
  17 C17           -4.7815    -2.8141    -0.5905 C.ar    
  18 C18           -5.2477    -3.0692    -1.8669 C.ar    
  19 C19           -4.5297    -2.6373    -2.9669 C.ar    
  20 H20           -0.9601     1.9073     0.0169 H       
  21 H21            1.1991    -1.7730    -0.0149 H       
  22 H22            1.1512     3.1710     0.0078 H       
  23 H23            5.6167    -0.6454    -0.3037 H       
  24 H24            4.6492     0.1594    -1.5631 H       
  25 H25            5.0213     1.1522     1.3081 H       
  26 H26            5.7861     1.8482    -0.1473 H       
  27 H27           -1.1566    -1.7214     0.5144 H       
  28 H28           -2.0579    -0.1865     0.5288 H       
  29 H29           -2.7869    -1.6072    -3.6522 H       
  30 H30           -3.2356    -1.9231     0.5862 H       
  31 H31           -5.3416    -3.1566     0.2670 H       
  32 H32           -6.1719    -3.6106    -2.0051 H       
  33 H33           -4.8961    -2.8375    -3.9629 H       
@<TRIPOS>BOND
   1    1    2 ar
   2    1    6 ar
   3    1   20 1
   4    2    3 ar
   5    2   12 1
   6    3    4 ar
   7    3   21 1
   8    4    5 ar
   9    4    7 1
  10    5    6 ar
  11    5   10 1
  12    6   22 1
  13    7    8 1
  14    8    9 1
  15    8   23 1
  16    8   24 1
  17    9   10 1
  18    9   25 1
  19    9   26 1
  20   10   11 2
  21   12   13 1
  22   12   27 1
  23   12   28 1
  24   13   14 1
  25   14   15 ar
  26   14   16 ar
  27   15   19 ar
  28   15   29 1
  29   16   17 ar
  30   16   30 1
  31   17   18 ar
  32   17   31 1
  33   18   19 ar
  34   18   32 1
  35   19   33 1

#	End of record

