#	Name: ASD01813619
#	Creating user name:	WinNT
#	Creation time:	15. 06. 2019 19:30

#	Modifying user name:	WinNT
#	Modification time:	15. 06. 2019 19:30

#	Program:	/corina/corina34_cracker 3.40 0067  02.08.2006

@<TRIPOS>MOLECULE
ASD01813619
  43   46    0    0    0
SMALL
NO_CHARGES


@<TRIPOS>ATOM
   1 C1            -0.0168     1.3825    -0.0436 C.ar    
   2 C2             0.0020    -0.0038    -0.0506 C.ar    
   3 C3             1.1975    -0.6932    -0.0477 C.ar    
   4 C4             2.4040     0.0044    -0.0380 C.ar    
   5 C5             2.3834     1.4096    -0.0313 C.ar    
   6 C6             1.1657     2.0946    -0.0340 C.ar    
   7 N7             3.6050    -0.6734    -0.0339 N.pl3   
   8 C8             4.7898    -0.0496    -0.0237 C.2     
   9 C9             4.8962     1.3266    -0.0160 C.2     
  10 C10            3.6660     2.1351    -0.0211 C.2     
  11 O11            3.7066     3.3531    -0.0152 O.2     
  12 C12            6.2155     1.9737    -0.0039 C.2     
  13 O13            6.3065     3.3187     0.0036 O.3     
  14 O14            7.2249     1.2962    -0.0005 O.2     
  15 C15            3.5837    -2.1382    -0.0406 C.3     
  16 C16            3.4403    -2.6321    -1.4571 C.ar    
  17 N17            2.2405    -2.7346    -1.9911 N.ar    
  18 C18            2.0669    -3.1642    -3.2346 C.ar    
  19 C19            3.1611    -3.5228    -4.0190 C.ar    
  20 C20            4.4338    -3.4249    -3.4831 C.ar    
  21 C21            4.5706    -2.9661    -2.1808 C.ar    
  22 F22            1.1984    -2.0441    -0.0537 F       
  23 F23            1.1457     3.4455    -0.0280 F       
  24 C24            0.6972    -3.2638    -3.7938 C.ar    
  25 C25           -0.4009    -2.9072    -3.0146 C.ar    
  26 N26           -1.6207    -2.9957    -3.5133 N.ar    
  27 C27           -1.8000    -3.4243    -4.7566 C.ar    
  28 C28           -0.7003    -3.7814    -5.5370 C.ar    
  29 N29            0.5171    -3.6887    -5.0421 N.ar    
  30 N30           -3.0824    -3.5176    -5.2804 N.pl3   
  31 H31           -0.9606     1.9075    -0.0501 H       
  32 H32           -0.9295    -0.5504    -0.0582 H       
  33 H33            5.6921    -0.6430    -0.0211 H       
  34 H34            7.1957     3.6986     0.0115 H       
  35 H35            4.5134    -2.5171     0.3839 H       
  36 H36            2.7418    -2.4920     0.5545 H       
  37 H37            3.0185    -3.8726    -5.0308 H       
  38 H38            5.3011    -3.6957    -4.0669 H       
  39 H39            5.5498    -2.8780    -1.7339 H       
  40 H40           -0.2550    -2.5588    -2.0028 H       
  41 H41           -0.8466    -4.1305    -6.5485 H       
  42 H42           -3.8472    -3.2696    -4.7377 H       
  43 H43           -3.2135    -3.8308    -6.1890 H       
@<TRIPOS>BOND
   1    1    2 ar
   2    1    6 ar
   3    1   31 1
   4    2    3 ar
   5    2   32 1
   6    3    4 ar
   7    3   22 1
   8    4    5 ar
   9    4    7 1
  10    5    6 ar
  11    5   10 1
  12    6   23 1
  13    7    8 1
  14    7   15 1
  15    8    9 2
  16    8   33 1
  17    9   10 1
  18    9   12 1
  19   10   11 2
  20   12   13 1
  21   12   14 2
  22   13   34 1
  23   15   16 1
  24   15   35 1
  25   15   36 1
  26   16   17 ar
  27   16   21 ar
  28   17   18 ar
  29   18   19 ar
  30   18   24 1
  31   19   20 ar
  32   19   37 1
  33   20   21 ar
  34   20   38 1
  35   21   39 1
  36   24   25 ar
  37   24   29 ar
  38   25   26 ar
  39   25   40 1
  40   26   27 ar
  41   27   28 ar
  42   27   30 1
  43   28   29 ar
  44   28   41 1
  45   30   42 1
  46   30   43 1

#	End of record

