#	Name: ASD01850021
#	Creating user name:	WinNT
#	Creation time:	15. 06. 2019 19:38

#	Modifying user name:	WinNT
#	Modification time:	15. 06. 2019 19:38

#	Program:	/corina/corina34_cracker 3.40 0067  02.08.2006

@<TRIPOS>MOLECULE
ASD01850021
  48   52    0    0    0
SMALL
NO_CHARGES


@<TRIPOS>ATOM
   1 F1             0.2184     0.3904     1.0587 F       
   2 C2             0.1103     1.7136     0.8087 C.ar    
   3 C3             1.2441     2.5078     0.7780 C.ar    
   4 C4             1.1324     3.8612     0.5217 C.ar    
   5 C5            -0.1108     4.4222     0.2961 C.ar    
   6 C6            -1.2436     3.6303     0.3269 C.ar    
   7 C7            -1.1337     2.2757     0.5773 C.ar    
   8 C8            -0.2313     5.8982     0.0167 C.3     
   9 N9             0.9617     6.3988    -0.6764 N.am    
  10 C10            1.8760     6.8991     0.3725 C.3     
  11 C11            1.1127     6.7190     1.7072 C.3     
  12 N12           -0.2965     6.6744     1.2796 N.am    
  13 C13           -1.5687     7.0229     1.4743 C.2     
  14 O14           -2.0412     7.3890     2.5327 O.2     
  15 C15           -2.3166     6.8955     0.2049 C.ar    
  16 C16           -1.5018     6.2009    -0.7251 C.ar    
  17 C17           -1.9584     5.9636    -2.0010 C.ar    
  18 C18           -3.2199     6.3926    -2.3769 C.ar    
  19 C19           -4.0265     7.0611    -1.4726 C.ar    
  20 C20           -3.5916     7.3083    -0.1814 C.ar    
  21 C21            1.1808     6.4013    -2.0062 C.2     
  22 O22            0.3864     5.8655    -2.7541 O.2     
  23 C23            2.3875     7.0558    -2.5553 C.ar    
  24 C24            3.3847     7.5207    -1.6968 C.ar    
  25 C25            4.5085     8.1301    -2.2158 C.ar    
  26 C26            4.6478     8.2812    -3.5838 C.ar    
  27 C27            3.6627     7.8224    -4.4406 C.ar    
  28 C28            2.5369     7.2062    -3.9351 C.ar    
  29 C29            3.8229     7.9912    -5.9295 C.3     
  30 F30            5.0366     8.6331    -6.1981 F       
  31 F31            3.8136     6.7349    -6.5450 F       
  32 F32            2.7673     8.7624    -6.4276 F       
  33 H33            2.2154     2.0698     0.9547 H       
  34 H34            2.0166     4.4809     0.4981 H       
  35 H35           -2.2143     4.0698     0.1511 H       
  36 H36           -2.0188     1.6572     0.6014 H       
  37 H37            2.7953     6.3136     0.3820 H       
  38 H38            2.1006     7.9525     0.2058 H       
  39 H39            1.3983     5.7852     2.1916 H       
  40 H40            1.2880     7.5671     2.3690 H       
  41 H41           -1.3321     5.4425    -2.7100 H       
  42 H42           -3.5756     6.2052    -3.3793 H       
  43 H43           -5.0114     7.3892    -1.7706 H       
  44 H44           -4.2312     7.8309     0.5144 H       
  45 H45            3.2768     7.4040    -0.6285 H       
  46 H46            5.2810     8.4904    -1.5525 H       
  47 H47            5.5291     8.7596    -3.9849 H       
  48 H48            1.7690     6.8483    -4.6048 H       
@<TRIPOS>BOND
   1    1    2 1
   2    2    3 ar
   3    2    7 ar
   4    3    4 ar
   5    3   33 1
   6    4    5 ar
   7    4   34 1
   8    5    6 ar
   9    5    8 1
  10    6    7 ar
  11    6   35 1
  12    7   36 1
  13    8    9 1
  14    8   12 1
  15    8   16 1
  16    9   10 1
  17    9   21 am
  18   10   11 1
  19   10   37 1
  20   10   38 1
  21   11   12 1
  22   11   39 1
  23   11   40 1
  24   12   13 am
  25   13   14 2
  26   13   15 1
  27   15   16 ar
  28   15   20 ar
  29   16   17 ar
  30   17   18 ar
  31   17   41 1
  32   18   19 ar
  33   18   42 1
  34   19   20 ar
  35   19   43 1
  36   20   44 1
  37   21   22 2
  38   21   23 1
  39   23   24 ar
  40   23   28 ar
  41   24   25 ar
  42   24   45 1
  43   25   26 ar
  44   25   46 1
  45   26   27 ar
  46   26   47 1
  47   27   28 ar
  48   27   29 1
  49   28   48 1
  50   29   30 1
  51   29   31 1
  52   29   32 1

#	End of record

