#	Name: ASD05250084
#	Creating user name:	WinNT
#	Creation time:	15. 06. 2019 20:58

#	Modifying user name:	WinNT
#	Modification time:	15. 06. 2019 20:58

#	Program:	/corina/corina34_cracker 3.40 0067  02.08.2006

@<TRIPOS>MOLECULE
ASD05250084
  28   29    0    0    0
SMALL
NO_CHARGES


@<TRIPOS>ATOM
   1 C1             0.0092     1.4309     0.0433 C.ar    
   2 C2             0.0552     0.0631    -0.1840 C.ar    
   3 C3            -1.1158    -0.6472    -0.4050 C.ar    
   4 C4            -2.3365     0.0072    -0.4000 C.ar    
   5 C5            -2.3874     1.3828    -0.1718 C.ar    
   6 C6            -1.2077     2.0922     0.0561 C.ar    
   7 C7            -3.6880     2.0856    -0.1655 C.2     
   8 N8            -3.7350     3.4143     0.0551 N.am    
   9 C9            -4.9529     4.0956    -0.0356 C.ar    
  10 C10           -6.1272     3.4800     0.3779 C.ar    
  11 C11           -7.3283     4.1555     0.2869 C.ar    
  12 C12           -7.3626     5.4435    -0.2152 C.ar    
  13 C13           -6.1952     6.0594    -0.6278 C.ar    
  14 C14           -4.9900     5.3914    -0.5341 C.ar    
  15 O15           -4.7151     1.4650    -0.3594 O.2     
  16 O16            1.1594     2.1219     0.2593 O.3     
  17 O17           -1.0651    -1.9870    -0.6272 O.3     
  18 H18            1.0054    -0.4502    -0.1893 H       
  19 H19           -3.2476    -0.5463    -0.5729 H       
  20 H20           -1.2426     3.1570     0.2332 H       
  21 H21           -2.9240     3.8981     0.2769 H       
  22 H22           -6.1012     2.4739     0.7698 H       
  23 H23           -8.2419     3.6772     0.6080 H       
  24 H24           -8.3032     5.9695    -0.2857 H       
  25 H25           -6.2254     7.0654    -1.0195 H       
  26 H26           -4.0786     5.8731    -0.8561 H       
  27 H27            1.5670     2.4687    -0.5461 H       
  28 H28           -1.1252    -2.5215     0.1764 H       
@<TRIPOS>BOND
   1    1    2 ar
   2    1   16 1
   3    1    6 ar
   4    2    3 ar
   5    2   18 1
   6    3    4 ar
   7    3   17 1
   8    4    5 ar
   9    4   19 1
  10    5    6 ar
  11    5    7 1
  12    6   20 1
  13    7    8 am
  14    7   15 2
  15    8    9 1
  16    8   21 1
  17    9   10 ar
  18    9   14 ar
  19   10   11 ar
  20   10   22 1
  21   11   12 ar
  22   11   23 1
  23   12   13 ar
  24   12   24 1
  25   13   14 ar
  26   13   25 1
  27   14   26 1
  28   16   27 1
  29   17   28 1

#	End of record

