#	Name: ASD02038046
#	Creating user name:	WinNT
#	Creation time:	15. 06. 2019 20:16

#	Modifying user name:	WinNT
#	Modification time:	15. 06. 2019 20:16

#	Program:	/corina/corina34_cracker 3.40 0067  02.08.2006

@<TRIPOS>MOLECULE
ASD02038046
  43   45    0    0    0
SMALL
NO_CHARGES


@<TRIPOS>ATOM
   1 N1            -0.0169     1.3958     0.0097 N.am    
   2 N2             0.9998     3.4677    -0.3405 N.am    
   3 C3             1.0902     2.1281    -0.2236 C.2     
   4 C4             0.7420     6.8411    -0.8332 C.3     
   5 O5            -0.3109     7.4911    -1.5480 O.3     
   6 C6            -0.4712     8.8243    -1.3337 C.ar    
   7 C7            -1.4741     9.5174    -1.9952 C.ar    
   8 C8             0.3647     9.4900    -0.4494 C.ar    
   9 C9             0.2019    10.8443    -0.2317 C.ar    
  10 C10           -0.7971    11.5386    -0.8978 C.ar    
  11 C11           -1.6369    10.8717    -1.7775 C.ar    
  12 O12            2.1706     1.5803    -0.3286 O.2     
  13 O13           -0.9577    12.8717    -0.6832 O.3     
  14 C14            0.0606    -0.0019     0.0341 C.ar    
  15 C15            1.1893    -0.6268     0.5470 C.ar    
  16 C16            1.2633    -2.0060     0.5700 C.ar    
  17 C17            0.2141    -2.7645     0.0819 C.ar    
  18 C18           -0.9120    -2.1439    -0.4303 C.ar    
  19 C19           -0.9937    -0.7655    -0.4494 C.ar    
  20 Cl20           0.3105    -4.4976     0.1116 Cl      
  21 C21           -2.0525    -2.9732    -0.9619 C.3     
  22 C22            1.9363     4.5750    -0.5853 C.3     
  23 C23            0.7671     5.3561    -1.2009 C.3     
  24 C24           -0.0798     4.4650    -0.2860 C.3     
  25 H25           -0.8667     1.8372     0.1647 H       
  26 H26            1.6961     7.2970    -1.0977 H       
  27 H27            0.5733     6.9473     0.2384 H       
  28 H28           -2.1275     8.9982    -2.6806 H       
  29 H29            1.1426     8.9494     0.0693 H       
  30 H30            0.8522    11.3625     0.4574 H       
  31 H31           -2.4145    11.4124    -2.2965 H       
  32 H32           -0.4433    13.4311    -1.2812 H       
  33 H33            2.0088    -0.0352     0.9274 H       
  34 H34            2.1411    -2.4926     0.9688 H       
  35 H35           -1.8726    -0.2817    -0.8493 H       
  36 H36           -2.7567    -3.1813    -0.1564 H       
  37 H37           -2.5603    -2.4259    -1.7561 H       
  38 H38           -1.6654    -3.9121    -1.3578 H       
  39 H39            2.3254     5.0244     0.3283 H       
  40 H40            2.7200     4.3302    -1.3022 H       
  41 H41            0.6163     5.1706    -2.2643 H       
  42 H42           -1.0084     4.1280    -0.7468 H       
  43 H43           -0.2300     4.8831     0.7093 H       
@<TRIPOS>BOND
   1    1   14 1
   2    1    3 am
   3    1   25 1
   4    2    3 am
   5    2   22 1
   6    2   24 1
   7    3   12 2
   8    4    5 1
   9    4   23 1
  10    4   26 1
  11    4   27 1
  12    5    6 1
  13    6    7 ar
  14    6    8 ar
  15    7   11 ar
  16    7   28 1
  17    8    9 ar
  18    8   29 1
  19    9   10 ar
  20    9   30 1
  21   10   11 ar
  22   10   13 1
  23   11   31 1
  24   13   32 1
  25   14   15 ar
  26   14   19 ar
  27   15   16 ar
  28   15   33 1
  29   16   17 ar
  30   16   34 1
  31   17   18 ar
  32   17   20 1
  33   18   19 ar
  34   18   21 1
  35   19   35 1
  36   21   36 1
  37   21   37 1
  38   21   38 1
  39   22   23 1
  40   22   39 1
  41   22   40 1
  42   23   24 1
  43   23   41 1
  44   24   42 1
  45   24   43 1

#	End of record

