#	Name: ASD01916456
#	Creating user name:	WinNT
#	Creation time:	15. 06. 2019 20:07

#	Modifying user name:	WinNT
#	Modification time:	15. 06. 2019 20:07

#	Program:	/corina/corina34_cracker 3.40 0067  02.08.2006

@<TRIPOS>MOLECULE
ASD01916456
  21   21    0    0    0
SMALL
NO_CHARGES


@<TRIPOS>ATOM
   1 C1            -0.0090     1.4747     0.0952 C.2     
   2 C2             0.0064    -0.0048     0.0432 C.ar    
   3 C3             1.2122    -0.6874    -0.1184 C.ar    
   4 C4             1.2201    -2.0661    -0.1661 C.ar    
   5 C5             0.0352    -2.7719    -0.0541 C.ar    
   6 C6            -1.1636    -2.1008     0.1063 C.ar    
   7 C7            -1.1837    -0.7219     0.1613 C.ar    
   8 N8             1.1104     2.1369     0.0999 N.2     
   9 N9            -1.2152     2.1535     0.1330 N.pl3   
  10 C10            2.5035     0.0798    -0.2410 C.3     
  11 O11            1.0957     3.5520     0.1496 O.3     
  12 H12            2.1530    -2.5957    -0.2915 H       
  13 H13            0.0465    -3.8511    -0.0924 H       
  14 H14           -2.0852    -2.6571     0.1928 H       
  15 H15           -2.1199    -0.1992     0.2910 H       
  16 H16           -2.0501     1.6598     0.1255 H       
  17 H17           -1.2253     3.1229     0.1671 H       
  18 H18            2.8686     0.3379     0.7531 H       
  19 H19            3.2444    -0.5352    -0.7518 H       
  20 H20            2.3315     0.9916    -0.8130 H       
  21 H21            1.9748     3.9547     0.1492 H       
@<TRIPOS>BOND
   1    1    2 1
   2    1    8 2
   3    1    9 1
   4    2    3 ar
   5    2    7 ar
   6    3    4 ar
   7    3   10 1
   8    4    5 ar
   9    4   12 1
  10    5    6 ar
  11    5   13 1
  12    6    7 ar
  13    6   14 1
  14    7   15 1
  15    8   11 1
  16    9   16 1
  17    9   17 1
  18   10   18 1
  19   10   19 1
  20   10   20 1
  21   11   21 1

#	End of record

