#	Name: ASD01200172
#	Creating user name:	WinNT
#	Creation time:	15. 06. 2019 19:08

#	Modifying user name:	WinNT
#	Modification time:	15. 06. 2019 19:08

#	Program:	/corina/corina34_cracker 3.40 0067  02.08.2006

@<TRIPOS>MOLECULE
ASD01200172
  55   57    0    0    0
SMALL
NO_CHARGES


@<TRIPOS>ATOM
   1 C1             0.9674     1.3865    -1.7448 C.2     
   2 C2             0.8792    -0.1124    -1.6163 C.3     
   3 O3             1.5515     2.0340    -0.9020 O.2     
   4 N4             0.4019     2.0069    -2.7992 N.am    
   5 C5             0.3922     3.3993    -2.8657 C.ar    
   6 C6            -0.0895     4.0311    -4.0068 C.ar    
   7 C7            -0.0935     5.4137    -4.0596 C.ar    
   8 C8             0.3865     6.1197    -2.9647 C.ar    
   9 C9             0.8500     5.4269    -1.8640 C.ar    
  10 N10            0.8366     4.1078    -1.8400 N.ar    
  11 S11            1.7372    -0.6415    -0.1082 S.3     
  12 N12            2.6253    -3.1815    -0.3222 N.am    
  13 C13            1.3978    -2.4225    -0.0491 C.3     
  14 C14            0.9651    -2.8247     1.3416 C.2     
  15 C15            1.8545    -3.7070     1.7858 C.2     
  16 C16            2.8827    -3.9328     0.7648 C.2     
  17 O17            3.8286    -4.6881     0.8827 O.2     
  18 C18            1.8124    -4.3753     3.1359 C.3     
  19 C19           -0.2453    -2.3207     2.0845 C.3     
  20 C20            3.4191    -3.1345    -1.5526 C.3     
  21 C21            4.4673    -2.0583    -1.4333 C.ar    
  22 C22            5.6373    -2.3049    -0.7286 C.ar    
  23 C23            6.6010    -1.3146    -0.6192 C.ar    
  24 C24            6.3933    -0.0796    -1.2144 C.ar    
  25 C25            5.2220     0.1620    -1.9178 C.ar    
  26 C26            4.2652    -0.8288    -2.0302 C.ar    
  27 O27            7.3361     0.8934    -1.1086 O.3     
  28 C28            7.0554     2.1408    -1.7467 C.3     
  29 O29            5.8377    -3.5162    -0.1459 O.3     
  30 C30            7.0646    -3.6998     0.5634 C.3     
  31 H31           -0.1675    -0.4115    -1.5628 H       
  32 H32            1.3467    -0.5795    -2.4832 H       
  33 H33            0.0017     1.4845    -3.5119 H       
  34 H34           -0.4553     3.4505    -4.8407 H       
  35 H35           -0.4613     5.9319    -4.9328 H       
  36 H36            0.3975     7.1996    -2.9740 H       
  37 H37            1.2247     5.9718    -1.0101 H       
  38 H38            0.6262    -2.6820    -0.7740 H       
  39 H39            1.2415    -5.3011     3.0653 H       
  40 H40            2.8280    -4.5987     3.4626 H       
  41 H41            1.3372    -3.7094     3.8562 H       
  42 H42           -1.0745    -3.0135     1.9407 H       
  43 H43           -0.0144    -2.2461     3.1472 H       
  44 H44           -0.5226    -1.3380     1.7031 H       
  45 H45            3.9040    -4.0981    -1.7092 H       
  46 H46            2.7669    -2.9143    -2.3976 H       
  47 H47            7.5119    -1.5045    -0.0710 H       
  48 H48            5.0598     1.1238    -2.3816 H       
  49 H49            3.3561    -0.6403    -2.5818 H       
  50 H50            7.8870     2.8267    -1.5852 H       
  51 H51            6.9198     1.9795    -2.8161 H       
  52 H52            6.1453     2.5678    -1.3253 H       
  53 H53            7.9031    -3.5607    -0.1190 H       
  54 H54            7.1294    -2.9716     1.3718 H       
  55 H55            7.0971    -4.7072     0.9783 H       
@<TRIPOS>BOND
   1    1    2 1
   2    1    3 2
   3    1    4 am
   4    2   11 1
   5    2   31 1
   6    2   32 1
   7    4    5 1
   8    4   33 1
   9    5    6 ar
  10    5   10 ar
  11    6    7 ar
  12    6   34 1
  13    7    8 ar
  14    7   35 1
  15    8    9 ar
  16    8   36 1
  17    9   10 ar
  18    9   37 1
  19   11   13 1
  20   12   13 1
  21   12   16 am
  22   12   20 1
  23   13   14 1
  24   13   38 1
  25   14   15 2
  26   14   19 1
  27   15   16 1
  28   15   18 1
  29   16   17 2
  30   18   39 1
  31   18   40 1
  32   18   41 1
  33   19   42 1
  34   19   43 1
  35   19   44 1
  36   20   21 1
  37   20   45 1
  38   20   46 1
  39   21   22 ar
  40   21   26 ar
  41   22   23 ar
  42   22   29 1
  43   23   24 ar
  44   23   47 1
  45   24   25 ar
  46   24   27 1
  47   25   26 ar
  48   25   48 1
  49   26   49 1
  50   27   28 1
  51   28   50 1
  52   28   51 1
  53   28   52 1
  54   29   30 1
  55   30   53 1
  56   30   54 1
  57   30   55 1

#	End of record

