#	Name: ASD06710065
#	Creating user name:	WinNT
#	Creation time:	15. 06. 2019 21:08

#	Modifying user name:	WinNT
#	Modification time:	15. 06. 2019 21:08

#	Program:	/corina/corina34_cracker 3.40 0067  02.08.2006

@<TRIPOS>MOLECULE
ASD06710065
  36   36    0    0    0
SMALL
NO_CHARGES


@<TRIPOS>ATOM
   1 C1             1.2266    -0.6145     0.5251 C.2     
   2 C2            -0.0659    -0.0460    -0.0016 C.3     
   3 C3            -0.0281     1.4805     0.0940 C.3     
   4 O4             2.1263    -0.8771    -0.2375 O.2     
   5 O5             1.3804    -0.8240     1.8420 O.3     
   6 C6            -0.2477    -0.4612    -1.4629 C.3     
   7 N7            -1.1845    -0.5576     0.7942 N.pl3   
   8 C8            -1.4183    -1.9326     0.8672 C.ar    
   9 C9            -2.5602    -2.4117     1.4962 C.ar    
  10 C10           -2.7887    -3.7739     1.5662 C.ar    
  11 C11           -1.8794    -4.6588     1.0100 C.ar    
  12 C12           -0.7424    -4.1831     0.3841 C.ar    
  13 C13           -0.5122    -2.8233     0.3058 C.ar    
  14 C14           -2.1300    -6.1428     1.0878 C.3     
  15 O15           -1.0597    -6.8408     0.4480 O.3     
  16 C16           -1.2004    -8.2628     0.4660 C.3     
  17 F17           -3.8988    -4.2419     2.1777 F       
  18 C18            2.6516    -1.3738     2.2780 C.3     
  19 H19            0.8535     1.8554    -0.4261 H       
  20 H20           -0.9250     1.8957    -0.3656 H       
  21 H21            0.0143     1.7780     1.1417 H       
  22 H22           -0.1754    -1.5458    -1.5442 H       
  23 H23           -1.2265    -0.1350    -1.8143 H       
  24 H24            0.5295     0.0013    -2.0714 H       
  25 H25           -1.7628     0.0587     1.2703 H       
  26 H26           -3.2684    -1.7215     1.9304 H       
  27 H27           -0.0352    -4.8754    -0.0483 H       
  28 H28            0.3742    -2.4530    -0.1877 H       
  29 H29           -2.1889    -6.4470     2.1328 H       
  30 H30           -3.0688    -6.3795     0.5870 H       
  31 H31           -1.2400    -8.6110     1.4981 H       
  32 H32           -2.1199    -8.5434    -0.0477 H       
  33 H33           -0.3486    -8.7185    -0.0388 H       
  34 H34            2.8085    -2.3441     1.8068 H       
  35 H35            3.4571    -0.6970     1.9931 H       
  36 H36            2.6434    -1.4931     3.3614 H       
@<TRIPOS>BOND
   1    1    2 1
   2    1    4 2
   3    1    5 1
   4    2    3 1
   5    2    6 1
   6    2    7 1
   7    3   19 1
   8    3   20 1
   9    3   21 1
  10    5   18 1
  11    6   22 1
  12    6   23 1
  13    6   24 1
  14    7    8 1
  15    7   25 1
  16    8    9 ar
  17    8   13 ar
  18    9   10 ar
  19    9   26 1
  20   10   11 ar
  21   10   17 1
  22   11   12 ar
  23   11   14 1
  24   12   13 ar
  25   12   27 1
  26   13   28 1
  27   14   15 1
  28   14   29 1
  29   14   30 1
  30   15   16 1
  31   16   31 1
  32   16   32 1
  33   16   33 1
  34   18   34 1
  35   18   35 1
  36   18   36 1

#	End of record

