#	Name: ASD01813404
#	Creating user name:	WinNT
#	Creation time:	15. 06. 2019 19:30

#	Modifying user name:	WinNT
#	Modification time:	15. 06. 2019 19:30

#	Program:	/corina/corina34_cracker 3.40 0067  02.08.2006

@<TRIPOS>MOLECULE
ASD01813404
  54   58    0    0    0
SMALL
NO_CHARGES


@<TRIPOS>ATOM
   1 C1            -0.0169     1.3972     0.0097 C.2     
   2 C2             0.0021    -0.0041     0.0020 C.2     
   3 C3             1.1986    -0.6593    -0.0129 C.2     
   4 C4             2.3918     0.0821    -0.0204 C.2     
   5 N5             2.3437     1.4497    -0.0122 N.am    
   6 C6             1.1421     2.0937     0.0024 C.2     
   7 C7             3.6227    -0.5889    -0.0356 C.2     
   8 C8             4.7877     0.1218    -0.0425 C.2     
   9 C9             4.7345     1.5280    -0.0346 C.2     
  10 C10            3.4812     2.1736    -0.0189 C.2     
  11 O11            3.4258     3.3917    -0.0123 O.2     
  12 C12            5.9703     2.3140    -0.0413 C.2     
  13 O13            5.9124     3.6618    -0.0337 O.3     
  14 O14            7.0487     1.7516    -0.0537 O.2     
  15 C15            3.6593    -2.0954    -0.0439 C.3     
  16 C16            3.7837    -2.5946    -1.4848 C.3     
  17 N17            3.8194    -4.0631    -1.4929 N.3     
  18 C18            2.5360    -4.6250    -1.0369 C.3     
  19 C19            2.5959    -6.1243    -1.2059 C.2     
  20 N20            3.5365    -6.7610    -1.9748 N.pl3   
  21 C21            4.5832    -6.0497    -2.7200 C.3     
  22 C22            4.1793    -4.5738    -2.8230 C.3     
  23 C23            1.7882    -7.0470    -0.6674 C.2     
  24 C24            2.2414    -8.3165    -1.1143 C.2     
  25 C25            3.3204    -8.0981    -1.9166 C.2     
  26 C26            1.6506    -9.6339    -0.7714 C.ar    
  27 C27            2.2044   -10.8040    -1.2868 C.ar    
  28 C28            1.6511   -12.0266    -0.9642 C.ar    
  29 C29            0.5487   -12.0916    -0.1312 C.ar    
  30 C30           -0.0053   -10.9331     0.3829 C.ar    
  31 C31            0.5436    -9.7056     0.0718 C.ar    
  32 H32           -0.9605     1.9226     0.0170 H       
  33 H33           -0.9233    -0.5609     0.0082 H       
  34 H34            1.2282    -1.7389    -0.0187 H       
  35 H35            1.1156     3.1733     0.0087 H       
  36 H36            5.7393    -0.3889    -0.0536 H       
  37 H37            6.7544     4.1373    -0.0385 H       
  38 H38            4.5153    -2.4412     0.5356 H       
  39 H39            2.7412    -2.4836     0.3971 H       
  40 H40            2.9277    -2.2488    -2.0643 H       
  41 H41            4.7018    -2.2064    -1.9259 H       
  42 H42            2.3784    -4.3788     0.0132 H       
  43 H43            1.7219    -4.2189    -1.6373 H       
  44 H44            5.5331    -6.1354    -2.1923 H       
  45 H45            4.6771    -6.4754    -3.7190 H       
  46 H46            3.3241    -4.4780    -3.4921 H       
  47 H47            5.0146    -3.9963    -3.2189 H       
  48 H48            0.9487    -6.8604    -0.0141 H       
  49 H49            3.9020    -8.8573    -2.4184 H       
  50 H50            3.0646   -10.7544    -1.9378 H       
  51 H51            2.0795   -12.9342    -1.3631 H       
  52 H52            0.1188   -13.0504     0.1184 H       
  53 H53           -0.8662   -10.9895     1.0325 H       
  54 H54            0.1105    -8.8017     0.4741 H       
@<TRIPOS>BOND
   1    1    2 1
   2    1    6 2
   3    1   32 1
   4    2    3 2
   5    2   33 1
   6    3    4 1
   7    3   34 1
   8    4    5 1
   9    4    7 2
  10    5    6 1
  11    5   10 am
  12    6   35 1
  13    7    8 1
  14    7   15 1
  15    8    9 2
  16    8   36 1
  17    9   10 1
  18    9   12 1
  19   10   11 2
  20   12   13 1
  21   12   14 2
  22   13   37 1
  23   15   16 1
  24   15   38 1
  25   15   39 1
  26   16   17 1
  27   16   40 1
  28   16   41 1
  29   17   18 1
  30   17   22 1
  31   18   19 1
  32   18   42 1
  33   18   43 1
  34   19   20 1
  35   19   23 2
  36   20   21 1
  37   20   25 1
  38   21   22 1
  39   21   44 1
  40   21   45 1
  41   22   46 1
  42   22   47 1
  43   23   24 1
  44   23   48 1
  45   24   25 2
  46   24   26 1
  47   25   49 1
  48   26   27 ar
  49   26   31 ar
  50   27   28 ar
  51   27   50 1
  52   28   29 ar
  53   28   51 1
  54   29   30 ar
  55   29   52 1
  56   30   31 ar
  57   30   53 1
  58   31   54 1

#	End of record

