#	Name: ASD01911921
#	Creating user name:	WinNT
#	Creation time:	15. 06. 2019 19:58

#	Modifying user name:	WinNT
#	Modification time:	15. 06. 2019 19:58

#	Program:	/corina/corina34_cracker 3.40 0067  02.08.2006

@<TRIPOS>MOLECULE
ASD01911921
  41   43    0    0    0
SMALL
NO_CHARGES


@<TRIPOS>ATOM
   1 C1             2.1230    -5.2282     0.5329 C.ar    
   2 C2             2.2299    -4.8667    -0.8063 C.ar    
   3 C3             3.4032    -5.1843    -1.4831 C.ar    
   4 N4             4.3684    -5.8141    -0.8339 N.ar    
   5 C5             4.2291    -6.1398     0.4355 C.ar    
   6 N6             3.1334    -5.8565     1.1109 N.ar    
   7 O7             1.2143    -4.2205    -1.4371 O.3     
   8 C8             0.0932    -3.9423    -0.7215 C.ar    
   9 C9             0.0876    -2.8841     0.1765 C.ar    
  10 C10           -1.0536    -2.5998     0.9059 C.ar    
  11 C11           -2.1914    -3.3703     0.7419 C.ar    
  12 C12           -2.1894    -4.4302    -0.1554 C.ar    
  13 C13           -1.0470    -4.7119    -0.8923 C.ar    
  14 N14           -3.3388    -5.2092    -0.3210 N.am    
  15 C15           -3.2280    -6.5202    -0.6135 C.2     
  16 C16           -4.4394    -7.3203    -0.8918 C.ar    
  17 O17           -2.1319    -7.0446    -0.6486 O.2     
  18 C18           -5.6994    -6.7212    -0.8524 C.ar    
  19 F19           -1.0567    -1.5692     1.7794 F       
  20 C20           -6.8260    -7.4738    -1.1131 C.ar    
  21 C21           -6.7088    -8.8193    -1.4125 C.ar    
  22 C22           -5.4625    -9.4194    -1.4532 C.ar    
  23 C23           -4.3277    -8.6772    -1.2007 C.ar    
  24 S24           -5.3245   -11.1339    -1.8357 S.o2    
  25 C25           -5.1563   -11.1828    -3.6412 C.3     
  26 O26           -4.1132   -11.5359    -1.2109 O.2     
  27 O27           -6.5724   -11.6837    -1.4361 O.2     
  28 H28            1.2298    -4.9953     1.0936 H       
  29 H29            3.5240    -4.9207    -2.5234 H       
  30 H30            5.0360    -6.6537     0.9367 H       
  31 H31            0.9748    -2.2821     0.3064 H       
  32 H32           -3.0811    -3.1474     1.3121 H       
  33 H33           -1.0437    -5.5356    -1.5908 H       
  34 H34           -4.2159    -4.8061    -0.2253 H       
  35 H35           -5.7923    -5.6711    -0.6180 H       
  36 H36           -7.8016    -7.0116    -1.0829 H       
  37 H37           -7.5939    -9.4041    -1.6151 H       
  38 H38           -3.3556    -9.1467    -1.2328 H       
  39 H39           -4.2672   -10.6267    -3.9384 H       
  40 H40           -5.0640   -12.2180    -3.9696 H       
  41 H41           -6.0366   -10.7330    -4.1004 H       
@<TRIPOS>BOND
   1    1    2 ar
   2    1    6 ar
   3    1   28 1
   4    2    3 ar
   5    2    7 1
   6    3    4 ar
   7    3   29 1
   8    4    5 ar
   9    5    6 ar
  10    5   30 1
  11    7    8 1
  12    8    9 ar
  13    8   13 ar
  14    9   10 ar
  15    9   31 1
  16   10   11 ar
  17   10   19 1
  18   11   12 ar
  19   11   32 1
  20   12   13 ar
  21   12   14 1
  22   13   33 1
  23   14   15 am
  24   14   34 1
  25   15   16 1
  26   15   17 2
  27   16   18 ar
  28   16   23 ar
  29   18   20 ar
  30   18   35 1
  31   20   21 ar
  32   20   36 1
  33   21   22 ar
  34   21   37 1
  35   22   23 ar
  36   22   24 1
  37   23   38 1
  38   24   25 1
  39   24   26 2
  40   24   27 2
  41   25   39 1
  42   25   40 1
  43   25   41 1

#	End of record

