#	Name: ASD01900445
#	Creating user name:	WinNT
#	Creation time:	15. 06. 2019 19:51

#	Modifying user name:	WinNT
#	Modification time:	15. 06. 2019 19:51

#	Program:	/corina/corina34_cracker 3.40 0067  02.08.2006

@<TRIPOS>MOLECULE
ASD01900445
  29   31    0    0    0
SMALL
NO_CHARGES


@<TRIPOS>ATOM
   1 C1            -0.0231     1.3967     0.0626 C.ar    
   2 C2            -0.0081    -0.0093     0.1360 C.ar    
   3 C3             1.2175    -0.6744     0.1303 C.ar    
   4 C4             2.3707     0.0814     0.0522 C.ar    
   5 C5             2.2813     1.4655    -0.0175 C.ar    
   6 N6             1.1186     2.0768    -0.0114 N.ar    
   7 N7            -2.1493     0.6992     0.1706 N.2     
   8 N8            -1.3128    -0.4214     0.2014 N.pl3   
   9 C9            -1.4337     1.7898     0.0952 C.2     
  10 N10           -1.9266     3.0976     0.0450 N.pl3   
  11 C11           -3.3025     3.3226    -0.0404 C.ar    
  12 C12           -3.8053     4.6132     0.0718 C.ar    
  13 C13           -5.1659     4.8328    -0.0130 C.ar    
  14 C14           -6.0288     3.7700    -0.2092 C.ar    
  15 C15           -5.5321     2.4832    -0.3214 C.ar    
  16 C16           -4.1706     2.2574    -0.2432 C.ar    
  17 C17           -2.8663     5.7723     0.2862 C.3     
  18 Cl18          -6.6192     1.1523    -0.5678 Cl      
  19 H19            1.2637    -1.7520     0.1857 H       
  20 H20            3.3368    -0.4013     0.0459 H       
  21 H21            3.1865     2.0515    -0.0780 H       
  22 H22           -1.6093    -1.3431     0.2598 H       
  23 H23           -1.3130     3.8484     0.0694 H       
  24 H24           -5.5568     5.8358     0.0745 H       
  25 H25           -7.0925     3.9447    -0.2748 H       
  26 H26           -3.7827     1.2537    -0.3353 H       
  27 H27           -2.5568     6.1726    -0.6793 H       
  28 H28           -3.3739     6.5505     0.8562 H       
  29 H29           -1.9891     5.4323     0.8366 H       
@<TRIPOS>BOND
   1    1    2 ar
   2    1    6 ar
   3    1    9 1
   4    2    3 ar
   5    2    8 1
   6    3    4 ar
   7    3   19 1
   8    4    5 ar
   9    4   20 1
  10    5    6 ar
  11    5   21 1
  12    7    8 1
  13    7    9 2
  14    8   22 1
  15    9   10 1
  16   10   11 1
  17   10   23 1
  18   11   12 ar
  19   11   16 ar
  20   12   13 ar
  21   12   17 1
  22   13   14 ar
  23   13   24 1
  24   14   15 ar
  25   14   25 1
  26   15   16 ar
  27   15   18 1
  28   16   26 1
  29   17   27 1
  30   17   28 1
  31   17   29 1

#	End of record

