#	Name: ASD00111058
#	Creating user name:	WinNT
#	Creation time:	15. 06. 2019 18:30

#	Modifying user name:	WinNT
#	Modification time:	15. 06. 2019 18:30

#	Program:	/corina/corina34_cracker 3.40 0067  02.08.2006

@<TRIPOS>MOLECULE
ASD00111058
  34   35    0    0    0
SMALL
NO_CHARGES


@<TRIPOS>ATOM
   1 N1            -0.0176     1.4494     0.0100 N.am    
   2 C2             0.0021    -0.0041     0.0020 C.3     
   3 C3             0.6858    -0.4726    -1.2720 C.2     
   4 C4             2.1595    -0.3661    -1.3327 C.ar    
   5 C5             2.7711     0.8855    -1.3351 C.ar    
   6 C6             1.9142     2.1360    -1.3385 C.3     
   7 C7             1.1964     2.2647     0.0028 C.3     
   8 C8             4.1435     0.9887    -1.3511 C.ar    
   9 C9             4.9221    -0.1621    -1.3904 C.ar    
  10 C10            4.3182    -1.4121    -1.4118 C.ar    
  11 C11            2.9435    -1.5199    -1.3823 C.ar    
  12 C12           -0.0121    -0.9584    -2.2894 C.2     
  13 O13            6.2770    -0.0635    -1.4074 O.3     
  14 C14            7.0160    -1.2860    -1.4479 C.3     
  15 C15           -1.2113     2.0752     0.0190 C.2     
  16 O16           -1.2606     3.2870     0.0258 O.2     
  17 C17           -2.4846     1.2692     0.0205 C.3     
  18 F18           -3.5840     2.1343     0.0303 F       
  19 F19           -2.5313     0.4688    -1.1260 F       
  20 F20           -2.5207     0.4564     1.1585 F       
  21 H21            0.5545    -0.3673     0.8686 H       
  22 H22           -1.0192    -0.3840     0.0302 H       
  23 H23            2.5467     3.0094    -1.4974 H       
  24 H24            1.1781     2.0699    -2.1397 H       
  25 H25            0.9309     3.3084     0.1712 H       
  26 H26            1.8599     1.9308     0.8005 H       
  27 H27            4.6138     1.9607    -1.3336 H       
  28 H28            4.9270    -2.3032    -1.4524 H       
  29 H29            2.4756    -2.4931    -1.3969 H       
  30 H30           -1.0878    -1.0272    -2.2224 H       
  31 H31            0.4953    -1.2854    -3.1850 H       
  32 H32            6.7769    -1.8843    -0.5687 H       
  33 H33            6.7514    -1.8409    -2.3479 H       
  34 H34            8.0833    -1.0652    -1.4578 H       
@<TRIPOS>BOND
   1    1    2 1
   2    1    7 1
   3    1   15 am
   4    2    3 1
   5    2   21 1
   6    2   22 1
   7    3    4 1
   8    3   12 2
   9    4    5 ar
  10    4   11 ar
  11    5    6 1
  12    5    8 ar
  13    6    7 1
  14    6   23 1
  15    6   24 1
  16    7   25 1
  17    7   26 1
  18    8    9 ar
  19    8   27 1
  20    9   10 ar
  21    9   13 1
  22   10   11 ar
  23   10   28 1
  24   11   29 1
  25   12   30 1
  26   12   31 1
  27   13   14 1
  28   14   32 1
  29   14   33 1
  30   14   34 1
  31   15   16 2
  32   15   17 1
  33   17   18 1
  34   17   19 1
  35   17   20 1

#	End of record

