#	Name: ASD03731251
#	Creating user name:	WinNT
#	Creation time:	15. 06. 2019 20:45

#	Modifying user name:	WinNT
#	Modification time:	15. 06. 2019 20:45

#	Program:	/corina/corina34_cracker 3.40 0067  02.08.2006

@<TRIPOS>MOLECULE
ASD03731251
  58   63    0    0    0
SMALL
NO_CHARGES


@<TRIPOS>ATOM
   1 N1            -0.0162     1.3436     0.0094 N.am    
   2 C2            -0.1343     0.0013     0.0383 C.2     
   3 O3             0.8571    -0.6981    -0.0418 O.2     
   4 N4            -1.3513    -0.5658     0.1561 N.am    
   5 C5            -1.4796    -2.0248     0.1875 C.3     
   6 C6            -2.9554    -2.4041     0.3261 C.3     
   7 O7             1.5013    -7.7448     2.1442 O.3     
   8 C8             1.8032    -9.1329     2.3790 C.3     
   9 O9             0.6142    -9.6392     3.0137 O.3     
  10 C10           -0.4044    -8.8467     2.5675 C.ar    
  11 C11            0.1416    -7.6815     2.0339 C.ar    
  12 C12           -1.7757    -9.0286     2.5726 C.ar    
  13 C13           -2.6184    -8.0528     2.0488 C.ar    
  14 C14           -2.0616    -6.8895     1.5261 C.ar    
  15 C15           -0.6944    -6.7078     1.5139 C.ar    
  16 O16           -3.9781    -8.0411     1.9418 O.3     
  17 C17           -3.2112    -6.0309     1.0708 C.3     
  18 C18           -4.4270    -6.6873     1.7389 C.3     
  19 N19           -3.0837    -3.8631     0.3575 N.am    
  20 C20           -3.0494    -4.5973     1.4874 C.2     
  21 C21           -3.3431    -5.9985    -0.4229 C.ar    
  22 C22           -3.5155    -6.9695    -1.3841 C.ar    
  23 C23           -3.6059    -6.6153    -2.7184 C.ar    
  24 C24           -3.5220    -5.2842    -3.0845 C.ar    
  25 C25           -3.3483    -4.3081    -2.1256 C.ar    
  26 C26           -3.2567    -4.6554    -0.7799 C.ar    
  27 O27           -2.9148    -4.1816     2.6188 O.2     
  28 C28            1.2543     1.9355     0.0100 C.ar    
  29 C29            1.4702     3.1267    -0.6796 C.ar    
  30 C30            2.7277     3.7071    -0.6757 C.ar    
  31 C31            3.7656     3.1045     0.0115 C.ar    
  32 C32            3.5521     1.9227     0.6959 C.ar    
  33 C33            2.2984     1.3400     0.7015 C.ar    
  34 O34            0.4488     3.7178    -1.3553 O.3     
  35 C35            0.7435     4.9373    -2.0395 C.3     
  36 F36            1.1881     5.8927    -1.1192 F       
  37 F37            1.7416     4.7079    -2.9925 F       
  38 H38           -0.8104     1.8999    -0.0158 H       
  39 H39           -2.1422    -0.0078     0.2200 H       
  40 H40           -1.0818    -2.4445    -0.7365 H       
  41 H41           -0.9216    -2.4204     1.0361 H       
  42 H42           -3.3532    -1.9843     1.2501 H       
  43 H43           -3.5134    -2.0084    -0.5225 H       
  44 H44            1.9843    -9.6501     1.4367 H       
  45 H45            2.6627    -9.2310     3.0421 H       
  46 H46           -2.1952    -9.9339     2.9859 H       
  47 H47           -0.2749    -5.8037     1.0981 H       
  48 H48           -5.2930    -6.6616     1.0775 H       
  49 H49           -4.6516    -6.2071     2.6913 H       
  50 H50           -3.5805    -8.0083    -1.0960 H       
  51 H51           -3.7420    -7.3765    -3.4724 H       
  52 H52           -3.5924    -5.0078    -4.1261 H       
  53 H53           -3.2832    -3.2709    -2.4193 H       
  54 H54            2.8979     4.6303    -1.2097 H       
  55 H55            4.7456     3.5584     0.0132 H       
  56 H56            4.3657     1.4555     1.2309 H       
  57 H57            2.1333     0.4190     1.2408 H       
  58 H58           -0.1559     5.3019    -2.5358 H       
@<TRIPOS>BOND
   1    1    2 am
   2    1   28 1
   3    1   38 1
   4    2    3 2
   5    2    4 am
   6    4    5 1
   7    4   39 1
   8    5    6 1
   9    5   40 1
  10    5   41 1
  11    6   19 1
  12    6   42 1
  13    6   43 1
  14    7    8 1
  15    7   11 1
  16    8    9 1
  17    8   44 1
  18    8   45 1
  19    9   10 1
  20   10   11 ar
  21   10   12 ar
  22   11   15 ar
  23   12   13 ar
  24   12   46 1
  25   13   14 ar
  26   13   16 1
  27   14   15 ar
  28   14   17 1
  29   15   47 1
  30   16   18 1
  31   17   18 1
  32   17   20 1
  33   17   21 1
  34   18   48 1
  35   18   49 1
  36   19   20 am
  37   19   26 1
  38   20   27 2
  39   21   22 ar
  40   21   26 ar
  41   22   23 ar
  42   22   50 1
  43   23   24 ar
  44   23   51 1
  45   24   25 ar
  46   24   52 1
  47   25   26 ar
  48   25   53 1
  49   28   29 ar
  50   28   33 ar
  51   29   30 ar
  52   29   34 1
  53   30   31 ar
  54   30   54 1
  55   31   32 ar
  56   31   55 1
  57   32   33 ar
  58   32   56 1
  59   33   57 1
  60   34   35 1
  61   35   36 1
  62   35   37 1
  63   35   58 1

#	End of record

