#	Name: ASD03092938
#	Creating user name:	WinNT
#	Creation time:	15. 06. 2019 20:33

#	Modifying user name:	WinNT
#	Modification time:	15. 06. 2019 20:33

#	Program:	/corina/corina34_cracker 3.40 0067  02.08.2006

@<TRIPOS>MOLECULE
ASD03092938
  49   51    0    0    0
SMALL
NO_CHARGES


@<TRIPOS>ATOM
   1 C1             1.3626     1.7310     0.3587 C.3     
   2 C2             1.7682     0.2585     0.4477 C.3     
   3 C3             0.7267    -0.5033     1.2262 C.2     
   4 O4            -0.1962     0.0900     1.7480 O.2     
   5 C5             0.8233    -1.9041     1.3490 C.2     
   6 C6             1.5631    -2.5995     2.3059 C.2     
   7 C7             1.3630    -3.9776     2.0458 C.2     
   8 C8             0.5308    -4.0753     0.9688 C.2     
   9 C9             0.0532    -5.3635     0.3497 C.3     
  10 N10            0.1992    -2.8380     0.5491 N.pl3   
  11 C11           -0.6823    -2.5334    -0.5807 C.3     
  12 C12            1.9511    -5.1081     2.8054 C.ar    
  13 C13            3.3302    -5.3064     2.8066 C.ar    
  14 C14            3.8744    -6.3591     3.5148 C.ar    
  15 C15            3.0523    -7.2182     4.2239 C.ar    
  16 F16            3.5895    -8.2469     4.9155 F       
  17 C17            1.6781    -7.0251     4.2267 C.ar    
  18 F18            0.8799    -7.8654     4.9208 F       
  19 C19            1.1261    -5.9711     3.5244 C.ar    
  20 C20            2.3942    -2.0129     3.3806 C.ar    
  21 C21            3.7773    -2.1982     3.3770 C.ar    
  22 C22            4.5464    -1.6487     4.3819 C.ar    
  23 C23            3.9492    -0.9156     5.3920 C.ar    
  24 C24            2.5784    -0.7282     5.4013 C.ar    
  25 C25            1.7987    -1.2672     4.3988 C.ar    
  26 S26            4.9386    -0.2181     6.6723 S.o2    
  27 N27            5.3890     1.2956     6.1742 N.am    
  28 O28            4.0789    -0.0340     7.7886 O.2     
  29 O29            6.1285    -0.9930     6.7272 O.2     
  30 H30            1.2830     2.1473     1.3629 H       
  31 H31            2.1159     2.2820    -0.2044 H       
  32 H32            0.3998     1.8128    -0.1459 H       
  33 H33            1.8478    -0.1578    -0.5565 H       
  34 H34            2.7309     0.1767     0.9522 H       
  35 H35           -0.8752    -5.6746     0.8288 H       
  36 H36           -0.1208    -5.2121    -0.7156 H       
  37 H37            0.8099    -6.1357     0.4882 H       
  38 H38           -0.0825    -2.3725    -1.4764 H       
  39 H39           -1.3639    -3.3680    -0.7449 H       
  40 H40           -1.2564    -1.6332    -0.3612 H       
  41 H41            3.9730    -4.6374     2.2536 H       
  42 H42            4.9434    -6.5129     3.5153 H       
  43 H43            0.0569    -5.8185     3.5294 H       
  44 H44            4.2445    -2.7708     2.5895 H       
  45 H45            5.6170    -1.7914     4.3803 H       
  46 H46            2.1183    -0.1550     6.1925 H       
  47 H47            0.7294    -1.1162     4.4045 H       
  48 H48            5.0979     1.6288     5.3110 H       
  49 H49            5.9439     1.8491     6.7457 H       
@<TRIPOS>BOND
   1    1    2 1
   2    1   30 1
   3    1   31 1
   4    1   32 1
   5    2    3 1
   6    2   33 1
   7    2   34 1
   8    3    4 2
   9    3    5 1
  10    5   10 1
  11    5    6 2
  12    6    7 1
  13    6   20 1
  14    7    8 2
  15    7   12 1
  16    8    9 1
  17    8   10 1
  18    9   35 1
  19    9   36 1
  20    9   37 1
  21   10   11 1
  22   11   38 1
  23   11   39 1
  24   11   40 1
  25   12   19 ar
  26   12   13 ar
  27   13   14 ar
  28   13   41 1
  29   14   15 ar
  30   14   42 1
  31   15   16 1
  32   15   17 ar
  33   17   18 1
  34   17   19 ar
  35   19   43 1
  36   20   25 ar
  37   20   21 ar
  38   21   22 ar
  39   21   44 1
  40   22   23 ar
  41   22   45 1
  42   23   24 ar
  43   23   26 1
  44   24   25 ar
  45   24   46 1
  46   25   47 1
  47   26   27 am
  48   26   28 2
  49   26   29 2
  50   27   48 1
  51   27   49 1

#	End of record

