#	Name: ASD01917421
#	Creating user name:	WinNT
#	Creation time:	15. 06. 2019 20:09

#	Modifying user name:	WinNT
#	Modification time:	15. 06. 2019 20:09

#	Program:	/corina/corina34_cracker 3.40 0067  02.08.2006

@<TRIPOS>MOLECULE
ASD01917421
  48   52    0    0    0
SMALL
NO_CHARGES


@<TRIPOS>ATOM
   1 C1            -0.0171     1.4098     0.0098 C.ar    
   2 C2             0.0021    -0.0041     0.0020 C.ar    
   3 C3            -1.1913    -0.7249     0.0414 C.ar    
   4 C4            -2.3837    -0.0624     0.0741 C.ar    
   5 C5            -2.4206     1.3389     0.0663 C.ar    
   6 C6            -1.2412     2.0761     0.0357 C.ar    
   7 N7             1.1597     2.0752     0.0021 N.2     
   8 C8             2.3197     1.4677    -0.0397 C.2     
   9 N9             2.4200     0.1196    -0.1574 N.am    
  10 C10            1.3104    -0.6629    -0.0625 C.2     
  11 O11            1.4017    -1.8765    -0.0317 O.2     
  12 C12           -3.7218     2.0381     0.0903 C.2     
  13 C13            3.5356     2.3452     0.1020 C.3     
  14 C14            4.7921     1.6928    -0.4307 C.3     
  15 C15            4.8965     0.2363    -0.0269 C.3     
  16 C16            3.6796    -0.5618    -0.4367 C.3     
  17 C17            6.1349    -0.3736    -0.6867 C.3     
  18 C18            5.0555     0.1532     1.4925 C.3     
  19 N19           -3.8837     3.3322     0.0854 N.2     
  20 C20           -5.1111     3.7819     0.1089 C.2     
  21 C21           -6.0790     2.8365     0.1359 C.2     
  22 S22           -5.2997     1.2556     0.1223 S.3     
  23 C23           -7.5342     3.0859     0.1664 C.ar    
  24 N24           -7.9895     4.3342     0.1688 N.ar    
  25 C25           -9.2802     4.5979     0.1956 C.ar    
  26 C26          -10.2131     3.5782     0.2223 C.ar    
  27 C27           -9.7813     2.2583     0.2207 C.ar    
  28 C28           -8.4218     2.0080     0.1866 C.ar    
  29 H29           -1.1716    -1.8047     0.0456 H       
  30 H30           -3.3068    -0.6222     0.1060 H       
  31 H31           -1.2737     3.1556     0.0324 H       
  32 H32            3.3641     3.2745    -0.4412 H       
  33 H33            3.6802     2.5783     1.1570 H       
  34 H34            4.7909     1.7589    -1.5187 H       
  35 H35            5.6595     2.2294    -0.0464 H       
  36 H36            3.6888    -1.5121     0.0971 H       
  37 H37            3.7381    -0.7640    -1.5062 H       
  38 H38            7.0240     0.1644    -0.3579 H       
  39 H39            6.2189    -1.4224    -0.4020 H       
  40 H40            6.0440    -0.2974    -1.7702 H       
  41 H41            4.1896     0.6077     1.9739 H       
  42 H42            5.1316    -0.8918     1.7933 H       
  43 H43            5.9587     0.6844     1.7930 H       
  44 H44           -5.3375     4.8379     0.1073 H       
  45 H45           -9.6139     5.6250     0.1971 H       
  46 H46          -11.2686     3.8060     0.2445 H       
  47 H47          -10.4918     1.4452     0.2416 H       
  48 H48           -8.0515     0.9935     0.1844 H       
@<TRIPOS>BOND
   1    1    2 ar
   2    1    7 1
   3    1    6 ar
   4    2    3 ar
   5    2   10 1
   6    3    4 ar
   7    3   29 1
   8    4    5 ar
   9    4   30 1
  10    5    6 ar
  11    5   12 1
  12    6   31 1
  13    7    8 2
  14    8    9 1
  15    8   13 1
  16    9   10 am
  17    9   16 1
  18   10   11 2
  19   12   19 2
  20   12   22 1
  21   13   14 1
  22   13   32 1
  23   13   33 1
  24   14   15 1
  25   14   34 1
  26   14   35 1
  27   15   16 1
  28   15   17 1
  29   15   18 1
  30   16   36 1
  31   16   37 1
  32   17   38 1
  33   17   39 1
  34   17   40 1
  35   18   41 1
  36   18   42 1
  37   18   43 1
  38   19   20 1
  39   20   21 2
  40   20   44 1
  41   21   23 1
  42   21   22 1
  43   23   24 ar
  44   23   28 ar
  45   24   25 ar
  46   25   26 ar
  47   25   45 1
  48   26   27 ar
  49   26   46 1
  50   27   28 ar
  51   27   47 1
  52   28   48 1

#	End of record

