#	Name: ASD08150925
#	Creating user name:	WinNT
#	Creation time:	15. 06. 2019 21:16

#	Modifying user name:	WinNT
#	Modification time:	15. 06. 2019 21:16

#	Program:	/corina/corina34_cracker 3.40 0067  02.08.2006

@<TRIPOS>MOLECULE
ASD08150925
  52   56    0    0    0
SMALL
NO_CHARGES


@<TRIPOS>ATOM
   1 N1            -0.2778     1.4122     0.0413 N.2     
   2 C2            -0.6831     0.2777     0.5335 C.2     
   3 N3            -0.3519     0.1979     1.8535 N.pl3   
   4 C4             0.2973     1.3600     2.1856 C.ar    
   5 N5             0.8414     1.8465     3.2961 N.ar    
   6 C6             1.4111     3.0334     3.3000 C.ar    
   7 N7             1.4727     3.7935     2.2220 N.ar    
   8 C8             0.9560     3.3910     1.0655 C.ar    
   9 C9             0.3375     2.1305     1.0112 C.ar    
  10 N10            1.0251     4.1949    -0.0588 N.pl3   
  11 C11            1.6735     5.5064     0.0171 C.3     
  12 C12            2.1655     5.9133    -1.3733 C.3     
  13 N13            0.6178     9.7933     2.1280 N.ar    
  14 C14           -0.2414    10.6823     2.5658 C.ar    
  15 C15           -1.6163    10.4823     2.4667 C.ar    
  16 C16           -2.0990     9.3363     1.9016 C.ar    
  17 C17           -1.1725     8.3851     1.4331 C.ar    
  18 C18           -1.5967     7.1843     0.8416 C.ar    
  19 C19           -0.6778     6.2814     0.3973 C.ar    
  20 C20            0.6850     6.5272     0.5189 C.ar    
  21 C21            1.1443     7.6978     1.0956 C.ar    
  22 C22            0.2115     8.6533     1.5658 C.ar    
  23 C23            2.5990     7.9490     1.2203 C.ar    
  24 C24            3.1904     8.9996     0.5196 C.ar    
  25 C25            4.5478     9.2286     0.6402 C.ar    
  26 C26            5.3197     8.4159     1.4552 C.ar    
  27 C27            4.7368     7.3732     2.1517 C.ar    
  28 C28            3.3809     7.1393     2.0434 C.ar    
  29 F29            5.1232    10.2458    -0.0377 F       
  30 C30           -3.0684     6.8940     0.6980 C.3     
  31 C31           -3.5931     7.5407    -0.5855 C.3     
  32 H32           -1.2051    -0.4875    -0.0217 H       
  33 H33           -0.5409    -0.5443     2.4487 H       
  34 H34            1.8438     3.3992     4.2194 H       
  35 H35            0.6442     3.8900    -0.8972 H       
  36 H36            2.5204     5.4539     0.7012 H       
  37 H37            2.6479     6.8891    -1.3168 H       
  38 H38            2.8805     5.1750    -1.7362 H       
  39 H39            1.3185     5.9658    -2.0574 H       
  40 H40            0.1267    11.5927     3.0153 H       
  41 H41           -2.2998    11.2323     2.8365 H       
  42 H42           -3.1619     9.1644     1.8168 H       
  43 H43           -1.0136     5.3602    -0.0556 H       
  44 H44            2.5890     9.6325    -0.1162 H       
  45 H45            6.3804     8.5975     1.5465 H       
  46 H46            5.3433     6.7429     2.7852 H       
  47 H47            2.9268     6.3271     2.5918 H       
  48 H48           -3.2233     5.8160     0.6512 H       
  49 H49           -3.6044     7.3011     1.5554 H       
  50 H50           -3.4382     8.6187    -0.5387 H       
  51 H51           -3.0571     7.1336    -1.4428 H       
  52 H52           -4.6576     7.3308    -0.6893 H       
@<TRIPOS>BOND
   1    1    2 2
   2    1    9 1
   3    2    3 1
   4    2   32 1
   5    3    4 1
   6    3   33 1
   7    4    5 ar
   8    4    9 ar
   9    5    6 ar
  10    6    7 ar
  11    6   34 1
  12    7    8 ar
  13    8    9 ar
  14    8   10 1
  15   10   11 1
  16   10   35 1
  17   11   12 1
  18   11   20 1
  19   11   36 1
  20   12   37 1
  21   12   38 1
  22   12   39 1
  23   13   14 ar
  24   13   22 ar
  25   14   15 ar
  26   14   40 1
  27   15   16 ar
  28   15   41 1
  29   16   17 ar
  30   16   42 1
  31   17   18 ar
  32   17   22 ar
  33   18   19 ar
  34   18   30 1
  35   19   20 ar
  36   19   43 1
  37   20   21 ar
  38   21   22 ar
  39   21   23 1
  40   23   24 ar
  41   23   28 ar
  42   24   25 ar
  43   24   44 1
  44   25   26 ar
  45   25   29 1
  46   26   27 ar
  47   26   45 1
  48   27   28 ar
  49   27   46 1
  50   28   47 1
  51   30   31 1
  52   30   48 1
  53   30   49 1
  54   31   50 1
  55   31   51 1
  56   31   52 1

#	End of record

