#	Name: ASD01420033
#	Creating user name:	WinNT
#	Creation time:	15. 06. 2019 19:20

#	Modifying user name:	WinNT
#	Modification time:	15. 06. 2019 19:20

#	Program:	/corina/corina34_cracker 3.40 0067  02.08.2006

@<TRIPOS>MOLECULE
ASD01420033
  60   63    0    0    0
SMALL
NO_CHARGES


@<TRIPOS>ATOM
   1 C1            -0.0162     1.3411     0.0094 C.2     
   2 N2             0.0021    -0.0041     0.0020 N.am    
   3 C3             1.2636    -0.4708    -0.0125 C.2     
   4 C4             2.1903     0.6754    -0.0152 C.ar    
   5 C5             3.5758     0.8061    -0.0278 C.ar    
   6 C6             4.1465     2.0779    -0.0264 C.ar    
   7 C7             3.3469     3.2016    -0.0127 C.ar    
   8 C8             1.9641     3.0839     0.0003 C.ar    
   9 C9             1.3787     1.8294    -0.0013 C.ar    
  10 O10           -1.0115     2.0372     0.0181 O.2     
  11 O11            1.5856    -1.6423    -0.0213 O.2     
  12 O12            4.3653    -0.2963    -0.0408 O.3     
  13 C13            5.7782    -0.0823    -0.0531 C.3     
  14 C14            6.4983    -1.4322    -0.0667 C.3     
  15 C15            8.0110    -1.2031    -0.0800 C.3     
  16 N16            8.7024    -2.4991    -0.0930 N.3     
  17 C17           10.1406    -2.3265    -0.3442 C.3     
  18 C18           10.8302    -3.6923    -0.2901 C.3     
  19 O19           10.2162    -4.5686    -1.2391 O.3     
  20 C20            8.8153    -4.7598    -1.0238 C.3     
  21 C21            8.1054    -3.4048    -1.0853 C.3     
  22 C22           -1.1945    -0.8493     0.0097 C.3     
  23 C23           -1.6188    -1.1320    -1.4084 C.ar    
  24 C24           -0.9709    -2.1153    -2.1432 C.ar    
  25 C25           -1.3617    -2.3749    -3.4475 C.ar    
  26 C26           -2.3994    -1.6511    -4.0149 C.ar    
  27 C27           -3.0440    -0.6692    -3.2763 C.ar    
  28 C28           -2.6562    -0.4162    -1.9742 C.ar    
  29 O29           -2.7845    -1.9030    -5.2936 O.3     
  30 C30           -3.8604    -1.1193    -5.8135 C.3     
  31 O31            0.0461    -2.8226    -1.5844 O.3     
  32 C32            0.6673    -3.8191    -2.3988 C.3     
  33 H33            5.2213     2.1840    -0.0357 H       
  34 H34            3.8008     4.1816    -0.0118 H       
  35 H35            1.3459     3.9694     0.0117 H       
  36 H36            6.0520     0.4846    -0.9429 H       
  37 H37            6.0689     0.4757     0.8369 H       
  38 H38            6.2245    -1.9990     0.8231 H       
  39 H39            6.2075    -1.9901    -0.9568 H       
  40 H40            8.2848    -0.6362    -0.9698 H       
  41 H41            8.3018    -0.6451     0.8101 H       
  42 H42           10.2875    -1.8833    -1.3291 H       
  43 H43           10.5671    -1.6730     0.4169 H       
  44 H44           11.8867    -3.5765    -0.5321 H       
  45 H45           10.7293    -4.1116     0.7109 H       
  46 H46            8.4146    -5.4161    -1.7963 H       
  47 H47            8.6558    -5.2102    -0.0441 H       
  48 H48            7.0462    -3.5385    -0.8652 H       
  49 H49            8.2197    -2.9789    -2.0821 H       
  50 H50           -0.9727    -1.7884     0.5166 H       
  51 H51           -1.9995    -0.3347     0.5341 H       
  52 H52           -0.8586    -3.1393    -4.0210 H       
  53 H53           -3.8523    -0.1053    -3.7178 H       
  54 H54           -3.1620     0.3455    -1.3994 H       
  55 H55           -4.7505    -1.2741    -5.2036 H       
  56 H56           -3.5849    -0.0649    -5.7929 H       
  57 H57           -4.0666    -1.4209    -6.8404 H       
  58 H58           -0.0751    -4.5593    -2.6970 H       
  59 H59            1.0902    -3.3503    -3.2873 H       
  60 H60            1.4608    -4.3076    -1.8332 H       
@<TRIPOS>BOND
   1    1    2 am
   2    1    9 1
   3    1   10 2
   4    2    3 am
   5    2   22 1
   6    3    4 1
   7    3   11 2
   8    4    5 ar
   9    4    9 ar
  10    5    6 ar
  11    5   12 1
  12    6    7 ar
  13    6   33 1
  14    7    8 ar
  15    7   34 1
  16    8    9 ar
  17    8   35 1
  18   12   13 1
  19   13   14 1
  20   13   36 1
  21   13   37 1
  22   14   15 1
  23   14   38 1
  24   14   39 1
  25   15   16 1
  26   15   40 1
  27   15   41 1
  28   16   17 1
  29   16   21 1
  30   17   18 1
  31   17   42 1
  32   17   43 1
  33   18   19 1
  34   18   44 1
  35   18   45 1
  36   19   20 1
  37   20   21 1
  38   20   46 1
  39   20   47 1
  40   21   48 1
  41   21   49 1
  42   22   23 1
  43   22   50 1
  44   22   51 1
  45   23   24 ar
  46   23   28 ar
  47   24   25 ar
  48   24   31 1
  49   25   26 ar
  50   25   52 1
  51   26   27 ar
  52   26   29 1
  53   27   28 ar
  54   27   53 1
  55   28   54 1
  56   29   30 1
  57   30   55 1
  58   30   56 1
  59   30   57 1
  60   31   32 1
  61   32   58 1
  62   32   59 1
  63   32   60 1

#	End of record

