#	Name: ASD07300771
#	Creating user name:	WinNT
#	Creation time:	15. 06. 2019 21:10

#	Modifying user name:	WinNT
#	Modification time:	15. 06. 2019 21:10

#	Program:	/corina/corina34_cracker 3.40 0067  02.08.2006

@<TRIPOS>MOLECULE
ASD07300771
  50   53    0    0    0
SMALL
NO_CHARGES


@<TRIPOS>ATOM
   1 C1            -0.0034     1.3925     0.2414 C.2     
   2 C2             0.0021    -0.0041     0.0020 C.2     
   3 N3             1.1924     2.0682     0.2265 N.pl3   
   4 N4             1.1445    -0.6201    -0.2278 N.2     
   5 C5             2.3036     0.0470    -0.2402 C.2     
   6 C6             2.3502     1.3752    -0.0186 C.2     
   7 N7            -0.9664     2.2611     0.5002 N.2     
   8 C8            -0.4399     3.4745     0.6478 C.2     
   9 C9             0.9142     3.3817     0.4819 C.2     
  10 N10           -1.1860    -0.7178     0.0100 N.pl3   
  11 C11           -2.4813    -0.0311     0.1360 C.3     
  12 C12           -3.4038    -0.5300    -0.9821 C.3     
  13 O13           -3.4381    -1.9591    -0.9615 O.3     
  14 C14           -2.1747    -2.5786    -1.2141 C.3     
  15 C15           -1.1896    -2.1841    -0.1135 C.3     
  16 C16           -1.2060     4.7364     0.9507 C.3     
  17 N17            2.8668     6.4360     0.3101 N.pl3   
  18 N18            3.7010     5.6268     1.0908 N.2     
  19 C19            3.1254     4.4643     1.2475 C.2     
  20 C20            1.8916     4.4906     0.5659 C.2     
  21 C21            1.7627     5.7256    -0.0033 C.2     
  22 C22            3.1419     7.8176    -0.0919 C.3     
  23 C23            3.7790     7.8268    -1.4829 C.3     
  24 C24            1.8331     8.6094    -0.1251 C.3     
  25 O25            4.1537     9.1623    -1.8265 O.3     
  26 C26            4.7616     9.2825    -3.1141 C.3     
  27 H27            3.2209    -0.4898    -0.4320 H       
  28 H28            3.2977     1.8932    -0.0336 H       
  29 H29           -2.9242    -0.2578     1.1059 H       
  30 H30           -2.3372     1.0450     0.0402 H       
  31 H31           -4.4093    -0.1394    -0.8259 H       
  32 H32           -3.0254    -0.1888    -1.9457 H       
  33 H33           -2.2959    -3.6617    -1.2248 H       
  34 H34           -1.7918    -2.2448    -2.1785 H       
  35 H35           -0.1904    -2.5330    -0.3744 H       
  36 H36           -1.5001    -2.6313     0.8308 H       
  37 H37           -1.2758     4.8687     2.0304 H       
  38 H38           -0.6881     5.5897     0.5128 H       
  39 H39           -2.2080     4.6634     0.5281 H       
  40 H40            3.5254     3.6285     1.8024 H       
  41 H41            0.9286     6.0711    -0.5961 H       
  42 H42            3.8252     8.2751     0.6237 H       
  43 H43            4.6638     7.1902    -1.4815 H       
  44 H44            3.0623     7.4512    -2.2133 H       
  45 H45            1.1499     8.1519    -0.8407 H       
  46 H46            1.3793     8.6028     0.8658 H       
  47 H47            2.0378     9.6373    -0.4243 H       
  48 H48            5.6668     8.6761    -3.1466 H       
  49 H49            4.0653     8.9371    -3.8783 H       
  50 H50            5.0165    10.3259    -3.2996 H       
@<TRIPOS>BOND
   1    1    2 1
   2    1    3 1
   3    1    7 2
   4    2    4 2
   5    2   10 1
   6    3    6 1
   7    3    9 1
   8    4    5 1
   9    5    6 2
  10    5   27 1
  11    6   28 1
  12    7    8 1
  13    8    9 2
  14    8   16 1
  15    9   20 1
  16   10   11 1
  17   10   15 1
  18   11   12 1
  19   11   29 1
  20   11   30 1
  21   12   13 1
  22   12   31 1
  23   12   32 1
  24   13   14 1
  25   14   15 1
  26   14   33 1
  27   14   34 1
  28   15   35 1
  29   15   36 1
  30   16   37 1
  31   16   38 1
  32   16   39 1
  33   17   18 1
  34   17   21 1
  35   17   22 1
  36   18   19 2
  37   19   20 1
  38   19   40 1
  39   20   21 2
  40   21   41 1
  41   22   23 1
  42   22   24 1
  43   22   42 1
  44   23   25 1
  45   23   43 1
  46   23   44 1
  47   24   45 1
  48   24   46 1
  49   24   47 1
  50   25   26 1
  51   26   48 1
  52   26   49 1
  53   26   50 1

#	End of record

