#	Name: ASD02030165
#	Creating user name:	WinNT
#	Creation time:	15. 06. 2019 20:14

#	Modifying user name:	WinNT
#	Modification time:	15. 06. 2019 20:14

#	Program:	/corina/corina34_cracker 3.40 0067  02.08.2006

@<TRIPOS>MOLECULE
ASD02030165
  59   62    0    0    0
SMALL
NO_CHARGES


@<TRIPOS>ATOM
   1 C1            -0.8026     1.8893     0.2980 C.3     
   2 C2            -1.0007     0.3741     0.3755 C.3     
   3 C3            -0.4473    -0.2832    -0.8899 C.3     
   4 C4             1.0646    -0.0508    -0.9665 C.3     
   5 C5             1.3246     1.4439    -0.8845 C.2     
   6 C6             2.0807     1.9885    -1.7920 C.2     
   7 C7             2.4018     3.4545    -1.8174 C.3     
   8 C8             2.3092     4.0156    -0.3942 C.3     
   9 C9             2.4642     5.5235    -0.4294 C.3     
  10 C10            3.8019     6.0598    -0.9280 C.3     
  11 C11            4.0431     7.3647    -0.1288 C.3     
  12 C12            2.8641     7.4878     0.8748 C.3     
  13 C13            3.3414     8.0412     2.1927 C.2     
  14 O14            4.4956     7.9069     2.5215 O.2     
  15 C15            2.3784     8.7621     3.1004 C.3     
  16 C16            2.3951     6.0369     1.0337 C.3     
  17 C17            3.3630     5.2556     1.9245 C.3     
  18 C18            0.9593     5.8564     1.4940 C.3     
  19 C19            0.6785     4.3460     1.5177 C.3     
  20 C20            0.9085     3.7054     0.1521 C.3     
  21 C21            0.6951     2.2039     0.2450 C.3     
  22 C22            1.3282     1.7257     1.5532 C.3     
  23 S23           -1.0121    -2.2970    -2.2141 S.o2    
  24 O24           -1.4435    -3.6289    -1.9709 O.2     
  25 O25           -1.7954    -1.3426    -2.9176 O.2     
  26 O26           -0.7121    -1.6870    -0.8524 O.3     
  27 O27            0.3096    -2.4029    -2.9614 O.3     
  28 H28            0.1716     4.1061    -0.5439 H       
  29 H29            3.0805     3.5726     0.2359 H       
  30 H30            1.6525     5.9632    -1.0092 H       
  31 H31           -1.2869     2.2738    -0.5996 H       
  32 H32           -1.2419     2.3589     1.1780 H       
  33 H33           -0.4748    -0.0164     1.2468 H       
  34 H34           -2.0640     0.1515     0.4646 H       
  35 H35           -0.9269     0.1537    -1.7658 H       
  36 H36            1.5561    -0.5551    -0.1345 H       
  37 H37            1.4483    -0.4389    -1.9100 H       
  38 H38            2.4971     1.3566    -2.5626 H       
  39 H39            3.4117     3.5995    -2.2010 H       
  40 H40            1.6896     3.9721    -2.4599 H       
  41 H41            4.5959     5.3409    -0.7261 H       
  42 H42            3.7484     6.2749    -1.9952 H       
  43 H43            4.9885     7.3039     0.4103 H       
  44 H44            4.0510     8.2207    -0.8036 H       
  45 H45            2.0698     8.1096     0.4620 H       
  46 H46            1.3912     8.7840     2.6388 H       
  47 H47            2.3210     8.2415     4.0563 H       
  48 H48            2.7264     9.7823     3.2625 H       
  49 H49            4.3800     5.3800     1.5527 H       
  50 H50            3.3010     5.6316     2.9458 H       
  51 H51            3.0976     4.1985     1.9099 H       
  52 H52            0.8345     6.2732     2.4934 H       
  53 H53            0.2812     6.3494     0.7975 H       
  54 H54            1.3368     3.8738     2.2470 H       
  55 H55           -0.3566     4.1819     1.8172 H       
  56 H56            1.1738     0.6521     1.6604 H       
  57 H57            2.3970     1.9394     1.5390 H       
  58 H58            0.8650     2.2451     2.3921 H       
  59 H59            0.2311    -2.7819    -3.8476 H       
@<TRIPOS>BOND
   1    1    2 1
   2    1   21 1
   3    1   31 1
   4    1   32 1
   5    2    3 1
   6    2   33 1
   7    2   34 1
   8    3    4 1
   9    3   26 1
  10    3   35 1
  11    4    5 1
  12    4   36 1
  13    4   37 1
  14    5    6 2
  15    5   21 1
  16    6    7 1
  17    6   38 1
  18    7    8 1
  19    7   39 1
  20    7   40 1
  21    8    9 1
  22    8   29 1
  23    8   20 1
  24    9   10 1
  25    9   16 1
  26    9   30 1
  27   10   11 1
  28   10   41 1
  29   10   42 1
  30   11   12 1
  31   11   43 1
  32   11   44 1
  33   12   13 1
  34   12   16 1
  35   12   45 1
  36   13   14 2
  37   13   15 1
  38   15   46 1
  39   15   47 1
  40   15   48 1
  41   16   17 1
  42   16   18 1
  43   17   49 1
  44   17   50 1
  45   17   51 1
  46   18   19 1
  47   18   52 1
  48   18   53 1
  49   19   20 1
  50   19   54 1
  51   19   55 1
  52   20   28 1
  53   20   21 1
  54   21   22 1
  55   22   56 1
  56   22   57 1
  57   22   58 1
  58   23   24 2
  59   23   25 2
  60   23   26 1
  61   23   27 1
  62   27   59 1

#	End of record

