#	Name: ASD00069213
#	Creating user name:	WinNT
#	Creation time:	15. 06. 2019 18:29

#	Modifying user name:	WinNT
#	Modification time:	15. 06. 2019 18:29

#	Program:	/corina/corina34_cracker 3.40 0067  02.08.2006

@<TRIPOS>MOLECULE
ASD00069213
  92   97    0    0    0
SMALL
NO_CHARGES


@<TRIPOS>ATOM
   1 N1            -0.1140     1.3370    -0.0002 N.3     
   2 C2            -0.0899    -0.1311     0.0177 C.3     
   3 C3             0.5721    -0.6474    -1.2618 C.3     
   4 C4             1.9977    -0.0960    -1.3514 C.3     
   5 C5             1.9477     1.4341    -1.3195 C.3     
   6 C6             1.2458     1.8900    -0.0383 C.3     
   7 C7             0.6161    -2.1535    -1.2331 C.2     
   8 O8             0.1627    -2.7554    -0.2829 O.2     
   9 N9             1.1593    -2.8316    -2.2635 N.am    
  10 C10            1.1756     3.4182    -0.0117 C.3     
  11 C11            1.2021    -4.2957    -2.2356 C.3     
  12 C12            1.2588    -4.8316    -3.6675 C.3     
  13 C13            1.3035    -6.3607    -3.6383 C.3     
  14 C14            2.5456    -6.8201    -2.8722 C.3     
  15 C15            2.4889    -6.2842    -1.4403 C.3     
  16 C16            2.4442    -4.7551    -1.4695 C.3     
  17 C17           -2.5361     3.1367     1.9202 C.ar    
  18 N18           -1.8524     2.6557     0.8922 N.ar    
  19 C19           -0.8227     1.8354     1.0815 C.ar    
  20 C20           -0.4662     1.4832     2.3820 C.ar    
  21 C21           -1.2083     2.0087     3.4375 C.ar    
  22 N22           -2.2280     2.8255     3.1690 N.ar    
  23 N23           -3.5975     3.9923     1.6818 N.pl3   
  24 C24           -4.3668     4.5356     2.8039 C.3     
  25 C25            0.1235     0.7904     6.5475 C.2     
  26 N26            0.1257     0.8607     5.2358 N.2     
  27 C27           -0.8695     1.6648     4.8391 C.2     
  28 C28           -1.5218     2.1157     5.9655 C.2     
  29 N29           -0.8955     1.5651     7.0285 N.pl3   
  30 C30            1.0618     0.0009     7.3665 C.2     
  31 N31            2.0251    -0.7302     6.7714 N.am    
  32 O32            0.9664     0.0094     8.5789 O.2     
  33 C33            2.9680    -1.4125     7.5502 C.ar    
  34 C34            4.2258    -1.7074     7.0258 C.ar    
  35 C35            5.1560    -2.3842     7.8034 C.ar    
  36 C36            4.8325    -2.7635     9.0947 C.ar    
  37 C37            3.5846    -2.4703     9.6132 C.ar    
  38 C38            2.6551    -1.7918     8.8474 C.ar    
  39 F39            6.3760    -2.6727     7.2998 F       
  40 O40            6.1983    -1.1312     3.4528 O.3     
  41 C41            5.9904     0.0244     4.2693 C.3     
  42 C42            5.7085    -0.4176     5.7077 C.3     
  43 N43            4.5499    -1.3225     5.7186 N.3     
  44 C44            4.7981    -2.4969     4.8698 C.3     
  45 C45            5.0892    -2.0340     3.4398 C.3     
  46 C46            7.2433     0.9021     4.2408 C.3     
  47 N47            7.4482     1.4192     2.8812 N.3     
  48 H48            0.4763    -0.4745     0.8835 H       
  49 H49           -1.1100    -0.5104     0.0774 H       
  50 H50           -0.0014    -0.3160    -2.1275 H       
  51 H51            2.5825    -0.4590    -0.5062 H       
  52 H52            2.4581    -0.4260    -2.2827 H       
  53 H53            2.9623     1.8319    -1.3400 H       
  54 H54            1.3959     1.7983    -2.1861 H       
  55 H55            1.8057     1.5372     0.8278 H       
  56 H56            1.5220    -2.3502    -3.0235 H       
  57 H57            0.6766     3.7431     0.9013 H       
  58 H58            2.1849     3.8288    -0.0399 H       
  59 H59            0.6154     3.7713    -0.8774 H       
  60 H60            0.3085    -4.6759    -1.7404 H       
  61 H61            0.3739    -4.5043    -4.2133 H       
  62 H62            2.1523    -4.4514    -4.1626 H       
  63 H63            0.4099    -6.7409    -3.1432 H       
  64 H64            1.3439    -6.7425    -4.6585 H       
  65 H65            2.5774    -7.9095    -2.8515 H       
  66 H66            3.4391    -6.4399    -3.3674 H       
  67 H67            1.5954    -6.6644    -0.9452 H       
  68 H68            3.3738    -6.6115    -0.8945 H       
  69 H69            3.3377    -4.3749    -1.9646 H       
  70 H70            2.4038    -4.3733    -0.4493 H       
  71 H71            0.3649     0.8188     2.5671 H       
  72 H72           -3.8321     4.2322     0.7716 H       
  73 H73           -3.7060     5.1102     3.4530 H       
  74 H74           -5.1561     5.1838     2.4234 H       
  75 H75           -4.8106     3.7169     3.3704 H       
  76 H76           -2.3715     2.7817     5.9936 H       
  77 H77           -1.1264     1.6953     7.9615 H       
  78 H78            2.0652    -0.7837     5.8037 H       
  79 H79            5.5565    -3.2903     9.6987 H       
  80 H80            3.3369    -2.7687    10.6212 H       
  81 H81            1.6833    -1.5604     9.2578 H       
  82 H82            5.1400     0.5905     3.8891 H       
  83 H83            6.5799    -0.9372     6.1062 H       
  84 H84            5.4931     0.4569     6.3216 H       
  85 H85            5.6549    -3.0497     5.2549 H       
  86 H86            3.9182    -3.1402     4.8721 H       
  87 H87            4.2126    -1.5278     3.0356 H       
  88 H88            5.3300    -2.8974     2.8196 H       
  89 H89            7.1186     1.7360     4.9317 H       
  90 H90            8.1086     0.3100     4.5386 H       
  91 H91            6.6330     1.9178     2.5573 H       
  92 H92            8.2704     2.0024     2.8362 H       
@<TRIPOS>BOND
   1    1    2 1
   2    1    6 1
   3    1   19 1
   4    2    3 1
   5    2   48 1
   6    2   49 1
   7    3    4 1
   8    3    7 1
   9    3   50 1
  10    4    5 1
  11    4   51 1
  12    4   52 1
  13    5    6 1
  14    5   53 1
  15    5   54 1
  16    6   10 1
  17    6   55 1
  18    7    8 2
  19    7    9 am
  20    9   11 1
  21    9   56 1
  22   10   57 1
  23   10   58 1
  24   10   59 1
  25   11   12 1
  26   11   16 1
  27   11   60 1
  28   12   13 1
  29   12   61 1
  30   12   62 1
  31   13   14 1
  32   13   63 1
  33   13   64 1
  34   14   15 1
  35   14   65 1
  36   14   66 1
  37   15   16 1
  38   15   67 1
  39   15   68 1
  40   16   69 1
  41   16   70 1
  42   17   18 ar
  43   17   22 ar
  44   17   23 1
  45   18   19 ar
  46   19   20 ar
  47   20   21 ar
  48   20   71 1
  49   21   22 ar
  50   21   27 1
  51   23   24 1
  52   23   72 1
  53   24   73 1
  54   24   74 1
  55   24   75 1
  56   25   26 2
  57   25   29 1
  58   25   30 1
  59   26   27 1
  60   27   28 2
  61   28   29 1
  62   28   76 1
  63   29   77 1
  64   30   31 am
  65   30   32 2
  66   31   33 1
  67   31   78 1
  68   33   34 ar
  69   33   38 ar
  70   34   35 ar
  71   34   43 1
  72   35   36 ar
  73   35   39 1
  74   36   37 ar
  75   36   79 1
  76   37   38 ar
  77   37   80 1
  78   38   81 1
  79   40   41 1
  80   40   45 1
  81   41   42 1
  82   41   46 1
  83   41   82 1
  84   42   43 1
  85   42   83 1
  86   42   84 1
  87   43   44 1
  88   44   45 1
  89   44   85 1
  90   44   86 1
  91   45   87 1
  92   45   88 1
  93   46   47 1
  94   46   89 1
  95   46   90 1
  96   47   91 1
  97   47   92 1

#	End of record

