#	Name: ASD00431152
#	Creating user name:	WinNT
#	Creation time:	15. 06. 2019 18:35

#	Modifying user name:	WinNT
#	Modification time:	15. 06. 2019 18:35

#	Program:	/corina/corina34_cracker 3.40 0067  02.08.2006

@<TRIPOS>MOLECULE
ASD00431152
  51   53    0    0    0
SMALL
NO_CHARGES


@<TRIPOS>ATOM
   1 N1            -0.4400     1.4542     0.6047 N.am    
   2 C2            -0.4851     0.1088     0.6698 C.2     
   3 O3             0.5448    -0.5364     0.6349 O.2     
   4 N4            -1.6719    -0.5214     0.7737 N.am    
   5 C5            -1.7210    -1.9839     0.8445 C.3     
   6 C6             0.8501     2.1392     0.4918 C.3     
   7 C7             1.2681     2.2004    -0.9788 C.3     
   8 O8            -0.3124     4.3720     0.8713 O.3     
   9 N9            -0.1330     5.4317     1.4250 N.2     
  10 C10            1.0314     5.4624     2.0323 C.2     
  11 C11            1.6365     4.1948     1.7881 C.2     
  12 C12            0.7252     3.5385     1.0371 C.2     
  13 O13            2.7994     6.5893     3.4244 O.3     
  14 C14            1.5981     6.5816     2.8094 C.2     
  15 C15            0.9998     7.7838     3.0287 C.2     
  16 C16            1.8875     8.5436     3.8117 C.2     
  17 C17            2.9810     7.7726     4.0325 C.2     
  18 O18            4.0742     8.1356     4.7477 O.3     
  19 C19            5.0401     7.2016     4.9554 C.ar    
  20 C20            5.7897     6.7295     3.8876 C.ar    
  21 C21            6.7708     5.7806     4.0987 C.ar    
  22 C22            7.0067     5.2996     5.3782 C.ar    
  23 C23            6.2570     5.7712     6.4458 C.ar    
  24 C24            5.2800     6.7246     6.2359 C.ar    
  25 O25            7.9727     4.3655     5.5859 O.3     
  26 C26            8.2163     3.9737     6.9384 C.3     
  27 C27            8.8678     2.5895     6.9590 C.3     
  28 C28            9.1506     4.9871     7.6025 C.3     
  29 H29           -1.2619     1.9688     0.6285 H       
  30 H30           -2.4936    -0.0067     0.8016 H       
  31 H31           -1.2765    -2.4064    -0.0566 H       
  32 H32           -1.1648    -2.3242     1.7179 H       
  33 H33           -2.7582    -2.3092     0.9248 H       
  34 H34            1.6024     1.5932     1.0609 H       
  35 H35            0.5157     2.7464    -1.5479 H       
  36 H36            2.2279     2.7101    -1.0628 H       
  37 H37            1.3584     1.1883    -1.3732 H       
  38 H38            2.5997     3.8412     2.1252 H       
  39 H39            0.0297     8.0949     2.6703 H       
  40 H40            1.7285     9.5503     4.1690 H       
  41 H41            5.6057     7.1037     2.8914 H       
  42 H42            7.3541     5.4128     3.2675 H       
  43 H43            6.4404     5.3961     7.4418 H       
  44 H44            4.6996     7.0953     7.0678 H       
  45 H45            7.2723     3.9391     7.4823 H       
  46 H46            9.8118     2.6242     6.4151 H       
  47 H47            9.0536     2.2907     7.9907 H       
  48 H48            8.2022     1.8676     6.4859 H       
  49 H49            8.6864     5.9732     7.5878 H       
  50 H50            9.3364     4.6883     8.6341 H       
  51 H51           10.0946     5.0218     7.0586 H       
@<TRIPOS>BOND
   1    1    2 am
   2    1    6 1
   3    1   29 1
   4    2    3 2
   5    2    4 am
   6    4    5 1
   7    4   30 1
   8    5   31 1
   9    5   32 1
  10    5   33 1
  11    6    7 1
  12    6   12 1
  13    6   34 1
  14    7   35 1
  15    7   36 1
  16    7   37 1
  17    8    9 1
  18    8   12 1
  19    9   10 2
  20   10   11 1
  21   10   14 1
  22   11   12 2
  23   11   38 1
  24   13   14 1
  25   13   17 1
  26   14   15 2
  27   15   16 1
  28   15   39 1
  29   16   17 2
  30   16   40 1
  31   17   18 1
  32   18   19 1
  33   19   20 ar
  34   19   24 ar
  35   20   21 ar
  36   20   41 1
  37   21   22 ar
  38   21   42 1
  39   22   23 ar
  40   22   25 1
  41   23   24 ar
  42   23   43 1
  43   24   44 1
  44   25   26 1
  45   26   27 1
  46   26   28 1
  47   26   45 1
  48   27   46 1
  49   27   47 1
  50   27   48 1
  51   28   49 1
  52   28   50 1
  53   28   51 1

#	End of record

