#	Name: ASD01209033
#	Creating user name:	WinNT
#	Creation time:	15. 06. 2019 19:10

#	Modifying user name:	WinNT
#	Modification time:	15. 06. 2019 19:10

#	Program:	/corina/corina34_cracker 3.40 0067  02.08.2006

@<TRIPOS>MOLECULE
ASD01209033
  57   61    0    0    0
SMALL
NO_CHARGES


@<TRIPOS>ATOM
   1 Cl1            0.1551     3.3223    -2.9427 Cl      
   2 S2            -0.9304    -0.3904     0.8395 S.o2    
   3 C3            -3.6506    -0.9212    -5.5622 C.3     
   4 C4            -5.0204    -0.4931    -5.0319 C.3     
   5 C5            -4.8530     0.7049    -4.0950 C.3     
   6 C6            -6.2103     1.2219    -3.6932 C.2     
   7 O7            -6.5780     1.1290    -2.5413 O.2     
   8 N8            -4.1148     0.2904    -2.8994 N.pl3   
   9 C9            -2.9160     0.8095    -2.4854 C.ar    
  10 C10           -2.5670     0.1310    -1.3020 C.ar    
  11 C11           -3.6408    -0.8238    -1.0454 C.2     
  12 N12           -4.5234    -0.6945    -1.9942 N.2     
  13 N13           -7.0156     1.7877    -4.6141 N.am    
  14 C14           -2.0679     1.7950    -2.9852 C.ar    
  15 C15           -0.9012     2.0942    -2.3183 C.ar    
  16 C16           -0.5604     1.4218    -1.1493 C.ar    
  17 C17           -1.3759     0.4532    -0.6418 C.ar    
  18 C18           -8.2173     2.3755    -4.2221 C.ar    
  19 C19           -2.2086     0.0878     2.0346 C.3     
  20 C20           -2.0423    -0.3936     3.4774 C.3     
  21 C21           -1.8149     1.0793     3.1313 C.3     
  22 O22           -1.0480    -1.7671     0.5077 O.2     
  23 O23            0.3240     0.1720     1.1994 O.2     
  24 C24           -3.7957    -2.2129    -6.3726 C.3     
  25 C25           -2.4351    -2.5904    -6.9643 C.3     
  26 O26           -1.9530    -1.5142    -7.7715 O.3     
  27 C27           -1.7529    -0.2930    -7.0568 C.3     
  28 C28           -3.0861     0.1768    -6.4688 C.3     
  29 C29           -8.4352     2.6929    -2.8846 C.ar    
  30 N30           -9.5741     3.2498    -2.5174 N.ar    
  31 C31          -10.5071     3.5061    -3.4185 C.ar    
  32 C32          -10.2941     3.1917    -4.7479 C.ar    
  33 N33           -9.1538     2.6388    -5.1238 N.ar    
  34 H34           -2.9723    -1.0898    -4.7258 H       
  35 H35           -5.6624    -0.2140    -5.8674 H       
  36 H36           -5.4736    -1.3206    -4.4861 H       
  37 H37           -4.3012     1.4928    -4.6077 H       
  38 H38           -3.6958    -1.5115    -0.2144 H       
  39 H39           -6.7589     1.7858    -5.5495 H       
  40 H40           -2.3245     2.3221    -3.8923 H       
  41 H41            0.3588     1.6687    -0.6388 H       
  42 H42           -3.2223     0.1509     1.6388 H       
  43 H43           -2.9466    -0.6468     4.0309 H       
  44 H44           -1.1649    -0.9976     3.7084 H       
  45 H45           -0.7879     1.4443     3.1347 H       
  46 H46           -2.5696     1.7951     3.4571 H       
  47 H47           -4.1447    -3.0142    -5.7214 H       
  48 H48           -4.5132    -2.0585    -7.1785 H       
  49 H49           -1.7288    -2.7840    -6.1570 H       
  50 H50           -2.5411    -3.4854    -7.5773 H       
  51 H51           -1.0376    -0.4566    -6.2507 H       
  52 H52           -1.3674     0.4669    -7.7364 H       
  53 H53           -3.7892     0.3794    -7.2767 H       
  54 H54           -2.9276     1.0844    -5.8864 H       
  55 H55           -7.6735     2.4834    -2.1481 H       
  56 H56          -11.4381     3.9618    -3.1152 H       
  57 H57          -11.0588     3.4019    -5.4810 H       
@<TRIPOS>BOND
   1    1   15 1
   2    2   22 2
   3    2   23 2
   4    2   17 1
   5    2   19 1
   6    3    4 1
   7    3   24 1
   8    3   28 1
   9    3   34 1
  10    4    5 1
  11    4   35 1
  12    4   36 1
  13    5    8 1
  14    5    6 1
  15    5   37 1
  16    6    7 2
  17    6   13 am
  18    8    9 1
  19    8   12 1
  20    9   10 ar
  21    9   14 ar
  22   10   11 1
  23   10   17 ar
  24   11   12 2
  25   11   38 1
  26   13   18 1
  27   13   39 1
  28   14   15 ar
  29   14   40 1
  30   15   16 ar
  31   16   17 ar
  32   16   41 1
  33   18   29 ar
  34   18   33 ar
  35   19   20 1
  36   19   21 1
  37   19   42 1
  38   20   21 1
  39   20   43 1
  40   20   44 1
  41   21   45 1
  42   21   46 1
  43   24   25 1
  44   24   47 1
  45   24   48 1
  46   25   26 1
  47   25   49 1
  48   25   50 1
  49   26   27 1
  50   27   28 1
  51   27   51 1
  52   27   52 1
  53   28   53 1
  54   28   54 1
  55   29   30 ar
  56   29   55 1
  57   30   31 ar
  58   31   32 ar
  59   31   56 1
  60   32   33 ar
  61   32   57 1

#	End of record

