#	Name: ASD01420248
#	Creating user name:	WinNT
#	Creation time:	15. 06. 2019 19:20

#	Modifying user name:	WinNT
#	Modification time:	15. 06. 2019 19:20

#	Program:	/corina/corina34_cracker 3.40 0067  02.08.2006

@<TRIPOS>MOLECULE
ASD01420248
  42   46    0    0    0
SMALL
NO_CHARGES


@<TRIPOS>ATOM
   1 C1            -0.0169     1.3941     0.0097 C.ar    
   2 C2             0.0021    -0.0041     0.0020 C.ar    
   3 C3             1.2358    -0.6787    -0.0134 C.ar    
   4 C4             2.4198     0.0442    -0.0212 C.ar    
   5 C5             2.3826     1.4229    -0.0138 C.ar    
   6 C6             1.1683     2.0938     0.0021 C.ar    
   7 N7            -0.9708    -0.9481     0.0062 N.2     
   8 C8            -0.4271    -2.1411    -0.0054 C.2     
   9 N9             0.9373    -2.0282    -0.0178 N.pl3   
  10 C10           -1.1744    -3.4157    -0.0046 C.2     
  11 C11           -2.5816    -3.5543     0.0081 C.2     
  12 C12           -2.8664    -4.8795     0.0042 C.2     
  13 N13           -1.6893    -5.5585    -0.0104 N.pl3   
  14 N14           -0.6463    -4.6239    -0.0214 N.2     
  15 N15           -3.5166    -2.5066     0.0226 N.am    
  16 C16           -4.8360    -2.7811     0.0337 C.2     
  17 O17           -5.2169    -3.9360     0.0312 O.2     
  18 C18           -5.8183    -1.6804     0.0490 C.ar    
  19 C19           -5.3838    -0.3520     0.0520 C.ar    
  20 C20           -6.3044     0.6727     0.0660 C.ar    
  21 C21           -7.6609     0.3940     0.0791 C.ar    
  22 C22           -8.1076    -0.9181     0.0780 C.ar    
  23 C23           -7.1906    -1.9622     0.0548 C.ar    
  24 O24           -9.4457    -1.1679     0.0987 O.3     
  25 C25           -9.8601    -2.4850    -0.2799 C.3     
  26 C26           -8.9622    -3.4980     0.4433 C.3     
  27 O27           -7.6067    -3.2551     0.0456 O.3     
  28 H28           -0.9584     1.9232     0.0170 H       
  29 H29            3.3687    -0.4715    -0.0327 H       
  30 H30            3.3052     1.9842    -0.0196 H       
  31 H31            1.1529     3.1736     0.0072 H       
  32 H32            1.5752    -2.7588    -0.0281 H       
  33 H33           -3.8534    -5.3179     0.0114 H       
  34 H34           -1.5889    -6.5233    -0.0159 H       
  35 H35           -3.2127    -1.5854     0.0246 H       
  36 H36           -4.3271    -0.1290     0.0436 H       
  37 H37           -5.9666     1.6985     0.0671 H       
  38 H38           -8.3751     1.2040     0.0907 H       
  39 H39          -10.8989    -2.6413     0.0110 H       
  40 H40           -9.7574    -2.6069    -1.3582 H       
  41 H41           -9.0612    -3.3729     1.5215 H       
  42 H42           -9.2502    -4.5109     0.1621 H       
@<TRIPOS>BOND
   1    1    2 ar
   2    1    6 ar
   3    1   28 1
   4    2    3 ar
   5    2    7 1
   6    3    4 ar
   7    3    9 1
   8    4    5 ar
   9    4   29 1
  10    5    6 ar
  11    5   30 1
  12    6   31 1
  13    7    8 2
  14    8    9 1
  15    8   10 1
  16    9   32 1
  17   10   11 1
  18   10   14 2
  19   11   12 2
  20   11   15 1
  21   12   13 1
  22   12   33 1
  23   13   14 1
  24   13   34 1
  25   15   16 am
  26   15   35 1
  27   16   18 1
  28   16   17 2
  29   18   19 ar
  30   18   23 ar
  31   19   20 ar
  32   19   36 1
  33   20   21 ar
  34   20   37 1
  35   21   22 ar
  36   21   38 1
  37   22   23 ar
  38   22   24 1
  39   23   27 1
  40   24   25 1
  41   25   26 1
  42   25   39 1
  43   25   40 1
  44   26   27 1
  45   26   41 1
  46   26   42 1

#	End of record

