#	Name: ASD07300966
#	Creating user name:	WinNT
#	Creation time:	15. 06. 2019 21:10

#	Modifying user name:	WinNT
#	Modification time:	15. 06. 2019 21:10

#	Program:	/corina/corina34_cracker 3.40 0067  02.08.2006

@<TRIPOS>MOLECULE
ASD07300966
  46   50    0    0    0
SMALL
NO_CHARGES


@<TRIPOS>ATOM
   1 N1            -0.1595     1.4278     0.1313 N.am    
   2 C2            -0.0736     0.0759     0.0519 C.2     
   3 N3             1.0589    -0.5601    -0.0179 N.2     
   4 C4             2.2358     0.0855    -0.0166 C.2     
   5 C5             2.2475     1.4870     0.0623 C.2     
   6 C6             0.9635     2.1836     0.1405 C.2     
   7 N7             3.5337    -0.3104    -0.0778 N.pl3   
   8 N8             4.3442     0.8311    -0.0375 N.2     
   9 C9             3.5942     1.8952     0.0451 C.2     
  10 O10            0.9070     3.3986     0.2105 O.2     
  11 C11            4.0050    -1.6945    -0.1697 C.3     
  12 C12            4.7157    -1.9058    -1.5101 C.3     
  13 C13            5.2730    -3.3306    -1.5642 C.3     
  14 O14            6.1580    -3.5368    -0.4612 O.3     
  15 C15            5.5373    -3.3989     0.8185 C.3     
  16 C16            4.9906    -1.9768     0.9684 C.3     
  17 C17           -1.3496    -0.7258     0.0447 C.3     
  18 C18           -1.1723    -2.1704     0.5414 C.3     
  19 C19           -0.8627    -2.5502    -0.9162 C.3     
  20 C20           -1.6935    -1.3240    -1.3297 C.3     
  21 C21           -1.1046    -0.5578    -2.4860 C.ar    
  22 N22           -1.9035    -0.1189    -3.4380 N.ar    
  23 C23           -1.4223     0.5578    -4.4684 C.ar    
  24 C24           -0.0598     0.8025    -4.5373 C.ar    
  25 C25            0.7480     0.3251    -3.5173 C.ar    
  26 N26            0.1948    -0.3397    -2.5157 N.ar    
  27 H27           -1.0293     1.8546     0.1777 H       
  28 H28            3.9465     2.9150     0.0923 H       
  29 H29            3.1562    -2.3744    -0.0959 H       
  30 H30            4.0067    -1.7608    -2.3252 H       
  31 H31            5.5331    -1.1911    -1.6056 H       
  32 H32            4.4513    -4.0447    -1.5093 H       
  33 H33            5.8168    -3.4730    -2.4981 H       
  34 H34            4.7190    -4.1139     0.9046 H       
  35 H35            6.2714    -3.5905     1.6011 H       
  36 H36            5.8135    -1.2635     0.9229 H       
  37 H37            4.4781    -1.8826     1.9258 H       
  38 H38           -2.1816    -0.2015     0.5147 H       
  39 H39           -0.3255    -2.2994     1.2155 H       
  40 H40           -2.0905    -2.6166     0.9233 H       
  41 H41            0.1934    -2.4691    -1.1737 H       
  42 H42           -1.3025    -3.4992    -1.2230 H       
  43 H43           -2.7542    -1.5389    -1.4593 H       
  44 H44           -2.0823     0.9143    -5.2453 H       
  45 H45            0.3622     1.3516    -5.3660 H       
  46 H46            1.8142     0.4965    -3.5378 H       
@<TRIPOS>BOND
   1    1    2 1
   2    1    6 am
   3    1   27 1
   4    2    3 2
   5    2   17 1
   6    3    4 1
   7    4    5 2
   8    4    7 1
   9    5    6 1
  10    5    9 1
  11    6   10 2
  12    7    8 1
  13    7   11 1
  14    8    9 2
  15    9   28 1
  16   11   12 1
  17   11   16 1
  18   11   29 1
  19   12   13 1
  20   12   30 1
  21   12   31 1
  22   13   14 1
  23   13   32 1
  24   13   33 1
  25   14   15 1
  26   15   16 1
  27   15   34 1
  28   15   35 1
  29   16   36 1
  30   16   37 1
  31   17   18 1
  32   17   20 1
  33   17   38 1
  34   18   19 1
  35   18   39 1
  36   18   40 1
  37   19   20 1
  38   19   41 1
  39   19   42 1
  40   20   21 1
  41   20   43 1
  42   21   22 ar
  43   21   26 ar
  44   22   23 ar
  45   23   24 ar
  46   23   44 1
  47   24   25 ar
  48   24   45 1
  49   25   26 ar
  50   25   46 1

#	End of record

