#	Name: ASD01911512
#	Creating user name:	WinNT
#	Creation time:	15. 06. 2019 19:57

#	Modifying user name:	WinNT
#	Modification time:	15. 06. 2019 19:57

#	Program:	/corina/corina34_cracker 3.40 0067  02.08.2006

@<TRIPOS>MOLECULE
ASD01911512
  45   46    0    0    0
SMALL
NO_CHARGES


@<TRIPOS>ATOM
   1 N1            -0.0162     1.3400     0.0094 N.am    
   2 C2             0.0021    -0.0041     0.0020 C.2     
   3 C3             1.4293    -0.5049    -0.0244 C.3     
   4 C4             2.2566     0.7297    -0.4513 C.3     
   5 C5             1.3438     1.8917    -0.0006 C.3     
   6 O6            -0.9823    -0.7121     0.0150 O.2     
   7 C7            -1.1732     2.1079     0.0193 C.ar    
   8 N8            -2.3492     1.4984     0.0222 N.ar    
   9 C9            -3.4730     2.1927     0.0315 C.ar    
  10 C10           -3.4070     3.5904     0.0383 C.ar    
  11 C11           -2.1446     4.1941     0.0349 C.ar    
  12 N12           -1.0684     3.4282     0.0308 N.ar    
  13 C13           -4.6001     4.3822     0.0480 C.1     
  14 C14           -5.5783     5.0314     0.0560 C.1     
  15 Si15          -7.1613     6.0820     0.0688 Si      
  16 C16           -6.7075     7.8889     0.0758 C.3     
  17 C17           -8.1716     5.7014    -1.4494 C.3     
  18 C18           -8.1571     5.6860     1.5927 C.3     
  19 C19            3.5981     0.7707     0.2834 C.3     
  20 C20            2.4639     0.7525    -1.9670 C.3     
  21 O21            1.8276    -0.9492     1.2741 O.3     
  22 C22            1.5928    -2.3388     1.5103 C.3     
  23 H23            1.5384    -1.3078    -0.7534 H       
  24 H24            1.4100     2.7191    -0.7070 H       
  25 H25            1.6231     2.2249     0.9989 H       
  26 H26           -4.4283     1.6890     0.0336 H       
  27 H27           -2.0516     5.2701     0.0399 H       
  28 H28           -6.1248     8.1206    -0.8158 H       
  29 H29           -7.6156     8.4916     0.0832 H       
  30 H30           -6.1163     8.1116     0.9641 H       
  31 H31           -8.4372     4.6442    -1.4535 H       
  32 H32           -9.0798     6.3041    -1.4421 H       
  33 H33           -7.5890     5.9331    -2.3411 H       
  34 H34           -7.5660     5.9087     2.4811 H       
  35 H35           -9.0653     6.2887     1.6001 H       
  36 H36           -8.4227     4.6289     1.5887 H       
  37 H37            4.1673    -0.1293     0.0507 H       
  38 H38            4.1601     1.6486    -0.0351 H       
  39 H39            3.4224     0.8218     1.3579 H       
  40 H40            1.4954     0.7910    -2.4656 H       
  41 H41            3.0486     1.6308    -2.2406 H       
  42 H42            2.9954    -0.1480    -2.2746 H       
  43 H43            2.1496    -2.9301     0.7833 H       
  44 H44            1.9218    -2.5969     2.5169 H       
  45 H45            0.5280    -2.5494     1.4109 H       
@<TRIPOS>BOND
   1    1    2 am
   2    1    5 1
   3    1    7 1
   4    2    3 1
   5    2    6 2
   6    3    4 1
   7    3   21 1
   8    3   23 1
   9    4    5 1
  10    4   19 1
  11    4   20 1
  12    5   24 1
  13    5   25 1
  14    7    8 ar
  15    7   12 ar
  16    8    9 ar
  17    9   10 ar
  18    9   26 1
  19   10   11 ar
  20   10   13 1
  21   11   12 ar
  22   11   27 1
  23   13   14 3
  24   14   15 1
  25   15   16 1
  26   15   17 1
  27   15   18 1
  28   16   28 1
  29   16   29 1
  30   16   30 1
  31   17   31 1
  32   17   32 1
  33   17   33 1
  34   18   34 1
  35   18   35 1
  36   18   36 1
  37   19   37 1
  38   19   38 1
  39   19   39 1
  40   20   40 1
  41   20   41 1
  42   20   42 1
  43   21   22 1
  44   22   43 1
  45   22   44 1
  46   22   45 1

#	End of record

