#	Name: ASD00844154
#	Creating user name:	WinNT
#	Creation time:	15. 06. 2019 18:49

#	Modifying user name:	WinNT
#	Modification time:	15. 06. 2019 18:49

#	Program:	/corina/corina34_cracker 3.40 0067  02.08.2006

@<TRIPOS>MOLECULE
ASD00844154
  87   92    0    0    0
SMALL
NO_CHARGES


@<TRIPOS>ATOM
   1 C1            -0.0051     1.3863     0.0370 C.ar    
   2 C2             0.0094    -0.0007     0.0190 C.ar    
   3 C3             1.2194    -0.6794    -0.0011 C.ar    
   4 C4             2.4062     0.0272    -0.0032 C.ar    
   5 C5             2.3892     1.4098     0.0152 C.ar    
   6 C6             1.1849     2.0884     0.0348 C.ar    
   7 C7             1.2387    -2.1861    -0.0202 C.3     
   8 C8             0.4941    -2.7108    -1.2293 C.2     
   9 N9             2.6177    -2.6806    -0.0122 N.am    
  10 C10            3.4635    -2.3343    -1.0027 C.2     
  11 N11            4.7591    -2.7005    -0.9414 N.am    
  12 O12            3.0577    -1.6914    -1.9517 O.2     
  13 C13            5.2904    -3.3764     0.2501 C.3     
  14 C14            6.5168    -2.6055     0.7485 C.3     
  15 C15            7.5241    -2.4629    -0.3948 C.3     
  16 C16            6.8891    -1.6717    -1.5407 C.3     
  17 C17            5.6656    -2.4371    -2.0673 C.3     
  18 N18            8.7158    -1.7530     0.0886 N.3     
  19 C19            9.7550    -1.7011    -0.9492 C.3     
  20 C20           10.9450    -0.8871    -0.4355 C.3     
  21 N21           11.4628    -1.5037     0.7939 N.3     
  22 C22           10.4236    -1.5555     1.8317 C.3     
  23 C23            9.2336    -2.3695     1.3180 C.3     
  24 C24           12.6545    -0.7937     1.2773 C.3     
  25 O25            0.7733    -2.5064    -2.3918 O.2     
  26 N26           -0.5343    -3.4452    -0.7728 N.am    
  27 C27            0.4676    -2.7405     1.1556 C.ar    
  28 C28           -0.5786    -3.4830     0.6218 C.ar    
  29 C29            0.6318    -2.6302     2.5180 C.ar    
  30 C30           -0.2526    -3.2643     3.3743 C.ar    
  31 C31           -1.3003    -4.0079     2.8546 C.ar    
  32 C32           -1.4656    -4.1189     1.4873 C.ar    
  33 Cl33          -0.0494    -3.1287     5.0931 Cl      
  34 F34           -2.1640    -4.6271     3.6888 F       
  35 C35           -0.9916    -5.8310    -2.0663 C.ar    
  36 C36           -1.3193    -6.8767    -1.2232 C.ar    
  37 C37           -0.1730    -6.0510    -3.1587 C.ar    
  38 C38            0.3196    -7.3168    -3.4103 C.ar    
  39 C39           -0.0077    -8.3678    -2.5659 C.ar    
  40 C40           -0.8289    -8.1444    -1.4703 C.ar    
  41 O41            0.4753    -9.6141    -2.8116 O.3     
  42 H42           -1.9589    -6.7024    -0.3707 H       
  43 C43            0.0969   -10.6478    -1.9003 C.3     
  44 O44           -1.1597    -0.6936     0.0215 O.3     
  45 C45           -2.3669     0.0708     0.0432 C.3     
  46 C46           -3.5695    -0.8750     0.0428 C.3     
  47 F47           -3.5396    -1.6669    -1.1101 F       
  48 F48           -3.5173    -1.6963     1.1741 F       
  49 S49           -1.6242    -4.2167    -1.7522 S.o2    
  50 O50           -2.8042    -4.3914    -0.9800 O.2     
  51 O51           -1.6037    -3.5288    -2.9955 O.2     
  52 H52           -0.9457     1.9169     0.0481 H       
  53 H53            3.3483    -0.5006    -0.0188 H       
  54 H54            3.3183     1.9605     0.0143 H       
  55 H55            1.1742     3.1683     0.0492 H       
  56 H56            2.9221    -3.2572     0.7060 H       
  57 H57            4.5288    -3.3950     1.0296 H       
  58 H58            5.5789    -4.3958    -0.0062 H       
  59 H59            6.2109    -1.6164     1.0894 H       
  60 H60            6.9774    -3.1488     1.5736 H       
  61 H61            7.8107    -3.4521    -0.7517 H       
  62 H62            6.5797    -0.6914    -1.1782 H       
  63 H63            7.6147    -1.5504    -2.3449 H       
  64 H64            5.9874    -3.3786    -2.5124 H       
  65 H65            5.1514    -1.8337    -2.8154 H       
  66 H66           10.0823    -2.7132    -1.1870 H       
  67 H67            9.3512    -1.2292    -1.8449 H       
  68 H68           11.7290    -0.8716    -1.1926 H       
  69 H69           10.6236     0.1326    -0.2234 H       
  70 H70           10.8274    -2.0274     2.7274 H       
  71 H71           10.0963    -0.5434     2.0695 H       
  72 H72            8.4496    -2.3850     2.0751 H       
  73 H73            9.5549    -3.3892     1.1059 H       
  74 H74           12.3984     0.2446     1.4881 H       
  75 H75           13.0171    -1.2706     2.1879 H       
  76 H76           13.4324    -0.8284     0.5145 H       
  77 H77            1.4499    -2.0499     2.9186 H       
  78 H78           -2.2843    -4.6997     1.0888 H       
  79 H79            0.0812    -5.2326    -3.8159 H       
  80 H80            0.9587    -7.4883    -4.2639 H       
  81 H81           -1.0854    -8.9609    -0.8117 H       
  82 H82            0.5493   -11.5895    -2.2110 H       
  83 H83            0.4412   -10.3925    -0.8981 H       
  84 H84           -0.9883   -10.7497    -1.8967 H       
  85 H85           -2.3902     0.6878     0.9414 H       
  86 H86           -2.4076     0.7107    -0.8383 H       
  87 H87           -4.4903    -0.2919     0.0593 H       
@<TRIPOS>BOND
   1    1    2 ar
   2    1    6 ar
   3    1   52 1
   4    2    3 ar
   5    2   44 1
   6    3    4 ar
   7    3    7 1
   8    4    5 ar
   9    4   53 1
  10    5    6 ar
  11    5   54 1
  12    6   55 1
  13    7    8 1
  14    7    9 1
  15    7   27 1
  16    8   25 2
  17    8   26 am
  18    9   10 am
  19    9   56 1
  20   10   11 am
  21   10   12 2
  22   11   13 1
  23   11   17 1
  24   13   14 1
  25   13   57 1
  26   13   58 1
  27   14   15 1
  28   14   59 1
  29   14   60 1
  30   15   16 1
  31   15   18 1
  32   15   61 1
  33   16   17 1
  34   16   62 1
  35   16   63 1
  36   17   64 1
  37   17   65 1
  38   18   19 1
  39   18   23 1
  40   19   20 1
  41   19   66 1
  42   19   67 1
  43   20   21 1
  44   20   68 1
  45   20   69 1
  46   21   22 1
  47   21   24 1
  48   22   23 1
  49   22   70 1
  50   22   71 1
  51   23   72 1
  52   23   73 1
  53   24   74 1
  54   24   75 1
  55   24   76 1
  56   26   49 am
  57   26   28 1
  58   27   28 ar
  59   27   29 ar
  60   28   32 ar
  61   29   30 ar
  62   29   77 1
  63   30   31 ar
  64   30   33 1
  65   31   32 ar
  66   31   34 1
  67   32   78 1
  68   35   36 ar
  69   35   37 ar
  70   35   49 1
  71   36   42 1
  72   36   40 ar
  73   37   38 ar
  74   37   79 1
  75   38   39 ar
  76   38   80 1
  77   39   40 ar
  78   39   41 1
  79   40   81 1
  80   41   43 1
  81   43   82 1
  82   43   83 1
  83   43   84 1
  84   44   45 1
  85   45   46 1
  86   45   85 1
  87   45   86 1
  88   46   47 1
  89   46   48 1
  90   46   87 1
  91   49   50 2
  92   49   51 2

#	End of record

