#	Name: ASD01810151
#	Creating user name:	WinNT
#	Creation time:	15. 06. 2019 19:23

#	Modifying user name:	WinNT
#	Modification time:	15. 06. 2019 19:23

#	Program:	/corina/corina34_cracker 3.40 0067  02.08.2006

@<TRIPOS>MOLECULE
ASD01810151
  41   44    0    0    0
SMALL
NO_CHARGES


@<TRIPOS>ATOM
   1 C1             7.3395     1.2115    -0.2200 C.ar    
   2 C2             7.2562    -0.1724    -0.2211 C.ar    
   3 C3             6.0314    -0.8055    -0.1603 C.ar    
   4 C4             4.8603    -0.0527    -0.0964 C.ar    
   5 C5             4.9463     1.3500    -0.0949 C.ar    
   6 C6             6.1930     1.9778    -0.1573 C.ar    
   7 N7             3.6306    -0.6740    -0.0363 N.pl3   
   8 C8             2.4777     0.0042     0.0254 C.2     
   9 C9             2.4356     1.3838     0.0329 C.2     
  10 C10            3.7006     2.1344    -0.0270 C.2     
  11 O11            3.7168     3.3529    -0.0225 O.2     
  12 C12            1.1494     2.0916     0.1004 C.2     
  13 O13            1.1213     3.4393     0.1071 O.3     
  14 O14            0.1109     1.4617     0.1503 O.2     
  15 C15            3.5837    -2.1382    -0.0406 C.3     
  16 C16            3.4403    -2.6321    -1.4571 C.ar    
  17 C17            4.5596    -2.7768    -2.2553 C.ar    
  18 C18            4.4280    -3.2297    -3.5547 C.ar    
  19 C19            3.1772    -3.5384    -4.0557 C.ar    
  20 C20            2.0580    -3.3946    -3.2573 C.ar    
  21 C21            2.1900    -2.9457    -1.9565 C.ar    
  22 F22            5.9677    -2.1550    -0.1631 F       
  23 C23            3.0337    -4.0313    -5.4726 C.3     
  24 C24            2.4188    -5.4169    -5.6797 C.3     
  25 C25            1.6167    -4.1632    -6.0346 C.3     
  26 F26            6.2759     3.3262    -0.1555 F       
  27 H27            8.3057     1.6920    -0.2639 H       
  28 H28            8.1599    -0.7617    -0.2704 H       
  29 H29            1.5498    -0.5467     0.0703 H       
  30 H30            0.2518     3.8601     0.1526 H       
  31 H31            4.5040    -2.5325     0.3902 H       
  32 H32            2.7321    -2.4761     0.5500 H       
  33 H33            5.5368    -2.5356    -1.8638 H       
  34 H34            5.3024    -3.3421    -4.1785 H       
  35 H35            1.0807    -3.6354    -3.6488 H       
  36 H36            1.3156    -2.8334    -1.3327 H       
  37 H37            3.8213    -3.7224    -6.1599 H       
  38 H38            2.8016    -6.0194    -6.5035 H       
  39 H39            2.1180    -5.9720    -4.7912 H       
  40 H40            0.7884    -3.8935    -5.3795 H       
  41 H41            1.4719    -3.9409    -7.0918 H       
@<TRIPOS>BOND
   1    1    2 ar
   2    1    6 ar
   3    1   27 1
   4    2    3 ar
   5    2   28 1
   6    3    4 ar
   7    3   22 1
   8    4    5 ar
   9    4    7 1
  10    5    6 ar
  11    5   10 1
  12    6   26 1
  13    7    8 1
  14    7   15 1
  15    8    9 2
  16    8   29 1
  17    9   10 1
  18    9   12 1
  19   10   11 2
  20   12   13 1
  21   12   14 2
  22   13   30 1
  23   15   16 1
  24   15   31 1
  25   15   32 1
  26   16   17 ar
  27   16   21 ar
  28   17   18 ar
  29   17   33 1
  30   18   19 ar
  31   18   34 1
  32   19   20 ar
  33   19   23 1
  34   20   21 ar
  35   20   35 1
  36   21   36 1
  37   23   24 1
  38   23   25 1
  39   23   37 1
  40   24   25 1
  41   24   38 1
  42   24   39 1
  43   25   40 1
  44   25   41 1

#	End of record

