#	Name: ASD01912100
#	Creating user name:	WinNT
#	Creation time:	15. 06. 2019 19:59

#	Modifying user name:	WinNT
#	Modification time:	15. 06. 2019 19:59

#	Program:	/corina/corina34_cracker 3.40 0067  02.08.2006

@<TRIPOS>MOLECULE
ASD01912100
  58   62    0    0    0
SMALL
NO_CHARGES


@<TRIPOS>ATOM
   1 N1             0.0113     1.3374    -0.2151 N.2     
   2 C2            -0.0019     0.0061    -0.0866 C.2     
   3 N3             1.2218    -0.4117     0.1575 N.2     
   4 N4             2.0445     0.7261     0.1823 N.pl3   
   5 C5             1.2382     1.7865    -0.0556 C.2     
   6 C6             1.6618     3.2028    -0.1249 C.ar    
   7 C7             0.7249     4.2229     0.0414 C.ar    
   8 C8             1.1261     5.5415    -0.0243 C.ar    
   9 C9             2.4543     5.8528    -0.2545 C.ar    
  10 C10            3.3881     4.8457    -0.4202 C.ar    
  11 C11            3.0005     3.5232    -0.3510 C.ar    
  12 C12           -1.2019    -0.8592    -0.2003 C.ar    
  13 C13           -2.4483    -0.2936    -0.4627 C.ar    
  14 C14           -3.5618    -1.1004    -0.5678 C.ar    
  15 C15           -3.4421    -2.4747    -0.4120 C.ar    
  16 C16           -2.2018    -3.0410    -0.1505 C.ar    
  17 C17           -1.0838    -2.2398    -0.0505 C.ar    
  18 C18            3.4897     0.7586     0.4196 C.3     
  19 C19            4.2177     0.5807    -0.8879 C.2     
  20 N20            5.5652     0.5773    -0.9139 N.am    
  21 O21            3.5909     0.4404    -1.9167 O.2     
  22 C22            6.2068     0.4011    -2.2082 C.3     
  23 C23            6.8839     1.7174    -2.6263 C.3     
  24 C24            8.1486     1.8592    -1.7944 C.2     
  25 C25            8.1840     2.0515    -0.4765 C.2     
  26 C26            6.9343     2.1266     0.3995 C.3     
  27 C27            6.2567     0.7559     0.3527 C.3     
  28 S28            9.7955     1.7977    -2.4081 S.3     
  29 C29           10.3950     2.0603    -0.8284 C.2     
  30 N30            9.4176     2.1650     0.0034 N.2     
  31 C31           11.8540     2.1550    -0.4629 C.3     
  32 O32           -4.5411    -3.2670    -0.5152 O.3     
  33 C33           -4.3462    -4.6722    -0.3439 C.3     
  34 F34           -3.4527    -5.1407    -1.3132 F       
  35 F35           -3.8234    -4.9186     0.9302 F       
  36 H36           -0.3122     3.9812     0.2208 H       
  37 H37            0.4017     6.3322     0.1039 H       
  38 H38            2.7633     6.8864    -0.3054 H       
  39 H39            4.4235     5.0950    -0.5996 H       
  40 H40            3.7305     2.7379    -0.4801 H       
  41 H41           -2.5420     0.7756    -0.5833 H       
  42 H42           -4.5279    -0.6626    -0.7711 H       
  43 H43           -2.1118    -4.1104    -0.0294 H       
  44 H44           -0.1192    -2.6809     0.1529 H       
  45 H45            3.7640     1.7170     0.8606 H       
  46 H46            3.7643    -0.0467     1.1009 H       
  47 H47            6.9564    -0.3870    -2.1380 H       
  48 H48            5.4579     0.1258    -2.9507 H       
  49 H49            7.1387     1.6832    -3.6855 H       
  50 H50            6.2158     2.5563    -2.4315 H       
  51 H51            7.2146     2.3672     1.4249 H       
  52 H52            6.2556     2.8866     0.0122 H       
  53 H53            5.5392     0.6792     1.1697 H       
  54 H54            7.0104    -0.0239     0.4613 H       
  55 H55           12.1797     3.1927    -0.5336 H       
  56 H56           11.9970     1.7980     0.5570 H       
  57 H57           12.4405     1.5426    -1.1478 H       
  58 H58           -5.3009    -5.1872    -0.4507 H       
@<TRIPOS>BOND
   1    1    2 1
   2    1    5 2
   3    2    3 2
   4    2   12 1
   5    3    4 1
   6    4    5 1
   7    4   18 1
   8    5    6 1
   9    6    7 ar
  10    6   11 ar
  11    7    8 ar
  12    7   36 1
  13    8    9 ar
  14    8   37 1
  15    9   10 ar
  16    9   38 1
  17   10   11 ar
  18   10   39 1
  19   11   40 1
  20   12   13 ar
  21   12   17 ar
  22   13   14 ar
  23   13   41 1
  24   14   15 ar
  25   14   42 1
  26   15   16 ar
  27   15   32 1
  28   16   17 ar
  29   16   43 1
  30   17   44 1
  31   18   19 1
  32   18   45 1
  33   18   46 1
  34   19   20 am
  35   19   21 2
  36   20   22 1
  37   20   27 1
  38   22   23 1
  39   22   47 1
  40   22   48 1
  41   23   24 1
  42   23   49 1
  43   23   50 1
  44   24   25 2
  45   24   28 1
  46   25   26 1
  47   25   30 1
  48   26   27 1
  49   26   51 1
  50   26   52 1
  51   27   53 1
  52   27   54 1
  53   28   29 1
  54   29   30 2
  55   29   31 1
  56   31   55 1
  57   31   56 1
  58   31   57 1
  59   32   33 1
  60   33   34 1
  61   33   35 1
  62   33   58 1

#	End of record

