#	Name: ASD08151016
#	Creating user name:	WinNT
#	Creation time:	15. 06. 2019 21:16

#	Modifying user name:	WinNT
#	Modification time:	15. 06. 2019 21:16

#	Program:	/corina/corina34_cracker 3.40 0067  02.08.2006

@<TRIPOS>MOLECULE
ASD08151016
  32   34    0    0    0
SMALL
NO_CHARGES


@<TRIPOS>ATOM
   1 C1            -0.0184     1.5028     0.0103 C.2     
   2 C2             0.0021    -0.0041     0.0020 C.3     
   3 N3             2.4599     5.7007     0.0087 N.ar    
   4 C4             3.5874     6.3697     0.0020 C.ar    
   5 C5             4.8216     5.7228    -0.0127 C.ar    
   6 C6             4.8750     4.3578    -0.0205 C.ar    
   7 C7             3.6613     3.6442    -0.0133 C.ar    
   8 C8             3.6467     2.2373    -0.0202 C.ar    
   9 C9             2.4684     1.5637    -0.0131 C.ar    
  10 C10            1.2427     2.2539     0.0023 C.ar    
  11 C11            1.2197     3.6546     0.0096 C.ar    
  12 C12            2.4436     4.3661     0.0017 C.ar    
  13 C13           -0.0668     4.3808     0.0248 C.ar    
  14 C14           -0.6898     4.7325    -1.1774 C.ar    
  15 C15           -1.8931     5.4118    -1.1541 C.ar    
  16 C16           -2.4796     5.7435     0.0538 C.ar    
  17 C17           -1.8675     5.3985     1.2462 C.ar    
  18 C18           -0.6698     4.7146     1.2391 C.ar    
  19 F19           -0.1167     4.4094    -2.3575 F       
  20 O20           -1.0770     2.0950     0.0185 O.2     
  21 H21            0.0168    -0.3729     1.0276 H       
  22 H22           -0.8878    -0.3767    -0.5053 H       
  23 H23            0.8920    -0.3525    -0.5222 H       
  24 H24            3.5590     7.4493     0.0077 H       
  25 H25            5.7345     6.2998    -0.0182 H       
  26 H26            5.8227     3.8400    -0.0322 H       
  27 H27            4.5780     1.6905    -0.0317 H       
  28 H28            2.4719     0.4837    -0.0193 H       
  29 H29           -2.3762     5.6845    -2.0807 H       
  30 H30           -3.4198     6.2747     0.0666 H       
  31 H31           -2.3315     5.6617     2.1853 H       
  32 H32           -0.1966     4.4423     2.1710 H       
@<TRIPOS>BOND
   1    1    2 1
   2    1   10 1
   3    1   20 2
   4    2   21 1
   5    2   22 1
   6    2   23 1
   7    3    4 ar
   8    3   12 ar
   9    4    5 ar
  10    4   24 1
  11    5    6 ar
  12    5   25 1
  13    6    7 ar
  14    6   26 1
  15    7    8 ar
  16    7   12 ar
  17    8    9 ar
  18    8   27 1
  19    9   10 ar
  20    9   28 1
  21   10   11 ar
  22   11   12 ar
  23   11   13 1
  24   13   14 ar
  25   13   18 ar
  26   14   15 ar
  27   14   19 1
  28   15   16 ar
  29   15   29 1
  30   16   17 ar
  31   16   30 1
  32   17   18 ar
  33   17   31 1
  34   18   32 1

#	End of record

