#	Name: ASD00060026
#	Creating user name:	WinNT
#	Creation time:	15. 06. 2019 18:29

#	Modifying user name:	WinNT
#	Modification time:	15. 06. 2019 18:29

#	Program:	/corina/corina34_cracker 3.40 0067  02.08.2006

@<TRIPOS>MOLECULE
ASD00060026
  52   57    0    0    0
SMALL
NO_CHARGES


@<TRIPOS>ATOM
   1 O1             0.0021    -0.0041     0.0020 O.2     
   2 C2            -0.0144     1.2142     0.0087 C.2     
   3 N3             1.0643     2.0221     0.0028 N.am    
   4 N4             0.6016     3.3446     0.0143 N.2     
   5 C5            -0.7045     3.3147     0.0266 C.2     
   6 N6            -1.1172     1.9942     0.0175 N.am    
   7 C7            -2.4559     1.6689     0.0273 C.2     
   8 C8            -3.4231     2.5911     0.0453 C.2     
   9 C9            -3.0836     4.0189     0.0561 C.ar    
  10 C10           -1.7178     4.3823     0.0416 C.ar    
  11 C11           -1.3628     5.7283     0.0509 C.ar    
  12 C12           -2.3864     6.6754     0.0745 C.ar    
  13 C13           -3.7249     6.2410     0.0879 C.ar    
  14 N14           -4.0271     4.9518     0.0736 N.ar    
  15 C15           -4.8150     7.2437     0.1134 C.ar    
  16 C16           -6.0084     6.9978    -0.5650 C.ar    
  17 C17           -7.0204     7.9354    -0.5371 C.ar    
  18 C18           -6.8528     9.1176     0.1616 C.ar    
  19 C19           -5.6712     9.3672     0.8366 C.ar    
  20 C20           -4.6542     8.4348     0.8208 C.ar    
  21 C21           -7.9616    10.1379     0.1872 C.3     
  22 N22           -9.2726     9.5640    -0.1445 N.3     
  23 C23           -7.9721    11.0045     1.4575 C.3     
  24 C24           -8.3201    12.1946     0.5479 C.3     
  25 C25           -7.6356    11.4217    -0.5941 C.3     
  26 C26           -2.0681     8.1227     0.0858 C.ar    
  27 C27           -1.1486     8.6300     1.0031 C.ar    
  28 C28           -0.8559     9.9785     1.0085 C.ar    
  29 C29           -1.4727    10.8266     0.1063 C.ar    
  30 C30           -2.3861    10.3292    -0.8059 C.ar    
  31 C31           -2.6826     8.9816    -0.8247 C.ar    
  32 H32            1.9921     1.7394    -0.0076 H       
  33 H33           -2.7352     0.6257     0.0196 H       
  34 H34           -4.4586     2.2844     0.0516 H       
  35 H35           -0.3259     6.0302     0.0405 H       
  36 H36           -6.1401     6.0756    -1.1114 H       
  37 H37           -7.9450     7.7462    -1.0621 H       
  38 H38           -5.5462    10.2920     1.3803 H       
  39 H39           -3.7324     8.6306     1.3484 H       
  40 H40           -9.2262     9.0247    -0.9960 H       
  41 H41           -9.6265     9.0060     0.6181 H       
  42 H42           -8.7656    10.7434     2.1577 H       
  43 H43           -6.9962    11.0908     1.9353 H       
  44 H44           -9.3912    12.3323     0.3996 H       
  45 H45           -7.8075    13.1171     0.8206 H       
  46 H46           -6.5674    11.6217    -0.6779 H       
  47 H47           -8.1578    11.4987    -1.5478 H       
  48 H48           -0.6667     7.9689     1.7081 H       
  49 H49           -0.1441    10.3726     1.7187 H       
  50 H50           -1.2404    11.8813     0.1143 H       
  51 H51           -2.8648    10.9962    -1.5076 H       
  52 H52           -3.3956     8.5944    -1.5374 H       
@<TRIPOS>BOND
   1    1    2 2
   2    2    3 am
   3    2    6 am
   4    3    4 1
   5    3   32 1
   6    4    5 2
   7    5    6 1
   8    5   10 1
   9    6    7 1
  10    7    8 2
  11    7   33 1
  12    8    9 1
  13    8   34 1
  14    9   10 ar
  15    9   14 ar
  16   10   11 ar
  17   11   12 ar
  18   11   35 1
  19   12   13 ar
  20   12   26 1
  21   13   14 ar
  22   13   15 1
  23   15   16 ar
  24   15   20 ar
  25   16   17 ar
  26   16   36 1
  27   17   18 ar
  28   17   37 1
  29   18   19 ar
  30   18   21 1
  31   19   20 ar
  32   19   38 1
  33   20   39 1
  34   21   22 1
  35   21   23 1
  36   21   25 1
  37   22   40 1
  38   22   41 1
  39   23   24 1
  40   23   42 1
  41   23   43 1
  42   24   25 1
  43   24   44 1
  44   24   45 1
  45   25   46 1
  46   25   47 1
  47   26   27 ar
  48   26   31 ar
  49   27   28 ar
  50   27   48 1
  51   28   29 ar
  52   28   49 1
  53   29   30 ar
  54   29   50 1
  55   30   31 ar
  56   30   51 1
  57   31   52 1

#	End of record

