#	Name: ASD01001021
#	Creating user name:	WinNT
#	Creation time:	15. 06. 2019 18:54

#	Modifying user name:	WinNT
#	Modification time:	15. 06. 2019 18:54

#	Program:	/corina/corina34_cracker 3.40 0067  02.08.2006

@<TRIPOS>MOLECULE
ASD01001021
  52   53    0    0    0
SMALL
NO_CHARGES


@<TRIPOS>ATOM
   1 C1             0.0214     0.8929    -2.0932 C.ar    
   2 C2             0.0730    -0.3898    -1.5806 C.ar    
   3 C3             1.1694     1.6609    -2.1509 C.ar    
   4 C4             1.2726    -0.9047    -1.1258 C.ar    
   5 C5             2.3690     1.1461    -1.6961 C.ar    
   6 C6             2.4207    -0.1369    -1.1840 C.ar    
   7 C7             1.3287    -2.3028    -0.5661 C.3     
   8 C8             0.4186    -2.4015     0.6310 C.ar    
   9 S9             0.7906    -3.4836    -1.8337 S.3     
  10 C10           -0.0862    -1.2532     1.2120 C.ar    
  11 C11            0.0842    -3.6405     1.1447 C.ar    
  12 C12           -0.9210    -1.3438     2.3101 C.ar    
  13 C13           -0.7505    -3.7311     2.2428 C.ar    
  14 C14           -1.2512    -2.5826     2.8270 C.ar    
  15 C15            1.9871    -3.2196    -3.1714 C.3     
  16 C16            1.6647    -4.1575    -4.3365 C.3     
  17 N17            0.3590    -3.7994    -4.9065 N.3     
  18 H18           -0.3801    -3.9407    -4.2344 H       
  19 H19            0.3614    -2.8495    -5.2470 H       
  20 C20            2.7634    -2.6260    -0.1442 C.3     
  21 C21            2.5626    -2.1811     2.3062 C.3     
  22 C22            3.1823    -1.6942     0.9947 C.3     
  23 C23            4.2956    -4.4387     0.6360 C.3     
  24 C24            2.8403    -4.0784     0.3308 C.3     
  25 C25            2.7283    -4.0266    -5.3959 C.2     
  26 O26            2.5255    -3.3485    -6.3752 O.2     
  27 O27            3.9012    -4.6633    -5.2517 O.3     
  28 H28           -0.9149     1.2935    -2.4527 H       
  29 H29           -0.8239    -0.9897    -1.5352 H       
  30 H30            1.1291     2.6630    -2.5516 H       
  31 H31            3.2660     1.7458    -1.7418 H       
  32 H32            3.3577    -0.5389    -0.8280 H       
  33 H33            0.1718    -0.2854     0.8081 H       
  34 H34            0.4749    -4.5378     0.6878 H       
  35 H35           -1.3149    -0.4467     2.7644 H       
  36 H36           -1.0121    -4.6991     2.6439 H       
  37 H37           -1.9034    -2.6534     3.6849 H       
  38 H38            1.9300    -2.1854    -3.5111 H       
  39 H39            2.9927    -3.4270    -2.8056 H       
  40 H40            1.6344    -5.1861    -3.9771 H       
  41 H41            3.4323    -2.4855    -0.9933 H       
  42 H42            1.4813    -2.0494     2.2680 H       
  43 H43            2.7954    -3.2364     2.4482 H       
  44 H44            2.9697    -1.6043     3.1366 H       
  45 H45            4.2686    -1.6949     1.0839 H       
  46 H46            2.8358    -0.6827     0.7827 H       
  47 H47            4.9124    -4.2314    -0.2384 H       
  48 H48            4.6482    -3.8439     1.4786 H       
  49 H49            4.3631    -5.4977     0.8854 H       
  50 H50            2.2396    -4.1982     1.2323 H       
  51 H51            2.4591    -4.7366    -0.4500 H       
  52 H52            4.5523    -4.5492    -5.9575 H       
@<TRIPOS>BOND
   1    1    2 ar
   2    1    3 ar
   3    1   28 1
   4    2    4 ar
   5    2   29 1
   6    3    5 ar
   7    3   30 1
   8    4    6 ar
   9    4    7 1
  10    5    6 ar
  11    5   31 1
  12    6   32 1
  13    7    8 1
  14    7    9 1
  15    7   20 1
  16    8   10 ar
  17    8   11 ar
  18    9   15 1
  19   10   12 ar
  20   10   33 1
  21   11   13 ar
  22   11   34 1
  23   12   14 ar
  24   12   35 1
  25   13   14 ar
  26   13   36 1
  27   14   37 1
  28   15   16 1
  29   15   38 1
  30   15   39 1
  31   16   17 1
  32   16   25 1
  33   16   40 1
  34   17   18 1
  35   17   19 1
  36   20   22 1
  37   20   24 1
  38   20   41 1
  39   21   22 1
  40   21   42 1
  41   21   43 1
  42   21   44 1
  43   22   45 1
  44   22   46 1
  45   23   24 1
  46   23   47 1
  47   23   48 1
  48   23   49 1
  49   24   50 1
  50   24   51 1
  51   25   26 2
  52   25   27 1
  53   27   52 1

#	End of record

