#	Name: ASD02198745
#	Creating user name:	WinNT
#	Creation time:	15. 06. 2019 20:20

#	Modifying user name:	WinNT
#	Modification time:	15. 06. 2019 20:20

#	Program:	/corina/corina34_cracker 3.40 0067  02.08.2006

@<TRIPOS>MOLECULE
ASD02198745
  44   48    0    0    0
SMALL
NO_CHARGES


@<TRIPOS>ATOM
   1 F1             2.2540    -1.7073     2.4708 F       
   2 C2            -0.0433     1.5014    -0.1152 C.2     
   3 C3            -0.0729     0.1618     0.0973 C.2     
   4 N4             1.0718    -0.5399     0.2597 N.pl3   
   5 N5             2.2362    -0.0051     0.2257 N.2     
   6 C6             2.4077     1.2842     0.0275 C.2     
   7 C7             1.2217     2.1355    -0.1606 C.2     
   8 C8             0.9804    -1.9176     0.4760 C.ar    
   9 C9             1.5823    -2.4868     1.5954 C.ar    
  10 C10            1.4931    -3.8472     1.8105 C.ar    
  11 C11            0.7985    -4.6510     0.9048 C.ar    
  12 C12            0.1961    -4.0759    -0.2162 C.ar    
  13 C13            0.2840    -2.7167    -0.4238 C.ar    
  14 C14            3.7646     1.8665    -0.0051 C.2     
  15 N15            4.3064     2.6067    -1.0182 N.pl3   
  16 N16            5.6082     2.9586    -0.6403 N.2     
  17 C17            5.8521     2.4591     0.5451 C.2     
  18 C18            4.7204     1.7709     0.9825 C.2     
  19 C19            3.6736     2.9509    -2.2194 C.ar    
  20 C20            3.8069     4.2341    -2.7332 C.ar    
  21 C21            3.1820     4.5703    -3.9181 C.ar    
  22 C22            2.4242     3.6306    -4.5927 C.ar    
  23 C23            2.2891     2.3521    -4.0833 C.ar    
  24 C24            2.9162     2.0081    -2.9018 C.ar    
  25 O25            1.3246     3.3385    -0.3484 O.2     
  26 C26            0.7013    -6.1081     1.1317 C.2     
  27 N27            1.2163    -6.7522     2.1400 N.2     
  28 S28           -0.1360    -7.2520     0.0857 S.3     
  29 C29            0.3209    -8.5672     1.1665 C.2     
  30 C30            1.0282    -8.0512     2.1773 C.2     
  31 H31           -0.9547     2.0649    -0.2497 H       
  32 H32           -1.0227    -0.3507     0.1376 H       
  33 H33            1.9602    -4.2892     2.6781 H       
  34 H34           -0.3414    -4.6959    -0.9183 H       
  35 H35           -0.1823    -2.2724    -1.2907 H       
  36 H36            6.7755     2.5654     1.0949 H       
  37 H37            4.6147     1.2510     1.9233 H       
  38 H38            4.3984     4.9685    -2.2067 H       
  39 H39            3.2851     5.5682    -4.3181 H       
  40 H40            1.9365     3.8959    -5.5190 H       
  41 H41            1.6962     1.6206    -4.6123 H       
  42 H42            2.8106     1.0093    -2.5047 H       
  43 H43            0.0696    -9.6095     1.0369 H       
  44 H44            1.4220    -8.6651     2.9738 H       
@<TRIPOS>BOND
   1    1    9 1
   2    2    3 2
   3    2    7 1
   4    2   31 1
   5    3    4 1
   6    3   32 1
   7    4    5 1
   8    4    8 1
   9    5    6 2
  10    6    7 1
  11    6   14 1
  12    7   25 2
  13    8    9 ar
  14    8   13 ar
  15    9   10 ar
  16   10   11 ar
  17   10   33 1
  18   11   12 ar
  19   11   26 1
  20   12   13 ar
  21   12   34 1
  22   13   35 1
  23   14   15 1
  24   14   18 2
  25   15   16 1
  26   15   19 1
  27   16   17 2
  28   17   18 1
  29   17   36 1
  30   18   37 1
  31   19   20 ar
  32   19   24 ar
  33   20   21 ar
  34   20   38 1
  35   21   22 ar
  36   21   39 1
  37   22   23 ar
  38   22   40 1
  39   23   24 ar
  40   23   41 1
  41   24   42 1
  42   26   28 1
  43   26   27 2
  44   27   30 1
  45   28   29 1
  46   29   30 2
  47   29   43 1
  48   30   44 1

#	End of record

