#	Name: ASD01811683
#	Creating user name:	WinNT
#	Creation time:	15. 06. 2019 19:27

#	Modifying user name:	WinNT
#	Modification time:	15. 06. 2019 19:27

#	Program:	/corina/corina34_cracker 3.40 0067  02.08.2006

@<TRIPOS>MOLECULE
ASD01811683
  58   62    0    0    0
SMALL
NO_CHARGES


@<TRIPOS>ATOM
   1 C1            -0.0169     1.3936     0.0097 C.ar    
   2 C2             0.0021    -0.0041     0.0020 C.ar    
   3 C3            -1.1995    -0.7167     0.0096 C.ar    
   4 C4            -2.4009    -0.0468     0.0246 C.ar    
   5 C5            -2.4219     1.3514     0.0323 C.ar    
   6 C6            -1.2161     2.0603     0.0305 C.ar    
   7 C7             1.2768     2.1665     0.0015 C.3     
   8 C8            -1.1795    -2.2236     0.0008 C.3     
   9 C9            -1.0352    -2.7323     1.4120 C.ar    
  10 C10           -3.5293     2.3244     0.0481 C.2     
  11 N11           -3.0485     3.5794     0.0503 N.am    
  12 C12           -1.5823     3.5237     0.0402 C.3     
  13 C13           -2.1618    -2.9817     2.1741 C.ar    
  14 C14           -2.0328    -3.4475     3.4679 C.ar    
  15 C15           -0.7704    -3.6658     4.0030 C.ar    
  16 C16            0.3588    -3.4148     3.2353 C.ar    
  17 C17            0.2233    -2.9540     1.9403 C.ar    
  18 N18           -0.6363    -4.1381     5.3161 N.pl3   
  19 C19            0.5279    -4.3916     5.9556 C.2     
  20 C20            0.2271    -4.8301     7.1999 C.2     
  21 C21           -1.1663    -4.8455     7.3261 C.2     
  22 N22           -1.6843    -4.4253     6.2001 N.2     
  23 O23           -4.7096     2.0330     0.0577 O.2     
  24 C24           -3.8556     4.8020     0.0645 C.3     
  25 C25           -4.7261     4.8238     1.3225 C.3     
  26 C26           -5.5690     6.1006     1.3374 C.3     
  27 C27           -6.4642     6.1352     0.0970 C.3     
  28 C28           -5.5936     6.1134    -1.1610 C.3     
  29 C29           -4.7508     4.8366    -1.1758 C.3     
  30 O30           -3.8901     4.7915     2.4809 O.3     
  31 N31            1.1839    -0.6666    -0.0132 N.1     
  32 C32            2.1748    -1.2221    -0.0260 C.1     
  33 H33           -3.3279    -0.6008     0.0301 H       
  34 H34            1.5789     2.3583    -1.0281 H       
  35 H35            1.1372     3.1141     0.5218 H       
  36 H36            2.0500     1.5860     0.5049 H       
  37 H37           -2.1101    -2.5968    -0.4266 H       
  38 H38           -0.3387    -2.5723    -0.5988 H       
  39 H39           -1.1830     4.0045     0.9332 H       
  40 H40           -1.1950     4.0122    -0.8540 H       
  41 H41           -3.1435    -2.8117     1.7573 H       
  42 H42           -2.9130    -3.6415     4.0629 H       
  43 H43            1.3421    -3.5833     3.6490 H       
  44 H44            1.1013    -2.7586     1.3426 H       
  45 H45            1.5197    -4.2670     5.5465 H       
  46 H46            0.9372    -5.1174     7.9613 H       
  47 H47           -1.7191    -5.1477     8.2033 H       
  48 H48           -3.1982     5.6714     0.0625 H       
  49 H49           -5.3836     3.9544     1.3245 H       
  50 H50           -6.1892     6.1162     2.2336 H       
  51 H51           -4.9116     6.9700     1.3353 H       
  52 H52           -7.1216     5.2658     0.0991 H       
  53 H53           -7.0647     7.0449     0.1076 H       
  54 H54           -6.2314     6.1381    -2.0446 H       
  55 H55           -4.9362     6.9828    -1.1630 H       
  56 H56           -4.1306     4.8211    -2.0721 H       
  57 H57           -5.4082     3.9672    -1.1738 H       
  58 H58           -4.3758     4.8030     3.3170 H       
@<TRIPOS>BOND
   1    1    2 ar
   2    1    7 1
   3    1    6 ar
   4    2   31 1
   5    2    3 ar
   6    3    4 ar
   7    3    8 1
   8    4    5 ar
   9    4   33 1
  10    5    6 ar
  11    5   10 1
  12    6   12 1
  13    7   34 1
  14    7   35 1
  15    7   36 1
  16    8    9 1
  17    8   37 1
  18    8   38 1
  19    9   13 ar
  20    9   17 ar
  21   10   11 am
  22   10   23 2
  23   11   12 1
  24   11   24 1
  25   12   39 1
  26   12   40 1
  27   13   14 ar
  28   13   41 1
  29   14   15 ar
  30   14   42 1
  31   15   16 ar
  32   15   18 1
  33   16   17 ar
  34   16   43 1
  35   17   44 1
  36   18   19 1
  37   18   22 1
  38   19   20 2
  39   19   45 1
  40   20   21 1
  41   20   46 1
  42   21   22 2
  43   21   47 1
  44   24   25 1
  45   24   29 1
  46   24   48 1
  47   25   26 1
  48   25   30 1
  49   25   49 1
  50   26   27 1
  51   26   50 1
  52   26   51 1
  53   27   28 1
  54   27   52 1
  55   27   53 1
  56   28   29 1
  57   28   54 1
  58   28   55 1
  59   29   56 1
  60   29   57 1
  61   30   58 1
  62   31   32 3

#	End of record

