#	Name: ASD05730067
#	Creating user name:	WinNT
#	Creation time:	15. 06. 2019 21:02

#	Modifying user name:	WinNT
#	Modification time:	15. 06. 2019 21:02

#	Program:	/corina/corina34_cracker 3.40 0067  02.08.2006

@<TRIPOS>MOLECULE
ASD05730067
  84   89    0    0    0
SMALL
NO_CHARGES


@<TRIPOS>ATOM
   1 N1            -0.0023     1.3948    -0.0018 N.3     
   2 C2             0.0117    -0.0045    -0.0053 C.ar    
   3 C3             0.1164    -0.7009     1.1916 C.ar    
   4 C4             0.1297    -2.0816     1.1881 C.ar    
   5 C5             0.0390    -2.7738    -0.0124 C.ar    
   6 C6            -0.0652    -2.0774    -1.2093 C.ar    
   7 C7            -0.0848    -0.6968    -1.2054 C.ar    
   8 N8             0.0530    -4.1744    -0.0159 N.pl3   
   9 C9            -0.6985    -4.8700    -0.9423 C.ar    
  10 N10           -0.5803    -6.1878    -0.9992 N.ar    
  11 C11           -1.2868    -6.8918    -1.8766 C.ar    
  12 C12           -2.1644    -6.2067    -2.7452 C.ar    
  13 C13           -2.2536    -4.8098    -2.6451 C.ar    
  14 N14           -1.5175    -4.1930    -1.7401 N.ar    
  15 N15           -1.1689    -8.2569    -1.9413 N.am    
  16 C16           -1.8848    -8.9700    -2.8315 C.2     
  17 C17           -2.8059    -8.2960    -3.7495 C.2     
  18 C18           -2.9321    -6.9228    -3.6908 C.2     
  19 C19           -0.2524    -8.9477    -1.0308 C.3     
  20 C20           -0.9962    -9.3257     0.2517 C.3     
  21 O21           -1.7654   -10.1814    -2.8739 O.2     
  22 C22           -3.5929    -9.0788    -4.7288 C.ar    
  23 N23           -4.3730   -10.0670    -4.3077 N.ar    
  24 C24            1.1860     1.9304     0.6693 C.3     
  25 C25           -3.5136    -8.7686    -6.0878 C.ar    
  26 C26           -4.2560    -9.5103    -6.9906 C.ar    
  27 C27           -5.0538   -10.5382    -6.5065 C.ar    
  28 C28           -5.0893   -10.7872    -5.1474 C.ar    
  29 C29            1.1699     3.4675     0.6721 C.3     
  30 N30           -0.0742     3.8926     1.2947 N.3     
  31 C31           -1.2216     3.4285     0.4689 C.3     
  32 C32           -1.2607     1.9096     0.5717 C.3     
  33 Cl33          -2.4993    -7.4714    -6.6373 Cl      
  34 S34           -6.0181   -11.5119    -7.6140 S.o2    
  35 C35           -4.9270   -12.8852    -8.0767 C.3     
  36 C36           -4.5328   -13.6682    -6.8228 C.3     
  37 O37           -7.0990   -11.9799    -6.8190 O.2     
  38 O38           -6.2434   -10.6573    -8.7267 O.2     
  39 C39           -5.6591   -13.8131    -9.0483 C.3     
  40 N40           -0.0772   -10.0184     1.1647 N.3     
  41 C41            0.9837    -9.1148     1.6294 C.3     
  42 C42           -0.8040   -10.6042     2.2989 C.3     
  43 C43           -0.2888     5.3255     1.4868 C.3     
  44 C44           -1.8240     5.5295     1.4675 C.3     
  45 C45           -2.4114     4.1262     1.1500 C.3     
  46 H46            0.1876    -0.1626     2.1252 H       
  47 H47            0.2111    -2.6232     2.1189 H       
  48 H48           -0.1351    -2.6158    -2.1430 H       
  49 H49           -0.1662    -0.1553    -2.1362 H       
  50 H50            0.5906    -4.6557     0.6323 H       
  51 H51           -2.9138    -4.2516    -3.2925 H       
  52 H52           -3.6053    -6.4043    -4.3575 H       
  53 H53            0.1253    -9.8503    -1.5112 H       
  54 H54            0.5816    -8.2898    -0.7866 H       
  55 H55           -1.3739    -8.4231     0.7321 H       
  56 H56           -1.8303    -9.9836     0.0075 H       
  57 H57            1.2090     1.5707     1.6979 H       
  58 H58            2.0784     1.5825     0.1490 H       
  59 H59           -4.2157    -9.2940    -8.0480 H       
  60 H60           -5.7092   -11.5863    -4.7686 H       
  61 H61            2.0176     3.8452     1.2437 H       
  62 H62            1.2175     3.8397    -0.3513 H       
  63 H63           -1.1125     3.7456    -0.5683 H       
  64 H64           -2.1099     1.5220     0.0090 H       
  65 H65           -1.3406     1.6111     1.6170 H       
  66 H66           -4.0307   -12.4915    -8.5559 H       
  67 H67           -5.4292   -14.0620    -6.3435 H       
  68 H68           -3.8772   -14.4934    -7.1008 H       
  69 H69           -4.0113   -13.0072    -6.1306 H       
  70 H70           -5.9399   -13.2553    -9.9417 H       
  71 H71           -5.0034   -14.6383    -9.3264 H       
  72 H72           -6.5554   -14.2068    -8.5691 H       
  73 H73            0.5376    -8.2712     2.1561 H       
  74 H74            1.6499    -9.6530     2.3036 H       
  75 H75            1.5509    -8.7497     0.7731 H       
  76 H76           -1.5365   -11.3218     1.9295 H       
  77 H77           -0.0999   -11.1108     2.9590 H       
  78 H78           -1.3149    -9.8145     2.8499 H       
  79 H79            0.1204     5.6416     2.4464 H       
  80 H80            0.1754     5.8872     0.6761 H       
  81 H81           -2.1727     5.8748     2.4408 H       
  82 H82           -2.1019     6.2413     0.6901 H       
  83 H83           -3.2590     4.2039     0.4691 H       
  84 H84           -2.6954     3.6068     2.0652 H       
@<TRIPOS>BOND
   1    1    2 1
   2    1   24 1
   3    1   32 1
   4    2    3 ar
   5    2    7 ar
   6    3    4 ar
   7    3   46 1
   8    4    5 ar
   9    4   47 1
  10    5    6 ar
  11    5    8 1
  12    6    7 ar
  13    6   48 1
  14    7   49 1
  15    8    9 1
  16    8   50 1
  17    9   10 ar
  18    9   14 ar
  19   10   11 ar
  20   11   12 ar
  21   11   15 1
  22   12   13 ar
  23   12   18 1
  24   13   14 ar
  25   13   51 1
  26   15   16 am
  27   15   19 1
  28   16   17 1
  29   16   21 2
  30   17   18 2
  31   17   22 1
  32   18   52 1
  33   19   20 1
  34   19   53 1
  35   19   54 1
  36   20   40 1
  37   20   55 1
  38   20   56 1
  39   22   25 ar
  40   22   23 ar
  41   23   28 ar
  42   24   29 1
  43   24   57 1
  44   24   58 1
  45   25   26 ar
  46   25   33 1
  47   26   27 ar
  48   26   59 1
  49   27   28 ar
  50   27   34 1
  51   28   60 1
  52   29   30 1
  53   29   61 1
  54   29   62 1
  55   30   31 1
  56   30   43 1
  57   31   32 1
  58   31   45 1
  59   31   63 1
  60   32   64 1
  61   32   65 1
  62   34   35 1
  63   34   37 2
  64   34   38 2
  65   35   36 1
  66   35   39 1
  67   35   66 1
  68   36   67 1
  69   36   68 1
  70   36   69 1
  71   39   70 1
  72   39   71 1
  73   39   72 1
  74   40   41 1
  75   40   42 1
  76   41   73 1
  77   41   74 1
  78   41   75 1
  79   42   76 1
  80   42   77 1
  81   42   78 1
  82   43   44 1
  83   43   79 1
  84   43   80 1
  85   44   45 1
  86   44   81 1
  87   44   82 1
  88   45   83 1
  89   45   84 1

#	End of record

