#	Name: ASD01948160
#	Creating user name:	WinNT
#	Creation time:	15. 06. 2019 20:13

#	Modifying user name:	WinNT
#	Modification time:	15. 06. 2019 20:13

#	Program:	/corina/corina34_cracker 3.40 0067  02.08.2006

@<TRIPOS>MOLECULE
ASD01948160
  43   45    0    0    0
SMALL
NO_CHARGES


@<TRIPOS>ATOM
   1 C1             1.8007     1.4195    -1.0460 C.ar    
   2 C2             1.5991     0.0464    -1.1431 C.ar    
   3 C3             1.7731    -0.5929    -2.3628 C.ar    
   4 C4             2.1458     0.1351    -3.4766 C.ar    
   5 C5             2.3462     1.5001    -3.3779 C.ar    
   6 C6             2.1678     2.1430    -2.1653 C.ar    
   7 N7             1.2223    -0.6886    -0.0137 N.pl3   
   8 C8             3.6319    -2.2841    -0.4396 C.2     
   9 C9             2.3522    -2.8744    -0.2912 C.2     
  10 C10            1.1519    -2.0679    -0.0784 C.2     
  11 N11            4.6887    -3.1046    -0.6383 N.am    
  12 F12            1.6325     2.0458     0.1392 F       
  13 C13            2.2387    -4.2704    -0.3502 C.2     
  14 N14            1.0124    -4.8568    -0.2086 N.am    
  15 C15           -0.0974    -4.1253    -0.0126 C.2     
  16 C16           -0.0590    -2.7285     0.0570 C.2     
  17 C17            4.5121    -4.4459    -0.6910 C.2     
  18 N18            3.3422    -5.0057    -0.5451 N.2     
  19 O19            3.7751    -1.0749    -0.3948 O.2     
  20 C20            0.9054    -6.3165    -0.2725 C.3     
  21 O21           -1.1698    -4.6957     0.1077 O.2     
  22 Br22           2.8566     2.4915    -4.9052 Br      
  23 C23            6.0309    -2.5393    -0.7971 C.3     
  24 C24            6.7018    -2.4254     0.5733 C.3     
  25 C25            8.1035    -1.8350     0.4074 C.3     
  26 O26            5.9227    -1.5736     1.4156 O.3     
  27 O27            8.7734    -1.8364     1.6697 O.3     
  28 F28           -1.1965    -2.0272     0.2558 F       
  29 H29            1.6177    -1.6588    -2.4412 H       
  30 H30            2.2811    -0.3625    -4.4255 H       
  31 H31            2.3250     3.2089    -2.0913 H       
  32 H32            1.0105    -0.2305     0.8146 H       
  33 H33            5.3735    -5.0773    -0.8511 H       
  34 H34            1.0225    -6.7335     0.7278 H       
  35 H35           -0.0718    -6.5921    -0.6690 H       
  36 H36            1.6859    -6.7098    -0.9238 H       
  37 H37            6.6251    -3.1891    -1.4396 H       
  38 H38            5.9574    -1.5502    -1.2490 H       
  39 H39            6.7753    -3.4146     1.0252 H       
  40 H40            8.6690    -2.4361    -0.3047 H       
  41 H41            8.0257    -0.8123     0.0385 H       
  42 H42            5.8154    -0.6750     1.0749 H       
  43 H43            9.6698    -1.4749     1.6396 H       
@<TRIPOS>BOND
   1    1    2 ar
   2    1   12 1
   3    1    6 ar
   4    2    3 ar
   5    2    7 1
   6    3    4 ar
   7    3   29 1
   8    4    5 ar
   9    4   30 1
  10    5    6 ar
  11    5   22 1
  12    6   31 1
  13    7   10 1
  14    7   32 1
  15    8    9 1
  16    8   19 2
  17    8   11 am
  18    9   10 1
  19    9   13 2
  20   10   16 2
  21   11   17 1
  22   11   23 1
  23   13   14 1
  24   13   18 1
  25   14   15 am
  26   14   20 1
  27   15   16 1
  28   15   21 2
  29   16   28 1
  30   17   18 2
  31   17   33 1
  32   20   34 1
  33   20   35 1
  34   20   36 1
  35   23   24 1
  36   23   37 1
  37   23   38 1
  38   24   25 1
  39   24   26 1
  40   24   39 1
  41   25   27 1
  42   25   40 1
  43   25   41 1
  44   26   42 1
  45   27   43 1

#	End of record

