#	Name: ASD01510060
#	Creating user name:	WinNT
#	Creation time:	15. 06. 2019 19:21

#	Modifying user name:	WinNT
#	Modification time:	15. 06. 2019 19:21

#	Program:	/corina/corina34_cracker 3.40 0067  02.08.2006

@<TRIPOS>MOLECULE
ASD01510060
  35   36    0    0    0
SMALL
NO_CHARGES


@<TRIPOS>ATOM
   1 C1            -0.0173     1.4248     0.0099 C.3     
   2 O2             0.0021    -0.0041     0.0020 O.3     
   3 C3             0.6241    -0.6167     1.0387 C.ar    
   4 C4             0.6852    -2.0042     1.1027 C.ar    
   5 C5             1.3334    -2.5896     2.1844 C.ar    
   6 O6             1.4169    -3.9385     2.2867 O.3     
   7 C7             2.0992    -4.4616     3.4282 C.3     
   8 N8             1.8704    -1.8093     3.1167 N.ar    
   9 C9             1.7933    -0.4903     3.0237 C.ar    
  10 N10            1.1884     0.1011     2.0044 N.ar    
  11 N11            2.3639     0.2900     4.0139 N.3     
  12 C12            2.1741     1.7198     3.7327 C.3     
  13 C13            2.7476     2.5447     4.8873 C.3     
  14 N14            4.1733     2.2279     5.0513 N.3     
  15 C15            4.3631     0.7981     5.3325 C.3     
  16 C16            3.7896    -0.0268     4.1779 C.3     
  17 C17            4.7790     3.0562     6.1025 C.3     
  18 H18            1.0053     1.8021     0.0021 H       
  19 H19           -0.5445     1.7859    -0.8732 H       
  20 H20           -0.5275     1.7763     0.9067 H       
  21 H21            0.2392    -2.6131     0.3302 H       
  22 H22            3.1286    -4.1032     3.4319 H       
  23 H23            1.5957    -4.1296     4.3361 H       
  24 H24            2.0938    -5.5508     3.3871 H       
  25 H25            2.6898     1.9803     2.8084 H       
  26 H26            1.1100     1.9317     3.6279 H       
  27 H27            2.6339     3.6062     4.6675 H       
  28 H28            2.2136     2.3041     5.8065 H       
  29 H29            5.4272     0.5862     5.4373 H       
  30 H30            3.8474     0.5376     6.2568 H       
  31 H31            3.9033    -1.0883     4.3977 H       
  32 H32            4.3236     0.2138     3.2587 H       
  33 H33            4.2692     2.8730     7.0483 H       
  34 H34            5.8340     2.8013     6.2030 H       
  35 H35            4.6833     4.1088     5.8360 H       
@<TRIPOS>BOND
   1    1    2 1
   2    1   18 1
   3    1   19 1
   4    1   20 1
   5    2    3 1
   6    3    4 ar
   7    3   10 ar
   8    4    5 ar
   9    4   21 1
  10    5    6 1
  11    5    8 ar
  12    6    7 1
  13    7   22 1
  14    7   23 1
  15    7   24 1
  16    8    9 ar
  17    9   10 ar
  18    9   11 1
  19   11   12 1
  20   11   16 1
  21   12   13 1
  22   12   25 1
  23   12   26 1
  24   13   14 1
  25   13   27 1
  26   13   28 1
  27   14   15 1
  28   14   17 1
  29   15   16 1
  30   15   29 1
  31   15   30 1
  32   16   31 1
  33   16   32 1
  34   17   33 1
  35   17   34 1
  36   17   35 1

#	End of record

