#	Name: ASD06020155
#	Creating user name:	WinNT
#	Creation time:	15. 06. 2019 21:04

#	Modifying user name:	WinNT
#	Modification time:	15. 06. 2019 21:04

#	Program:	/corina/corina34_cracker 3.40 0067  02.08.2006

@<TRIPOS>MOLECULE
ASD06020155
  24   24    0    0    0
SMALL
NO_CHARGES


@<TRIPOS>ATOM
   1 C1            -0.0180     1.4728     0.0101 C.2     
   2 C2             0.0021    -0.0041     0.0020 C.ar    
   3 C3             0.0231    -0.7103     1.2085 C.ar    
   4 C4             0.0419    -2.0890     1.1999 C.ar    
   5 C5             0.0398    -2.7809    -0.0127 C.ar    
   6 C6             0.0595    -4.2604    -0.0194 C.2     
   7 C7             0.0189    -2.0789    -1.2179 C.ar    
   8 C8            -0.0058    -0.6975    -1.2125 C.ar    
   9 O9             1.0256     2.0944     0.0035 O.2     
  10 O10           -1.1936     2.1305     0.0193 O.3     
  11 O11            0.0773    -4.8722     1.0294 O.2     
  12 O12            0.0575    -4.9285    -1.1889 O.3     
  13 F13           -0.0317    -0.0172    -2.3794 F       
  14 Cl14           0.0262     0.1486     2.7171 Cl      
  15 C15           -1.1373     3.5814     0.0269 C.3     
  16 C16            0.0775    -6.3788    -1.1195 C.3     
  17 H17            0.0585    -2.6341     2.1321 H       
  18 H18            0.0177    -2.6153    -2.1553 H       
  19 H19           -0.6056     3.9197     0.9162 H       
  20 H20           -0.6140     3.9294    -0.8637 H       
  21 H21           -2.1501     3.9843     0.0339 H       
  22 H22            0.9768    -6.7052    -0.5972 H       
  23 H23           -0.8030    -6.7289    -0.5807 H       
  24 H24            0.0736    -6.7909    -2.1286 H       
@<TRIPOS>BOND
   1    1    2 1
   2    1    9 2
   3    1   10 1
   4    2    3 ar
   5    2    8 ar
   6    3    4 ar
   7    3   14 1
   8    4    5 ar
   9    4   17 1
  10    5    6 1
  11    5    7 ar
  12    6   11 2
  13    6   12 1
  14    7    8 ar
  15    7   18 1
  16    8   13 1
  17   10   15 1
  18   12   16 1
  19   15   19 1
  20   15   20 1
  21   15   21 1
  22   16   22 1
  23   16   23 1
  24   16   24 1

#	End of record

