#	Name: ASD01911313
#	Creating user name:	WinNT
#	Creation time:	15. 06. 2019 19:57

#	Modifying user name:	WinNT
#	Modification time:	15. 06. 2019 19:57

#	Program:	/corina/corina34_cracker 3.40 0067  02.08.2006

@<TRIPOS>MOLECULE
ASD01911313
  32   34    0    0    0
SMALL
NO_CHARGES


@<TRIPOS>ATOM
   1 C1            -0.0167     1.3796     0.0096 C.ar    
   2 C2             0.0021    -0.0041     0.0020 C.ar    
   3 C3             1.2058    -0.6865    -0.0131 C.ar    
   4 C4             2.3967     0.0091    -0.0203 C.ar    
   5 C5             2.3857     1.4065    -0.0127 C.ar    
   6 C6             1.1662     2.0887     0.0021 C.ar    
   7 C7             3.6181     2.1358    -0.0195 C.1     
   8 C8             4.6284     2.7337    -0.0252 C.1     
   9 C9             5.8608     3.4629    -0.0321 C.ar    
  10 C10            5.8627     4.8593    -0.0246 C.ar    
  11 N11            6.9912     5.5333    -0.0341 N.ar    
  12 C12            8.1786     4.9298    -0.0518 C.ar    
  13 C13            8.2467     3.5378    -0.0530 C.ar    
  14 C14            7.0925     2.7888    -0.0407 C.ar    
  15 N15            9.4557     5.4876    -0.0797 N.3     
  16 C16           10.4178     4.4515     0.3534 C.3     
  17 C17            9.7082     3.1395    -0.0541 C.3     
  18 C18            9.5320     6.6718     0.7863 C.3     
  19 H19           -0.9600     1.9055     0.0169 H       
  20 H20           -0.9274    -0.5541     0.0083 H       
  21 H21            1.2128    -1.7664    -0.0190 H       
  22 H22            3.3354    -0.5248    -0.0314 H       
  23 H23            1.1500     3.1686     0.0077 H       
  24 H24            4.9239     5.3930    -0.0111 H       
  25 H25            7.1328     1.7096    -0.0465 H       
  26 H26           11.3653     4.5588    -0.1747 H       
  27 H27           10.5686     4.4906     1.4322 H       
  28 H28            9.8955     2.3550     0.6791 H       
  29 H29           10.0219     2.8233    -1.0489 H       
  30 H30            9.2949     6.3880     1.8116 H       
  31 H31           10.5395     7.0859     0.7476 H       
  32 H32            8.8181     7.4202     0.4422 H       
@<TRIPOS>BOND
   1    1    2 ar
   2    1    6 ar
   3    1   19 1
   4    2    3 ar
   5    2   20 1
   6    3    4 ar
   7    3   21 1
   8    4    5 ar
   9    4   22 1
  10    5    6 ar
  11    5    7 1
  12    6   23 1
  13    7    8 3
  14    8    9 1
  15    9   10 ar
  16    9   14 ar
  17   10   11 ar
  18   10   24 1
  19   11   12 ar
  20   12   13 ar
  21   12   15 1
  22   13   14 ar
  23   13   17 1
  24   14   25 1
  25   15   16 1
  26   15   18 1
  27   16   17 1
  28   16   26 1
  29   16   27 1
  30   17   28 1
  31   17   29 1
  32   18   30 1
  33   18   31 1
  34   18   32 1

#	End of record

