#	Name: ASD08170194
#	Creating user name:	WinNT
#	Creation time:	15. 06. 2019 21:17

#	Modifying user name:	WinNT
#	Modification time:	15. 06. 2019 21:17

#	Program:	/corina/corina34_cracker 3.40 0067  02.08.2006

@<TRIPOS>MOLECULE
ASD08170194
  90   91    0    0    0
SMALL
NO_CHARGES


@<TRIPOS>ATOM
   1 N1             0.0368     1.2675     0.1033 N.2     
   2 N2             0.0585     0.0059     0.1460 N.2     
   3 C3             1.1581     1.8965     0.2877 C.2     
   4 S4             2.3981     0.7436     0.5483 S.3     
   5 C5             1.2081    -0.5465     0.3718 C.2     
   6 C6             1.4801    -2.0257     0.4666 C.3     
   7 C7             1.8298    -2.5699    -0.9199 C.3     
   8 C8             2.1059    -4.0717    -0.8237 C.3     
   9 C9             2.4556    -4.6158    -2.2102 C.3     
  10 C10            2.7276    -6.0951    -2.1154 C.2     
  11 N11            1.8539    -7.0424    -2.2455 N.2     
  12 S12            4.2944    -6.8477    -1.8149 S.3     
  13 C13            3.5488    -8.3878    -1.8978 C.2     
  14 N14            2.2815    -8.2247    -2.1314 N.2     
  15 N15            4.1943    -9.6102    -1.7452 N.am    
  16 C16            3.4933   -10.7579    -1.8326 C.2     
  17 O17            2.2996   -10.7248    -2.0445 O.2     
  18 C18            4.1927   -12.0825    -1.6672 C.3     
  19 N19            1.3247     3.2772     0.2751 N.am    
  20 C20            0.2654     4.0818     0.0581 C.2     
  21 O21           -0.8154     3.6020    -0.2115 O.2     
  22 C22            0.4240     5.5776     0.1503 C.3     
  23 C23            0.9091     6.1229    -1.1944 C.3     
  24 C24            4.8387   -12.1486    -0.2818 C.3     
  25 C25            2.2999     5.5634    -1.4999 C.3     
  26 C26           -0.0640     5.7006    -2.2970 C.3     
  27 C27            3.7479   -12.1301     0.7909 C.3     
  28 C28            5.6524   -13.4385    -0.1596 C.3     
  29 N29           -0.8657     6.1855     0.4872 N.am    
  30 C30           -0.9054     7.3828     1.1048 C.2     
  31 O31           -2.0907     7.9415     1.4145 O.3     
  32 O32            0.1283     7.9580     1.3822 O.2     
  33 C33           -2.0575     9.2321     2.0789 C.3     
  34 C34           -1.3453    10.2483     1.1839 C.3     
  35 C35           -3.4878     9.7039     2.3482 C.3     
  36 C36           -1.3045     9.1041     3.4046 C.3     
  37 N37            3.2197   -13.1690    -1.8047 N.am    
  38 C38            3.6270   -14.3930    -2.1952 C.2     
  39 O39            2.7328   -15.3916    -2.3215 O.3     
  40 O40            4.8012   -14.5953    -2.4332 O.2     
  41 C41            3.2425   -16.6831    -2.7461 C.3     
  42 C42            4.2753   -17.1818    -1.7333 C.3     
  43 C43            2.0882   -17.6837    -2.8322 C.3     
  44 C44            3.9011   -16.5448    -4.1201 C.3     
  45 H45            2.3147    -2.1989     1.1460 H       
  46 H46            0.5930    -2.5348     0.8436 H       
  47 H47            0.9952    -2.3968    -1.5993 H       
  48 H48            2.7168    -2.0608    -1.2969 H       
  49 H49            2.9405    -4.2448    -0.1443 H       
  50 H50            1.2189    -4.5808    -0.4467 H       
  51 H51            1.6210    -4.4427    -2.8896 H       
  52 H52            3.3427    -4.1068    -2.5872 H       
  53 H53            5.1490    -9.6367    -1.5757 H       
  54 H54            4.9623   -12.1850    -2.4322 H       
  55 H55            2.2032     3.6611     0.4226 H       
  56 H56            1.1526     5.8187     0.9243 H       
  57 H57            0.9570     7.2109    -1.1493 H       
  58 H58            5.4963   -11.2900    -0.1462 H       
  59 H59            2.2337     4.4853    -1.6466 H       
  60 H60            2.6886     6.0301    -2.4050 H       
  61 H61            2.9684     5.7761    -0.6656 H       
  62 H62           -1.0549     6.0992    -2.0794 H       
  63 H63            0.2816     6.0890    -3.2550 H       
  64 H64           -0.1119     4.6126    -2.3421 H       
  65 H65            3.0903   -12.9887     0.6553 H       
  66 H66            4.2081   -12.1772     1.7779 H       
  67 H67            3.1682   -11.2111     0.7038 H       
  68 H68            4.9948   -14.2972    -0.2952 H       
  69 H69            6.4295   -13.4517    -0.9238 H       
  70 H70            6.1126   -13.4856     0.8274 H       
  71 H71           -1.6909     5.7263     0.2658 H       
  72 H72           -1.8818    10.3395     0.2394 H       
  73 H73           -1.3204    11.2172     1.6826 H       
  74 H74           -0.3264     9.9122     0.9919 H       
  75 H75           -3.9952     8.9800     2.9859 H       
  76 H76           -3.4629    10.6728     2.8470 H       
  77 H77           -4.0243     9.7951     1.4038 H       
  78 H78           -0.2855     8.7680     3.2126 H       
  79 H79           -1.2796    10.0730     3.9033 H       
  80 H80           -1.8119     8.3802     4.0422 H       
  81 H81            2.2823   -13.0076    -1.6146 H       
  82 H82            3.8060   -17.2803    -0.7545 H       
  83 H83            4.6579   -18.1514    -2.0521 H       
  84 H84            5.0976   -16.4690    -1.6720 H       
  85 H85            1.3525   -17.3285    -3.5537 H       
  86 H86            2.4709   -18.6533    -3.1509 H       
  87 H87            1.6190   -17.7823    -1.8533 H       
  88 H88            4.7235   -15.8320    -4.0588 H       
  89 H89            4.2838   -17.5144    -4.4389 H       
  90 H90            3.1654   -16.1896    -4.8416 H       
@<TRIPOS>BOND
   1    1    2 1
   2    1    3 2
   3    2    5 2
   4    3    4 1
   5    3   19 1
   6    4    5 1
   7    5    6 1
   8    6    7 1
   9    6   45 1
  10    6   46 1
  11    7    8 1
  12    7   47 1
  13    7   48 1
  14    8    9 1
  15    8   49 1
  16    8   50 1
  17    9   10 1
  18    9   51 1
  19    9   52 1
  20   10   11 2
  21   10   12 1
  22   11   14 1
  23   12   13 1
  24   13   14 2
  25   13   15 1
  26   15   16 am
  27   15   53 1
  28   16   17 2
  29   16   18 1
  30   18   24 1
  31   18   37 1
  32   18   54 1
  33   19   20 am
  34   19   55 1
  35   20   21 2
  36   20   22 1
  37   22   23 1
  38   22   29 1
  39   22   56 1
  40   23   25 1
  41   23   26 1
  42   23   57 1
  43   24   27 1
  44   24   28 1
  45   24   58 1
  46   25   59 1
  47   25   60 1
  48   25   61 1
  49   26   62 1
  50   26   63 1
  51   26   64 1
  52   27   65 1
  53   27   66 1
  54   27   67 1
  55   28   68 1
  56   28   69 1
  57   28   70 1
  58   29   30 am
  59   29   71 1
  60   30   31 1
  61   30   32 2
  62   31   33 1
  63   33   34 1
  64   33   35 1
  65   33   36 1
  66   34   72 1
  67   34   73 1
  68   34   74 1
  69   35   75 1
  70   35   76 1
  71   35   77 1
  72   36   78 1
  73   36   79 1
  74   36   80 1
  75   37   38 am
  76   37   81 1
  77   38   39 1
  78   38   40 2
  79   39   41 1
  80   41   42 1
  81   41   43 1
  82   41   44 1
  83   42   82 1
  84   42   83 1
  85   42   84 1
  86   43   85 1
  87   43   86 1
  88   43   87 1
  89   44   88 1
  90   44   89 1
  91   44   90 1

#	End of record

