#	Name: ASD06170084
#	Creating user name:	WinNT
#	Creation time:	15. 06. 2019 21:05

#	Modifying user name:	WinNT
#	Modification time:	15. 06. 2019 21:05

#	Program:	/corina/corina34_cracker 3.40 0067  02.08.2006

@<TRIPOS>MOLECULE
ASD06170084
  66   70    0    0    0
SMALL
NO_CHARGES


@<TRIPOS>ATOM
   1 N1             0.0287    -1.9533     0.7854 N.pl3   
   2 N2             0.1856    -0.7193     0.1475 N.am    
   3 C3             1.5029    -0.4991    -0.0439 C.2     
   4 C4             2.2067    -1.6673     0.5087 C.2     
   5 C5             1.2335    -2.5157     0.9993 C.2     
   6 C6             3.6577    -1.8878     0.5332 C.2     
   7 O7             4.1103    -2.9053     1.0237 O.2     
   8 N8             4.4887    -0.9633     0.0124 N.am    
   9 C9            -0.8495     0.1423    -0.2298 C.ar    
  10 C10           -0.7102     1.5137    -0.0601 C.ar    
  11 C11           -1.7342     2.3618    -0.4337 C.ar    
  12 C12           -2.8975     1.8468    -0.9756 C.ar    
  13 C13           -3.0395     0.4818    -1.1458 C.ar    
  14 C14           -2.0167    -0.3712    -0.7801 C.ar    
  15 O15            2.0095     0.4741    -0.5704 O.2     
  16 C16            1.4786    -3.8464     1.6628 C.3     
  17 C17           -1.2555    -2.5442     1.1699 C.3     
  18 C18            5.8749    -1.1198     0.1345 C.ar    
  19 C19            6.4385    -2.3878     0.0763 C.ar    
  20 C20            7.8069    -2.5412     0.1965 C.ar    
  21 C21            8.6175    -1.4266     0.3754 C.ar    
  22 C22            8.0537    -0.1612     0.4333 C.ar    
  23 C23            6.6866    -0.0069     0.3080 C.ar    
  24 F24            8.3562    -3.7743     0.1404 F       
  25 O25            9.9639    -1.5771     0.4941 O.3     
  26 N26           12.1711    -1.8694    -2.9775 N.ar    
  27 C27           10.8604    -1.8242    -3.0304 C.ar    
  28 C28           10.0842    -1.7268    -1.8828 C.ar    
  29 C29           10.6961    -1.6736    -0.6425 C.ar    
  30 C30           12.1080    -1.7225    -0.5975 C.ar    
  31 C31           12.7989    -1.6739     0.6221 C.ar    
  32 C32           14.1589    -1.7236     0.6326 C.ar    
  33 C33           14.8800    -1.8228    -0.5608 C.ar    
  34 C34           14.2310    -1.8720    -1.7737 C.ar    
  35 C35           12.8285    -1.8230    -1.8127 C.ar    
  36 O36           16.2370    -1.8707    -0.5231 O.3     
  37 C37           16.9176    -1.9720    -1.7755 C.3     
  38 C38           14.8959    -1.6705     1.9460 C.3     
  39 C39           15.3079    -0.2270     2.2416 C.3     
  40 H40            4.1266    -0.1895    -0.4470 H       
  41 H41            0.1978     1.9165     0.3637 H       
  42 H42           -1.6265     3.4283    -0.3020 H       
  43 H43           -3.6972     2.5120    -1.2663 H       
  44 H44           -3.9494     0.0827    -1.5691 H       
  45 H45           -2.1262    -1.4368    -0.9177 H       
  46 H46            1.4825    -4.6332     0.9084 H       
  47 H47            2.4422    -3.8265     2.1720 H       
  48 H48            0.6885    -4.0420     2.3877 H       
  49 H49           -1.6757    -3.0839     0.3212 H       
  50 H50           -1.1041    -3.2340     2.0002 H       
  51 H51           -1.9423    -1.7544     1.4743 H       
  52 H52            5.8079    -3.2535    -0.0624 H       
  53 H53            8.6841     0.7046     0.5727 H       
  54 H54            6.2487     0.9795     0.3492 H       
  55 H55           10.3721    -1.8646    -3.9928 H       
  56 H56            9.0074    -1.6908    -1.9580 H       
  57 H57           12.2529    -1.5969     1.5507 H       
  58 H58           14.7975    -1.9480    -2.6901 H       
  59 H59           16.6065    -2.8837    -2.2854 H       
  60 H60           16.6721    -1.1082    -2.3933 H       
  61 H61           17.9935    -2.0013    -1.6030 H       
  62 H62           14.2460    -2.0332     2.7423 H       
  63 H63           15.7855    -2.2978     1.8890 H       
  64 H64           15.9579     0.1357     1.4453 H       
  65 H65           14.4184     0.4003     2.2986 H       
  66 H66           15.8410    -0.1886     3.1916 H       
@<TRIPOS>BOND
   1    1    2 1
   2    1    5 1
   3    1   17 1
   4    2    3 am
   5    2    9 1
   6    3    4 1
   7    3   15 2
   8    4    5 2
   9    4    6 1
  10    5   16 1
  11    6    7 2
  12    6    8 am
  13    8   18 1
  14    8   40 1
  15    9   10 ar
  16    9   14 ar
  17   10   11 ar
  18   10   41 1
  19   11   12 ar
  20   11   42 1
  21   12   13 ar
  22   12   43 1
  23   13   14 ar
  24   13   44 1
  25   14   45 1
  26   16   46 1
  27   16   47 1
  28   16   48 1
  29   17   49 1
  30   17   50 1
  31   17   51 1
  32   18   19 ar
  33   18   23 ar
  34   19   20 ar
  35   19   52 1
  36   20   21 ar
  37   20   24 1
  38   21   22 ar
  39   21   25 1
  40   22   23 ar
  41   22   53 1
  42   23   54 1
  43   25   29 1
  44   26   27 ar
  45   26   35 ar
  46   27   28 ar
  47   27   55 1
  48   28   29 ar
  49   28   56 1
  50   29   30 ar
  51   30   31 ar
  52   30   35 ar
  53   31   32 ar
  54   31   57 1
  55   32   33 ar
  56   32   38 1
  57   33   34 ar
  58   33   36 1
  59   34   35 ar
  60   34   58 1
  61   36   37 1
  62   37   59 1
  63   37   60 1
  64   37   61 1
  65   38   39 1
  66   38   62 1
  67   38   63 1
  68   39   64 1
  69   39   65 1
  70   39   66 1

#	End of record

