#	Name: ASD01478111
#	Creating user name:	WinNT
#	Creation time:	15. 06. 2019 19:21

#	Modifying user name:	WinNT
#	Modification time:	15. 06. 2019 19:21

#	Program:	/corina/corina34_cracker 3.40 0067  02.08.2006

@<TRIPOS>MOLECULE
ASD01478111
  32   34    0    0    0
SMALL
NO_CHARGES


@<TRIPOS>ATOM
   1 C1            -0.0161     1.3389     0.0094 C.2     
   2 O2             0.0021    -0.0041     0.0020 O.3     
   3 O3             1.0274     1.9605     0.0028 O.2     
   4 O4            -1.1907     1.9960     0.0185 O.3     
   5 C5             1.7553    -0.8683     1.1065 C.2     
   6 O6             1.3612    -0.6754     2.2370 O.2     
   7 C7             3.0688    -1.5217     0.7358 C.3     
   8 C8             3.0553    -1.5109    -0.8064 C.3     
   9 C9             1.7356    -0.8526    -1.1450 C.2     
  10 O10            1.3219    -0.6438    -2.2656 O.2     
  11 N11            1.0947    -0.5422    -0.0113 N.am    
  12 C12           -1.8091     5.4457    -1.2004 C.3     
  13 C13           -2.4968     5.4651     0.1867 C.3     
  14 C14           -2.3627     4.0399     0.7592 C.3     
  15 C15           -1.1344     3.4469     0.0262 C.3     
  16 C16           -1.2883     4.0096    -1.4082 C.3     
  17 C17           -1.0383     7.2162     0.0212 C.3     
  18 O18           -0.6813     6.3344    -1.0648 O.3     
  19 O19           -1.6962     6.3631     0.9823 O.3     
  20 H20            3.9079    -0.9392     1.1162 H       
  21 H21            3.1083    -2.5440     1.1119 H       
  22 H22            3.8877    -0.9230    -1.1932 H       
  23 H23            3.0881    -2.5278    -1.1975 H       
  24 H24           -2.4891     5.7496    -1.9962 H       
  25 H25           -3.5385     5.7791     0.1205 H       
  26 H26           -2.1842     4.0762     1.8339 H       
  27 H27           -3.2562     3.4555     0.5398 H       
  28 H28           -0.2074     3.7962     0.4808 H       
  29 H29           -2.0105     3.4204    -1.9733 H       
  30 H30           -0.3247     4.0237    -1.9175 H       
  31 H31           -0.1448     7.6622     0.4579 H       
  32 H32           -1.7198     7.9921    -0.3276 H       
@<TRIPOS>BOND
   1    1    2 1
   2    1    3 2
   3    1    4 1
   4    2   11 1
   5    4   15 1
   6    5    6 2
   7    5    7 1
   8    5   11 am
   9    7    8 1
  10    7   20 1
  11    7   21 1
  12    8    9 1
  13    8   22 1
  14    8   23 1
  15    9   10 2
  16    9   11 am
  17   12   13 1
  18   12   16 1
  19   12   18 1
  20   12   24 1
  21   13   14 1
  22   13   19 1
  23   13   25 1
  24   14   15 1
  25   14   26 1
  26   14   27 1
  27   15   16 1
  28   15   28 1
  29   16   29 1
  30   16   30 1
  31   17   18 1
  32   17   19 1
  33   17   31 1
  34   17   32 1

#	End of record

