#	Name: ASD09890092
#	Creating user name:	WinNT
#	Creation time:	15. 06. 2019 21:24

#	Modifying user name:	WinNT
#	Modification time:	15. 06. 2019 21:24

#	Program:	/corina/corina34_cracker 3.40 0067  02.08.2006

@<TRIPOS>MOLECULE
ASD09890092
  60   64    0    0    0
SMALL
NO_CHARGES


@<TRIPOS>ATOM
   1 C1            -0.0176     1.3672     0.0649 C.2     
   2 N2            -0.0056    -0.0001     0.0347 N.pl3   
   3 C3            -1.2997    -0.4350     0.1194 C.2     
   4 N4            -2.0758     0.6195     0.1984 N.2     
   5 N5            -1.2619     1.7594     0.1690 N.2     
   6 S6            -1.8305    -2.1151     0.1215 S.3     
   7 C7            -3.6339    -1.9731     0.2559 C.3     
   8 C8             1.1331    -0.8131    -0.0662 C.ar    
   9 C9             2.0791    -0.8330     0.9545 C.ar    
  10 C10            3.1872    -1.6522     0.8091 C.ar    
  11 C11            3.3160    -2.4166    -0.3352 C.ar    
  12 N12            2.4012    -2.3749    -1.2843 N.ar    
  13 C13            1.3299    -1.6139    -1.1830 C.ar    
  14 C14           -4.2818    -3.3645     0.1464 C.3     
  15 C15           -5.0372    -3.6043     1.4699 C.3     
  16 C16           -5.3134    -2.1802     2.0130 C.3     
  17 C17           -4.0183    -1.4159     1.6421 C.3     
  18 O18            1.0701     2.1752     0.0035 O.3     
  19 C19            0.8651     3.5144    -0.0918 C.ar    
  20 C20           -0.4195     4.0069    -0.2839 C.ar    
  21 C21           -0.6308     5.3656    -0.3811 C.ar    
  22 C22            0.4467     6.2461    -0.2859 C.ar    
  23 C23            1.7353     5.7485    -0.0926 C.ar    
  24 C24            1.9396     4.3890     0.0086 C.ar    
  25 C25            0.2230     7.7074    -0.3905 C.ar    
  26 C26            1.3025     8.5866    -0.2950 C.ar    
  27 C27            1.0958     9.9438    -0.3920 C.ar    
  28 C28           -0.1954    10.4413    -0.5865 C.ar    
  29 C29           -1.2756     9.5600    -0.6825 C.ar    
  30 C30           -1.0662     8.2029    -0.5901 C.ar    
  31 C31           -0.4184    11.8974    -0.6902 C.2     
  32 O32            0.5216    12.6638    -0.6063 O.2     
  33 N33           -1.6640    12.3768    -0.8779 N.am    
  34 O34           -1.8778    13.7730    -0.9773 O.3     
  35 C35           -3.2449    14.1390    -1.1751 C.3     
  36 H36           -4.0163    -1.3204    -0.5289 H       
  37 H37            1.9528    -0.2247     1.8378 H       
  38 H38            3.9416    -1.6926     1.5809 H       
  39 H39            4.1779    -3.0566    -0.4540 H       
  40 H40            0.6022    -1.6065    -1.9810 H       
  41 H41           -4.9792    -3.3868    -0.6910 H       
  42 H42           -3.5126    -4.1251     0.0125 H       
  43 H43           -5.9738    -4.1302     1.2847 H       
  44 H44           -4.4155    -4.1648     2.1679 H       
  45 H45           -6.1779    -1.7386     1.5173 H       
  46 H46           -5.4545    -2.1995     3.0936 H       
  47 H47           -3.2319    -1.6230     2.3679 H       
  48 H48           -4.2112    -0.3447     1.5825 H       
  49 H49           -1.2534     3.3247    -0.3575 H       
  50 H50           -1.6297     5.7479    -0.5311 H       
  51 H51            2.5717     6.4277    -0.0189 H       
  52 H52            2.9371     4.0030     0.1582 H       
  53 H53            2.3004     8.2019    -0.1447 H       
  54 H54            1.9313    10.6242    -0.3174 H       
  55 H55           -2.2740     9.9435    -0.8325 H       
  56 H56           -1.9009     7.5216    -0.6642 H       
  57 H57           -2.4140    11.7653    -0.9448 H       
  58 H58           -3.6110    13.6910    -2.0988 H       
  59 H59           -3.8418    13.7812    -0.3362 H       
  60 H60           -3.3246    15.2241    -1.2410 H       
@<TRIPOS>BOND
   1    1    2 1
   2    1   18 1
   3    1    5 2
   4    2    3 1
   5    2    8 1
   6    3    4 2
   7    3    6 1
   8    4    5 1
   9    6    7 1
  10    7   14 1
  11    7   17 1
  12    7   36 1
  13    8    9 ar
  14    8   13 ar
  15    9   10 ar
  16    9   37 1
  17   10   11 ar
  18   10   38 1
  19   11   12 ar
  20   11   39 1
  21   12   13 ar
  22   13   40 1
  23   14   15 1
  24   14   41 1
  25   14   42 1
  26   15   16 1
  27   15   43 1
  28   15   44 1
  29   16   17 1
  30   16   45 1
  31   16   46 1
  32   17   47 1
  33   17   48 1
  34   18   19 1
  35   19   20 ar
  36   19   24 ar
  37   20   21 ar
  38   20   49 1
  39   21   22 ar
  40   21   50 1
  41   22   23 ar
  42   22   25 1
  43   23   24 ar
  44   23   51 1
  45   24   52 1
  46   25   26 ar
  47   25   30 ar
  48   26   27 ar
  49   26   53 1
  50   27   28 ar
  51   27   54 1
  52   28   29 ar
  53   28   31 1
  54   29   30 ar
  55   29   55 1
  56   30   56 1
  57   31   32 2
  58   31   33 am
  59   33   34 1
  60   33   57 1
  61   34   35 1
  62   35   58 1
  63   35   59 1
  64   35   60 1

#	End of record

