#	Name: ASD06740001
#	Creating user name:	WinNT
#	Creation time:	15. 06. 2019 21:08

#	Modifying user name:	WinNT
#	Modification time:	15. 06. 2019 21:08

#	Program:	/corina/corina34_cracker 3.40 0067  02.08.2006

@<TRIPOS>MOLECULE
ASD06740001
  66   67    0    0    0
SMALL
NO_CHARGES


@<TRIPOS>ATOM
   1 O1             0.6285     4.9580     0.6125 O.3     
   2 C2             0.0535     5.9773     1.4326 C.3     
   3 C3             0.1573     5.5658     2.9036 C.3     
   4 C4            -0.5469     4.2198     3.1001 C.3     
   5 C5             0.0815     3.1854     2.1614 C.3     
   6 C6            -0.0194     3.6887     0.7191 C.3     
   7 O7             1.5333     5.4427     3.2690 O.3     
   8 C8             1.5526     2.9860     2.5316 C.3     
   9 C9             0.7950     7.2718     1.2193 C.2     
  10 O10            0.6149     2.7549    -0.1571 O.3     
  11 C11            0.2836     2.9338    -1.5356 C.3     
  12 C12           -1.1301     4.4154    -3.5685 C.3     
  13 O13           -1.5684     3.1487    -3.0731 O.3     
  14 C14           -1.2379     2.9118    -1.7031 C.3     
  15 C15            0.8235     4.2826    -2.0208 C.3     
  16 C16            0.3958     4.4978    -3.4759 C.3     
  17 C17            2.1125     6.6500     3.7680 C.3     
  18 S18            1.6672     2.3085     4.2104 S.o2    
  19 O19            1.2466     3.2718     5.1667 O.2     
  20 O20            1.1724     0.9769     4.2456 O.2     
  21 O21            3.1614     2.1604     4.4591 O.3     
  22 O22           -1.9365     4.3586     2.7969 O.3     
  23 C23           -1.7785     1.5456    -1.2766 C.3     
  24 O24            2.2501     4.2848    -1.9367 O.3     
  25 O25           -3.2071     1.5700    -1.3005 O.3     
  26 S26           -3.8569     0.2988    -0.7728 S.o2    
  27 O27           -5.2500     0.4269    -1.0223 O.2     
  28 O28           -3.0762    -0.7834    -1.2612 O.2     
  29 O29           -3.6892     0.3016     0.7399 O.3     
  30 O30           -1.7121     5.4602    -2.7864 O.3     
  31 C31           -3.1347     5.5426    -2.8931 C.3     
  32 N32            0.8443     5.8212    -3.9289 N.3     
  33 O33            0.2670     6.8816    -3.1028 O.3     
  34 S34            0.6881     8.2853    -3.5139 S.o2    
  35 O35            0.2095     9.1604    -2.5018 O.2     
  36 O36            2.0573     8.2010    -3.8847 O.2     
  37 O37           -0.0798     8.6330    -4.7811 O.3     
  38 O38            1.7986     7.2894     0.5467 O.2     
  39 O39            0.3405     8.4052     1.7765 O.3     
  40 H40           -0.9948     6.1104     1.1655 H       
  41 H41           -0.3200     6.3213     3.5277 H       
  42 H42           -0.4286     3.8939     4.1335 H       
  43 H43           -0.4501     2.2384     2.2547 H       
  44 H44           -1.0687     3.7919     0.4427 H       
  45 H45            2.0137     2.2930     1.8279 H       
  46 H46            2.0707     3.9441     2.4903 H       
  47 H47            0.7275     2.1308    -2.1240 H       
  48 H48           -1.4376     4.5252    -4.6084 H       
  49 H49           -1.6833     3.6891    -1.0822 H       
  50 H50            0.4191     5.0820    -1.3999 H       
  51 H51            0.8410     3.7264    -4.1043 H       
  52 H52            2.0507     7.4253     3.0043 H       
  53 H53            1.5711     6.9722     4.6574 H       
  54 H54            3.1575     6.4735     4.0227 H       
  55 H55            3.3817     1.8036     5.3304 H       
  56 H56           -2.3971     5.0044     3.3500 H       
  57 H57           -1.4167     0.7809    -1.9641 H       
  58 H58           -1.4358     1.3182    -0.2672 H       
  59 H59            2.6600     5.1104    -2.2289 H       
  60 H60           -4.1360    -0.4306     1.1865 H       
  61 H61           -3.5791     4.6051    -2.5589 H       
  62 H62           -3.4991     6.3597    -2.2704 H       
  63 H63           -3.4112     5.7259    -3.9314 H       
  64 H64            1.8517     5.8780    -3.9381 H       
  65 H65            0.1158     9.5132    -5.1305 H       
  66 H66            0.8498     9.2105     1.6114 H       
@<TRIPOS>BOND
   1    1    2 1
   2    1    6 1
   3    2    3 1
   4    2    9 1
   5    2   40 1
   6    3    4 1
   7    3    7 1
   8    3   41 1
   9    4    5 1
  10    4   22 1
  11    4   42 1
  12    5    6 1
  13    5    8 1
  14    5   43 1
  15    6   10 1
  16    6   44 1
  17    7   17 1
  18    8   18 1
  19    8   45 1
  20    8   46 1
  21    9   38 2
  22    9   39 1
  23   10   11 1
  24   11   15 1
  25   11   14 1
  26   11   47 1
  27   12   13 1
  28   12   16 1
  29   12   30 1
  30   12   48 1
  31   13   14 1
  32   14   23 1
  33   14   49 1
  34   15   16 1
  35   15   24 1
  36   15   50 1
  37   16   32 1
  38   16   51 1
  39   17   52 1
  40   17   53 1
  41   17   54 1
  42   18   19 2
  43   18   20 2
  44   18   21 1
  45   21   55 1
  46   22   56 1
  47   23   25 1
  48   23   57 1
  49   23   58 1
  50   24   59 1
  51   25   26 1
  52   26   27 2
  53   26   28 2
  54   26   29 1
  55   29   60 1
  56   30   31 1
  57   31   61 1
  58   31   62 1
  59   31   63 1
  60   32   33 1
  61   32   64 1
  62   33   34 1
  63   34   35 2
  64   34   36 2
  65   34   37 1
  66   37   65 1
  67   39   66 1

#	End of record

