#	Name: ASD01410889
#	Creating user name:	WinNT
#	Creation time:	15. 06. 2019 19:18

#	Modifying user name:	WinNT
#	Modification time:	15. 06. 2019 19:18

#	Program:	/corina/corina34_cracker 3.40 0067  02.08.2006

@<TRIPOS>MOLECULE
ASD01410889
  71   74    0    0    0
SMALL
NO_CHARGES


@<TRIPOS>ATOM
   1 C1            -1.4502     2.9318     0.0320 C.ar    
   2 C2            -1.7969     0.5538     0.0418 C.ar    
   3 C3            -3.1710     0.7490     0.0355 C.ar    
   4 C4            -3.6896     2.0529     0.0392 C.ar    
   5 C5            -2.8169     3.1436     0.0314 C.ar    
   6 O6            -0.6001     3.9930     0.0300 O.3     
   7 C7            -0.4175     4.6649     1.1944 C.ar    
   8 N8            -4.0331    -0.3466     0.0370 N.am    
   9 C9            -4.3642    -0.9419     1.2000 C.2     
  10 C10           -3.8787    -0.3671     2.5057 C.3     
  11 O11           -5.0528    -1.9402     1.1956 O.2     
  12 C12           -4.8967    -0.6711     3.6067 C.3     
  13 C13           -2.0385    -0.4107     4.1952 C.3     
  14 C14           -3.0565    -0.7148     5.2961 C.3     
  15 C15           -4.4038    -0.0875     4.9323 C.3     
  16 C16           -2.5636    -0.1312     6.6218 C.3     
  17 N17           -1.1111     4.3185     2.2665 N.ar    
  18 C18            0.4998     5.7063     1.2511 C.ar    
  19 C19            0.6769     6.3835     2.4452 C.ar    
  20 C20           -0.0736     5.9928     3.5454 C.ar    
  21 C21           -0.9640     4.9449     3.4182 C.ar    
  22 C22           -2.5314    -0.9943     2.8695 C.3     
  23 C23           -0.9429     1.6380     0.0403 C.ar    
  24 C24           -4.2621    -2.5108    -3.0401 C.ar    
  25 C25           -5.1084    -3.6030    -3.0402 C.ar    
  26 C26           -3.9344    -1.8887    -4.2358 C.ar    
  27 C27           -4.4577    -2.3652    -5.4292 C.ar    
  28 C28           -5.3033    -3.4573    -5.4240 C.ar    
  29 C29           -5.6285    -4.0758    -4.2306 C.ar    
  30 C30           -3.7005    -1.9922    -1.7414 C.3     
  31 C31           -4.5791    -0.8508    -1.2254 C.3     
  32 O32           -3.1026    -0.8141    -4.2382 O.3     
  33 C33           -2.8089    -0.2239    -5.5061 C.3     
  34 C34            1.2921     6.0934     0.0290 C.3     
  35 F35            2.1402     7.1611     0.3419 F       
  36 F36            2.0553     5.0011    -0.3973 F       
  37 F37            0.4163     6.4773    -0.9922 F       
  38 C38           -5.1474     2.2705     0.0320 C.2     
  39 O39           -5.9036     1.3194     0.0229 O.2     
  40 O40           -5.6416     3.5241     0.0356 O.3     
  41 H41           -1.3950    -0.4487     0.0390 H       
  42 H42           -3.2085     4.1501     0.0252 H       
  43 H43           -3.7621     0.7121     2.4066 H       
  44 H44           -5.8565    -0.2243     3.3475 H       
  45 H45           -5.0133    -1.7503     3.7058 H       
  46 H46           -1.9219     0.6685     4.0961 H       
  47 H47           -1.0787    -0.8576     4.4543 H       
  48 H48           -3.1731    -1.7940     5.3952 H       
  49 H49           -4.2872     0.9917     4.8332 H       
  50 H50           -5.1290    -0.3041     5.7167 H       
  51 H51           -2.4470     0.9480     6.5227 H       
  52 H52           -3.2889    -0.3478     7.4061 H       
  53 H53           -1.6038    -0.5780     6.8810 H       
  54 H54            1.3833     7.1970     2.5193 H       
  55 H55            0.0406     6.5001     4.4920 H       
  56 H56           -1.5508     4.6372     4.2711 H       
  57 H57           -2.6480    -2.0735     2.9686 H       
  58 H58           -1.8062    -0.7777     2.0852 H       
  59 H59            0.1255     1.4801     0.0452 H       
  60 H60           -5.3636    -4.0879    -2.1096 H       
  61 H61           -4.2044    -1.8823    -6.3615 H       
  62 H62           -5.7109    -3.8286    -6.3527 H       
  63 H63           -6.2896    -4.9298    -4.2287 H       
  64 H64           -3.6817    -2.7969    -1.0065 H       
  65 H65           -2.6871    -1.6254    -1.9046 H       
  66 H66           -5.5925    -1.2176    -1.0623 H       
  67 H67           -4.5979    -0.0460    -1.9603 H       
  68 H68           -2.1358     0.6220    -5.3660 H       
  69 H69           -2.3334    -0.9638    -6.1499 H       
  70 H70           -3.7335     0.1204    -5.9695 H       
  71 H71           -6.6041     3.6166     0.0306 H       
@<TRIPOS>BOND
   1    1   23 ar
   2    1    6 1
   3    1    5 ar
   4    2    3 ar
   5    2   23 ar
   6    2   41 1
   7    3    4 ar
   8    3    8 1
   9    4    5 ar
  10    4   38 1
  11    5   42 1
  12    6    7 1
  13    7   18 ar
  14    7   17 ar
  15    8    9 am
  16    8   31 1
  17    9   11 2
  18    9   10 1
  19   10   12 1
  20   10   22 1
  21   10   43 1
  22   12   15 1
  23   12   44 1
  24   12   45 1
  25   13   14 1
  26   13   22 1
  27   13   46 1
  28   13   47 1
  29   14   15 1
  30   14   16 1
  31   14   48 1
  32   15   49 1
  33   15   50 1
  34   16   51 1
  35   16   52 1
  36   16   53 1
  37   17   21 ar
  38   18   19 ar
  39   18   34 1
  40   19   20 ar
  41   19   54 1
  42   20   21 ar
  43   20   55 1
  44   21   56 1
  45   22   57 1
  46   22   58 1
  47   23   59 1
  48   24   25 ar
  49   24   26 ar
  50   24   30 1
  51   25   29 ar
  52   25   60 1
  53   26   27 ar
  54   26   32 1
  55   27   28 ar
  56   27   61 1
  57   28   29 ar
  58   28   62 1
  59   29   63 1
  60   30   31 1
  61   30   64 1
  62   30   65 1
  63   31   66 1
  64   31   67 1
  65   32   33 1
  66   33   68 1
  67   33   69 1
  68   33   70 1
  69   34   35 1
  70   34   36 1
  71   34   37 1
  72   38   39 2
  73   38   40 1
  74   40   71 1

#	End of record

