#	Name: ASD01900502
#	Creating user name:	WinNT
#	Creation time:	15. 06. 2019 19:52

#	Modifying user name:	WinNT
#	Modification time:	15. 06. 2019 19:52

#	Program:	/corina/corina34_cracker 3.40 0067  02.08.2006

@<TRIPOS>MOLECULE
ASD01900502
  29   31    0    0    0
SMALL
NO_CHARGES


@<TRIPOS>ATOM
   1 C1             0.3938     3.9790     0.6053 C.ar    
   2 C2             0.8281     5.0137     1.4468 C.ar    
   3 C3             2.1919     5.2761     1.5467 C.ar    
   4 C4             3.0643     4.4996     0.8067 C.ar    
   5 C5             2.5633     3.4923    -0.0054 C.ar    
   6 N6             1.2718     3.2608    -0.0857 N.ar    
   7 O7            -0.2658     5.5615     2.0117 O.3     
   8 N8            -1.4206     4.8924     1.5462 N.2     
   9 C9            -1.0753     3.9541     0.7093 C.2     
  10 N10           -1.9329     3.0869     0.0455 N.pl3   
  11 C11           -3.3185     3.2521     0.1557 C.ar    
  12 C12           -3.8525     4.5157     0.3732 C.ar    
  13 C13           -5.2203     4.6777     0.4814 C.ar    
  14 C14           -6.0603     3.5776     0.3726 C.ar    
  15 C15           -5.5273     2.3163     0.1555 C.ar    
  16 C16           -4.1602     2.1536     0.0419 C.ar    
  17 O17           -7.4068     3.7374     0.4796 O.3     
  18 C18           -8.2112     2.5626     0.3577 C.3     
  19 Cl19          -5.8885     6.2566     0.7538 Cl      
  20 H20            2.5587     6.0659     2.1854 H       
  21 H21            4.1284     4.6762     0.8602 H       
  22 H22            3.2471     2.8874    -0.5824 H       
  23 H23           -1.5718     2.3666    -0.4946 H       
  24 H24           -3.1987     5.3712     0.4581 H       
  25 H25           -6.1814     1.4610     0.0714 H       
  26 H26           -3.7458     1.1715    -0.1313 H       
  27 H27           -9.2628     2.8298     0.4621 H       
  28 H28           -8.0468     2.1095    -0.6200 H       
  29 H29           -7.9376     1.8524     1.1380 H       
@<TRIPOS>BOND
   1    1    2 ar
   2    1    6 ar
   3    1    9 1
   4    2    3 ar
   5    2    7 1
   6    3    4 ar
   7    3   20 1
   8    4    5 ar
   9    4   21 1
  10    5    6 ar
  11    5   22 1
  12    7    8 1
  13    8    9 2
  14    9   10 1
  15   10   11 1
  16   10   23 1
  17   11   12 ar
  18   11   16 ar
  19   12   13 ar
  20   12   24 1
  21   13   14 ar
  22   13   19 1
  23   14   15 ar
  24   14   17 1
  25   15   16 ar
  26   15   25 1
  27   16   26 1
  28   17   18 1
  29   18   27 1
  30   18   28 1
  31   18   29 1

#	End of record

