#	Name: ASD00844874
#	Creating user name:	WinNT
#	Creation time:	15. 06. 2019 18:51

#	Modifying user name:	WinNT
#	Modification time:	15. 06. 2019 18:51

#	Program:	/corina/corina34_cracker 3.40 0067  02.08.2006

@<TRIPOS>MOLECULE
ASD00844874
  89   94    0    0    0
SMALL
NO_CHARGES


@<TRIPOS>ATOM
   1 C1             0.7446     1.2738    -0.4777 C.ar    
   2 C2             0.9916    -0.0695    -0.7201 C.ar    
   3 C3             0.8661    -0.9922     0.3086 C.ar    
   4 C4             0.4957    -0.5714     1.5709 C.ar    
   5 C5             0.2495     0.7683     1.8099 C.ar    
   6 C6             0.3743     1.6897     0.7868 C.ar    
   7 C7             1.1333    -2.4524     0.0486 C.3     
   8 C8             0.8022    -3.2781     1.2732 C.2     
   9 C9             0.3273    -2.9366    -1.1583 C.3     
  10 C10           -1.1338    -2.6400    -0.9384 C.2     
  11 N11           -2.0499    -3.0681    -1.8294 N.am    
  12 O12           -1.4852    -2.0159     0.0404 O.2     
  13 C13           -3.4627    -2.6890    -1.6912 C.3     
  14 C14           -4.3176    -3.9602    -1.7020 C.3     
  15 C15           -4.0045    -4.7700    -2.9623 C.3     
  16 C16           -2.5299    -5.1797    -2.9542 C.3     
  17 C17           -1.6538    -3.9177    -2.9607 C.3     
  18 N18           -4.8465    -5.9733    -2.9926 N.3     
  19 C19           -4.6592    -6.7158    -4.2469 C.3     
  20 C20           -5.4910    -7.9999    -4.2056 C.3     
  21 N21           -6.9061    -7.6575    -4.0060 N.3     
  22 C22           -7.0935    -6.9151    -2.7517 C.3     
  23 C23           -6.2617    -5.6310    -2.7929 C.3     
  24 C24           -7.7482    -8.8608    -4.0363 C.3     
  25 O25           -0.2853    -3.3793     1.8008 O.2     
  26 N26            1.9380    -3.8787     1.6658 N.am    
  27 C27            2.6107    -2.6900    -0.1678 C.ar    
  28 C28            3.0190    -3.5553     0.8421 C.ar    
  29 C29            3.5017    -2.2267    -1.1107 C.ar    
  30 C30            5.2567    -3.4881    -0.0555 C.ar    
  31 C31            4.3493    -3.9542     0.8954 C.ar    
  32 C32            1.7222    -6.5212     2.4040 C.ar    
  33 C33            2.7644    -7.3170     1.9656 C.ar    
  34 C34            0.4282    -7.0084     2.3998 C.ar    
  35 C35            0.1736    -8.2920     1.9573 C.ar    
  36 C36            1.2177    -9.0925     1.5169 C.ar    
  37 C37            2.5151    -8.6012     1.5218 C.ar    
  38 O38            0.9699   -10.3558     1.0816 O.3     
  39 H39            3.7743    -6.9341     1.9699 H       
  40 C40            2.0929   -11.1227     0.6428 C.3     
  41 C41            4.8277    -2.6204    -1.0650 C.ar    
  42 F42            5.7030    -2.1678    -1.9892 F       
  43 S43            2.0445    -4.8860     2.9759 S.o2    
  44 O44            3.4042    -4.8658     3.3881 O.2     
  45 O45            0.9665    -4.5418     3.8354 O.2     
  46 O46            1.3556    -0.4811    -1.9630 O.3     
  47 C47            1.3851     0.5101    -2.9919 C.3     
  48 C48            1.8962    -0.1176    -4.2903 C.3     
  49 F49            3.1491    -0.6982    -4.0659 F       
  50 F50            0.9970    -1.0999    -4.7188 F       
  51 C51            6.6272    -3.8992     0.0008 C.1     
  52 N52            7.7145    -4.2254     0.0453 N.1     
  53 H53            0.8459     1.9945    -1.2756 H       
  54 H54            0.3978    -1.2892     2.3719 H       
  55 H55           -0.0408     1.0953     2.7974 H       
  56 H56            0.1814     2.7353     0.9760 H       
  57 H57            0.6715    -2.4219    -2.0554 H       
  58 H58            0.4655    -4.0109    -1.2802 H       
  59 H59           -3.6084    -2.1587    -0.7502 H       
  60 H60           -3.7519    -2.0471    -2.5234 H       
  61 H61           -4.0911    -4.5585    -0.8195 H       
  62 H62           -5.3732    -3.6887    -1.6970 H       
  63 H63           -4.2077    -4.1625    -3.8442 H       
  64 H64           -2.3203    -5.7665    -2.0599 H       
  65 H65           -2.3132    -5.7762    -3.8404 H       
  66 H66           -1.7968    -3.3785    -3.8972 H       
  67 H67           -0.6062    -4.1997    -2.8552 H       
  68 H68           -4.9826    -6.0998    -5.0859 H       
  69 H69           -3.6056    -6.9687    -4.3659 H       
  70 H70           -5.3762    -8.5379    -5.1466 H       
  71 H71           -5.1493    -8.6282    -3.3831 H       
  72 H72           -8.1470    -6.6622    -2.6327 H       
  73 H73           -6.7700    -7.5311    -1.9126 H       
  74 H74           -6.3764    -5.0930    -1.8520 H       
  75 H75           -6.6033    -5.0026    -3.6155 H       
  76 H76           -7.4380    -9.5414    -3.2433 H       
  77 H77           -8.7903    -8.5789    -3.8861 H       
  78 H78           -7.6410    -9.3551    -5.0018 H       
  79 H79            3.1649    -1.5555    -1.8868 H       
  80 H80            4.6809    -4.6243     1.6748 H       
  81 H81           -0.3842    -6.3849     2.7431 H       
  82 H82           -0.8372    -8.6722     1.9546 H       
  83 H83            3.3295    -9.2225     1.1797 H       
  84 H84            2.5760   -10.6148    -0.1919 H       
  85 H85            2.8028   -11.2296     1.4631 H       
  86 H86            1.7567   -12.1089     0.3225 H       
  87 H87            0.3799     0.9013    -3.1486 H       
  88 H88            2.0489     1.3222    -2.6951 H       
  89 H89            1.9847     0.6530    -5.0561 H       
@<TRIPOS>BOND
   1    1    2 ar
   2    1    6 ar
   3    1   53 1
   4    2    3 ar
   5    2   46 1
   6    3    4 ar
   7    3    7 1
   8    4    5 ar
   9    4   54 1
  10    5    6 ar
  11    5   55 1
  12    6   56 1
  13    7    8 1
  14    7    9 1
  15    7   27 1
  16    8   25 2
  17    8   26 am
  18    9   10 1
  19    9   57 1
  20    9   58 1
  21   10   11 am
  22   10   12 2
  23   11   13 1
  24   11   17 1
  25   13   14 1
  26   13   59 1
  27   13   60 1
  28   14   15 1
  29   14   61 1
  30   14   62 1
  31   15   16 1
  32   15   18 1
  33   15   63 1
  34   16   17 1
  35   16   64 1
  36   16   65 1
  37   17   66 1
  38   17   67 1
  39   18   19 1
  40   18   23 1
  41   19   20 1
  42   19   68 1
  43   19   69 1
  44   20   21 1
  45   20   70 1
  46   20   71 1
  47   21   22 1
  48   21   24 1
  49   22   23 1
  50   22   72 1
  51   22   73 1
  52   23   74 1
  53   23   75 1
  54   24   76 1
  55   24   77 1
  56   24   78 1
  57   26   43 am
  58   26   28 1
  59   27   28 ar
  60   27   29 ar
  61   28   31 ar
  62   29   41 ar
  63   29   79 1
  64   30   31 ar
  65   30   51 1
  66   30   41 ar
  67   31   80 1
  68   32   33 ar
  69   32   34 ar
  70   32   43 1
  71   33   39 1
  72   33   37 ar
  73   34   35 ar
  74   34   81 1
  75   35   36 ar
  76   35   82 1
  77   36   37 ar
  78   36   38 1
  79   37   83 1
  80   38   40 1
  81   40   84 1
  82   40   85 1
  83   40   86 1
  84   41   42 1
  85   43   44 2
  86   43   45 2
  87   46   47 1
  88   47   48 1
  89   47   87 1
  90   47   88 1
  91   48   49 1
  92   48   50 1
  93   48   89 1
  94   51   52 3

#	End of record

