#	Name: ASD01230638
#	Creating user name:	WinNT
#	Creation time:	15. 06. 2019 19:14

#	Modifying user name:	WinNT
#	Modification time:	15. 06. 2019 19:14

#	Program:	/corina/corina34_cracker 3.40 0067  02.08.2006

@<TRIPOS>MOLECULE
ASD01230638
  43   47    0    0    0
SMALL
NO_CHARGES


@<TRIPOS>ATOM
   1 C1            -0.0170     1.3988     0.0097 C.ar    
   2 C2             0.0021    -0.0041     0.0020 C.ar    
   3 C3             1.2335    -0.6606    -0.0133 C.ar    
   4 C4             2.3884     0.1053    -0.0203 C.ar    
   5 C5             2.2901     1.4835    -0.0119 C.ar    
   6 N6             1.1150     2.0839     0.0026 N.ar    
   7 N7            -1.2297     2.0716     0.0191 N.pl3   
   8 C8            -1.2629    -0.7750     0.0105 C.ar    
   9 C9            -1.4643    -1.7966    -0.9187 C.ar    
  10 C10           -2.6402    -2.5129    -0.9097 C.ar    
  11 C11           -3.6292    -2.2180     0.0270 C.ar    
  12 C12           -3.4293    -1.1976     0.9550 C.ar    
  13 C13           -2.2517    -0.4839     0.9513 C.ar    
  14 N14           -6.1003    -2.7718     1.0308 N.pl3   
  15 B15           -4.9696    -3.0353     0.0363 Du      
  16 N16           -5.2634    -4.1668    -0.9489 N.pl3   
  17 C17           -6.5912    -4.2561    -1.3903 C.ar    
  18 C18           -7.6295    -3.6446    -0.6589 C.ar    
  19 C19           -7.3996    -2.9111     0.5227 C.ar    
  20 C20           -6.8765    -4.9495    -2.5459 C.ar    
  21 C21           -8.1868    -5.0602    -3.0018 C.ar    
  22 C22           -9.2130    -4.4863    -2.3163 C.ar    
  23 C23           -8.9605    -3.7660    -1.1360 C.ar    
  24 C24          -10.0118    -3.1612    -0.4256 C.ar    
  25 C25           -9.7551    -2.4566     0.7102 C.ar    
  26 C26           -8.4547    -2.3276     1.1891 C.ar    
  27 H27            1.2851    -1.7393    -0.0192 H       
  28 H28            3.3575    -0.3713    -0.0318 H       
  29 H29            3.1906     2.0798    -0.0174 H       
  30 H30           -2.0613     1.5723     0.0204 H       
  31 H31           -1.2463     3.0414     0.0245 H       
  32 H32           -0.6981    -2.0251    -1.6448 H       
  33 H33           -2.7963    -3.3033    -1.6289 H       
  34 H34           -4.1965    -0.9695     1.6802 H       
  35 H35           -2.0950     0.3035     1.6736 H       
  36 H36           -5.9300    -2.5280     1.9541 H       
  37 H37           -4.5764    -4.7821    -1.2492 H       
  38 H38           -6.0755    -5.4114    -3.1039 H       
  39 H39           -8.3917    -5.6081    -3.9097 H       
  40 H40          -10.2249    -4.5839    -2.6811 H       
  41 H41          -11.0267    -3.2556    -0.7825 H       
  42 H42          -10.5698    -1.9924     1.2461 H       
  43 H43           -8.2709    -1.7639     2.0918 H       
@<TRIPOS>BOND
   1    1    2 ar
   2    1    6 ar
   3    1    7 1
   4    2    3 ar
   5    2    8 1
   6    3    4 ar
   7    3   27 1
   8    4    5 ar
   9    4   28 1
  10    5    6 ar
  11    5   29 1
  12    7   30 1
  13    7   31 1
  14    8    9 ar
  15    8   13 ar
  16    9   10 ar
  17    9   32 1
  18   10   11 ar
  19   10   33 1
  20   11   12 ar
  21   11   15 1
  22   12   13 ar
  23   12   34 1
  24   13   35 1
  25   14   15 1
  26   14   19 1
  27   14   36 1
  28   15   16 1
  29   16   17 1
  30   16   37 1
  31   17   18 ar
  32   17   20 ar
  33   18   19 ar
  34   18   23 ar
  35   19   26 ar
  36   20   21 ar
  37   20   38 1
  38   21   22 ar
  39   21   39 1
  40   22   23 ar
  41   22   40 1
  42   23   24 ar
  43   24   25 ar
  44   24   41 1
  45   25   26 ar
  46   25   42 1
  47   26   43 1

#	End of record

