#	Name: ASD01811938
#	Creating user name:	WinNT
#	Creation time:	15. 06. 2019 19:27

#	Modifying user name:	WinNT
#	Modification time:	15. 06. 2019 19:27

#	Program:	/corina/corina34_cracker 3.40 0067  02.08.2006

@<TRIPOS>MOLECULE
ASD01811938
  66   71    0    0    0
SMALL
NO_CHARGES


@<TRIPOS>ATOM
   1 C1            -0.0168     1.3869     0.0097 C.ar    
   2 C2             0.0021    -0.0041     0.0020 C.ar    
   3 C3             1.1801    -0.6897    -0.0129 C.ar    
   4 C4             2.3948     0.0129    -0.0207 C.ar    
   5 C5             2.3717     1.4290    -0.0129 C.ar    
   6 C6             1.1455     2.1015     0.0024 C.ar    
   7 C7             3.6293    -0.6694    -0.0365 C.ar    
   8 C8             4.8031     0.0063    -0.0446 C.ar    
   9 C9             4.8359     1.4095    -0.0374 C.ar    
  10 C10            3.6406     2.1511    -0.0211 C.ar    
  11 C11            6.1026     2.1526    -0.0470 C.2     
  12 N12            6.0328     3.5041    -0.0399 N.am    
  13 C13            4.8302     4.1313    -0.0241 C.2     
  14 N14            3.6961     3.4935    -0.0158 N.2     
  15 O15            7.1745     1.5748    -0.0604 O.2     
  16 C16            3.6424    -2.1763    -0.0442 C.3     
  17 C17            3.5087    -2.6726    -1.4608 C.ar    
  18 C18            4.6388    -2.8923    -2.2356 C.ar    
  19 C19            4.4729    -3.3483    -3.5318 C.ar    
  20 C20            3.1835    -3.5699    -4.0118 C.ar    
  21 N21            2.1285    -3.3468    -3.2381 N.ar    
  22 C22            2.2590    -2.9187    -1.9990 C.ar    
  23 C23            7.2655     4.2957    -0.0490 C.3     
  24 C24            7.3196     5.1740     1.2048 C.3     
  25 C25            8.5708     6.0543     1.1481 C.3     
  26 O26            8.5445     6.8410    -0.0446 O.3     
  27 C27            8.5410     6.0734    -1.2500 C.3     
  28 C28            7.2886     5.1938    -1.2896 C.3     
  29 O29            7.3717     4.3444     2.3672 O.3     
  30 C30            2.9888    -4.0581    -5.3978 C.ar    
  31 C31            4.0859    -4.2980    -6.2266 C.ar    
  32 C32            3.8515    -4.7542    -7.5137 C.ar    
  33 C33            2.5514    -4.9567    -7.9357 C.ar    
  34 N34            1.5298    -4.7225    -7.1338 N.ar    
  35 C35            1.7011    -4.2922    -5.8961 C.ar    
  36 O36            0.6223    -4.0651    -5.1069 O.3     
  37 C37           -0.6636    -4.3119    -5.6793 C.3     
  38 C38           -1.7494    -4.0018    -4.6469 C.3     
  39 H39           -0.9630     1.9076     0.0169 H       
  40 H40           -0.9305    -0.5488     0.0083 H       
  41 H41            1.1786    -1.7697    -0.0183 H       
  42 H42            1.1188     3.1811     0.0081 H       
  43 H43            5.7317    -0.5451    -0.0563 H       
  44 H44            4.8132     5.2111    -0.0182 H       
  45 H45            4.5813    -2.5336     0.3789 H       
  46 H46            2.8098    -2.5499     0.5518 H       
  47 H47            5.6257    -2.7112    -1.8361 H       
  48 H48            5.3307    -3.5294    -4.1626 H       
  49 H49            1.3776    -2.7481    -1.3987 H       
  50 H50            8.1281     3.6295    -0.0650 H       
  51 H51            6.4318     5.8051     1.2460 H       
  52 H52            8.5922     6.7121     2.0170 H       
  53 H53            9.4596     5.4232     1.1477 H       
  54 H54            8.5409     6.7448    -2.1086 H       
  55 H55            9.4294     5.4425    -1.2817 H       
  56 H56            7.3062     4.5752    -2.1869 H       
  57 H57            6.4002     5.8253    -1.2987 H       
  58 H58            7.4077     4.8353     3.1995 H       
  59 H59            5.0929    -4.1317    -5.8734 H       
  60 H60            4.6776    -4.9496    -8.1814 H       
  61 H61            2.3682    -5.3124    -8.9389 H       
  62 H62           -0.8007    -3.6750    -6.5532 H       
  63 H63           -0.7339    -5.3580    -5.9774 H       
  64 H64           -1.6123    -4.6387    -3.7730 H       
  65 H65           -1.6791    -2.9557    -4.3487 H       
  66 H66           -2.7302    -4.1901    -5.0834 H       
@<TRIPOS>BOND
   1    1    2 ar
   2    1    6 ar
   3    1   39 1
   4    2    3 ar
   5    2   40 1
   6    3    4 ar
   7    3   41 1
   8    4    5 ar
   9    4    7 ar
  10    5    6 ar
  11    5   10 ar
  12    6   42 1
  13    7    8 ar
  14    7   16 1
  15    8    9 ar
  16    8   43 1
  17    9   10 ar
  18    9   11 1
  19   10   14 1
  20   11   12 am
  21   11   15 2
  22   12   13 1
  23   12   23 1
  24   13   14 2
  25   13   44 1
  26   16   17 1
  27   16   45 1
  28   16   46 1
  29   17   18 ar
  30   17   22 ar
  31   18   19 ar
  32   18   47 1
  33   19   20 ar
  34   19   48 1
  35   20   21 ar
  36   20   30 1
  37   21   22 ar
  38   22   49 1
  39   23   24 1
  40   23   28 1
  41   23   50 1
  42   24   25 1
  43   24   29 1
  44   24   51 1
  45   25   26 1
  46   25   52 1
  47   25   53 1
  48   26   27 1
  49   27   28 1
  50   27   54 1
  51   27   55 1
  52   28   56 1
  53   28   57 1
  54   29   58 1
  55   30   31 ar
  56   30   35 ar
  57   31   32 ar
  58   31   59 1
  59   32   33 ar
  60   32   60 1
  61   33   34 ar
  62   33   61 1
  63   34   35 ar
  64   35   36 1
  65   36   37 1
  66   37   38 1
  67   37   62 1
  68   37   63 1
  69   38   64 1
  70   38   65 1
  71   38   66 1

#	End of record

