#	Name: ASD03090382
#	Creating user name:	WinNT
#	Creation time:	15. 06. 2019 20:28

#	Modifying user name:	WinNT
#	Modification time:	15. 06. 2019 20:28

#	Program:	/corina/corina34_cracker 3.40 0067  02.08.2006

@<TRIPOS>MOLECULE
ASD03090382
  44   46    0    0    0
SMALL
NO_CHARGES


@<TRIPOS>ATOM
   1 C1            -0.0179     1.4706     0.0101 C.2     
   2 C2             0.0021    -0.0041     0.0020 C.ar    
   3 C3             1.2216    -0.6880    -0.0133 C.ar    
   4 C4             1.2372    -2.0588    -0.0203 C.ar    
   5 C5             0.0396    -2.7703    -0.0122 C.ar    
   6 C6            -1.1768    -2.0917     0.0030 C.ar    
   7 C7            -1.1984    -0.7210     0.0155 C.ar    
   8 O8             1.0268     2.0929     0.0035 O.2     
   9 N9            -1.1941     2.1285     0.0193 N.am    
  10 S10            0.0635    -4.5322    -0.0219 S.3     
  11 C11           -1.6982    -4.9642    -0.0067 C.3     
  12 F12           -2.3195    -4.4287    -1.1400 F       
  13 F13           -1.8370    -6.3563    -0.0128 F       
  14 F14           -2.2968    -4.4409     1.1444 F       
  15 C15           -1.2140     3.5934     0.0273 C.3     
  16 N16           -6.5809     5.4089     0.2835 N.am    
  17 C17           -6.8422     5.4910     1.7230 C.3     
  18 C18           -5.5338     5.0456     2.3962 C.3     
  19 C19           -4.6010     4.7352     1.2472 C.ar    
  20 C20           -3.2922     4.2919     1.2370 C.ar    
  21 C21           -2.6415     4.0763     0.0367 C.ar    
  22 C22           -3.3037     4.3055    -1.1556 C.ar    
  23 C23           -4.6093     4.7477    -1.1503 C.ar    
  24 C24           -5.2733     4.9677     0.0582 C.ar    
  25 C25           -7.4722     5.7091    -0.6819 C.2     
  26 O26           -7.1587     5.6083    -1.8493 O.2     
  27 C27           -8.8581     6.1702    -0.3110 C.3     
  28 H28            2.1504    -0.1369    -0.0199 H       
  29 H29            2.1788    -2.5876    -0.0325 H       
  30 H30           -2.1037    -2.6459     0.0089 H       
  31 H31           -2.1417    -0.1954     0.0315 H       
  32 H32           -2.0275     1.6321     0.0205 H       
  33 H33           -0.7009     3.9588     0.9169 H       
  34 H34           -0.7094     3.9685    -0.8630 H       
  35 H35           -7.0831     6.5158     2.0058 H       
  36 H36           -7.6564     4.8206     1.9984 H       
  37 H37           -5.1279     5.8509     3.0085 H       
  38 H38           -5.7016     4.1545     3.0011 H       
  39 H39           -2.7765     4.1135     2.1691 H       
  40 H40           -2.7962     4.1377    -2.0940 H       
  41 H41           -5.1207     4.9250    -2.0848 H       
  42 H42           -8.9532     6.1985     0.7745 H       
  43 H43           -9.0302     7.1670    -0.7169 H       
  44 H44           -9.5933     5.4785    -0.7222 H       
@<TRIPOS>BOND
   1    1    2 1
   2    1    8 2
   3    1    9 am
   4    2    3 ar
   5    2    7 ar
   6    3    4 ar
   7    3   28 1
   8    4    5 ar
   9    4   29 1
  10    5    6 ar
  11    5   10 1
  12    6    7 ar
  13    6   30 1
  14    7   31 1
  15    9   15 1
  16    9   32 1
  17   10   11 1
  18   11   12 1
  19   11   13 1
  20   11   14 1
  21   15   21 1
  22   15   33 1
  23   15   34 1
  24   16   17 1
  25   16   24 1
  26   16   25 am
  27   17   18 1
  28   17   35 1
  29   17   36 1
  30   18   19 1
  31   18   37 1
  32   18   38 1
  33   19   20 ar
  34   19   24 ar
  35   20   21 ar
  36   20   39 1
  37   21   22 ar
  38   22   23 ar
  39   22   40 1
  40   23   24 ar
  41   23   41 1
  42   25   26 2
  43   25   27 1
  44   27   42 1
  45   27   43 1
  46   27   44 1

#	End of record

