#	Name: ASD05503058
#	Creating user name:	WinNT
#	Creation time:	15. 06. 2019 21:01

#	Modifying user name:	WinNT
#	Modification time:	15. 06. 2019 21:01

#	Program:	/corina/corina34_cracker 3.40 0067  02.08.2006

@<TRIPOS>MOLECULE
ASD05503058
  42   43    0    0    0
SMALL
NO_CHARGES


@<TRIPOS>ATOM
   1 C1            -0.1261     1.5313    -0.0040 C.ar    
   2 C2            -0.0692     0.1453    -0.0764 C.ar    
   3 C3             1.1598    -0.4989    -0.0612 C.ar    
   4 C4             2.3282     0.2442     0.0263 C.ar    
   5 C5             2.2643     1.6305     0.0984 C.ar    
   6 C6             1.0393     2.2686     0.0830 C.ar    
   7 N7            -1.2498    -0.6006    -0.1640 N.am    
   8 C8            -1.5140    -1.3161    -1.2752 C.2     
   9 N9             3.5687    -0.4012     0.0423 N.am    
  10 C10            4.6328     0.1691    -0.5568 C.2     
  11 C11            5.9177    -0.5571    -0.6278 C.ar    
  12 C12            6.0330    -1.8339    -0.0754 C.ar    
  13 C13            7.2354    -2.5065    -0.1455 C.ar    
  14 C14            8.3262    -1.9189    -0.7616 C.ar    
  15 C15            8.2201    -0.6538    -1.3110 C.ar    
  16 C16            7.0213     0.0287    -1.2532 C.ar    
  17 Br17           6.8777     1.7581    -2.0046 Br      
  18 O18            4.5355     1.2809    -1.0388 O.2     
  19 C19           -2.7270    -2.2088    -1.3259 C.3     
  20 C20           -2.7936    -2.9019    -2.6883 C.3     
  21 C21           -4.0252    -3.8083    -2.7397 C.3     
  22 O22           -0.7754    -1.2415    -2.2343 O.2     
  23 C23           -2.1988    -0.6037     0.9521 C.3     
  24 H24           -1.0821     2.0334    -0.0203 H       
  25 H25            1.2067    -1.5765    -0.1170 H       
  26 H26            3.1734     2.2096     0.1665 H       
  27 H27            0.9923     3.3461     0.1395 H       
  28 H28            3.6633    -1.2593     0.4847 H       
  29 H29            5.1829    -2.2939     0.4062 H       
  30 H30            7.3256    -3.4942     0.2819 H       
  31 H31            9.2649    -2.4504    -0.8135 H       
  32 H32            9.0756    -0.2007    -1.7898 H       
  33 H33           -2.6584    -2.9600    -0.5390 H       
  34 H34           -3.6255    -1.6096    -1.1787 H       
  35 H35           -2.8622    -2.1507    -3.4751 H       
  36 H36           -1.8951    -3.5012    -2.8354 H       
  37 H37           -3.9566    -4.5595    -1.9529 H       
  38 H38           -4.9237    -3.2090    -2.5926 H       
  39 H39           -4.0726    -4.3020    -3.7103 H       
  40 H40           -2.9162     0.2065     0.8212 H       
  41 H41           -2.7274    -1.5566     0.9768 H       
  42 H42           -1.6589    -0.4632     1.8885 H       
@<TRIPOS>BOND
   1    1    2 ar
   2    1    6 ar
   3    1   24 1
   4    2    3 ar
   5    2    7 1
   6    3    4 ar
   7    3   25 1
   8    4    5 ar
   9    4    9 1
  10    5    6 ar
  11    5   26 1
  12    6   27 1
  13    7    8 am
  14    7   23 1
  15    8   19 1
  16    8   22 2
  17    9   10 am
  18    9   28 1
  19   10   11 1
  20   10   18 2
  21   11   12 ar
  22   11   16 ar
  23   12   13 ar
  24   12   29 1
  25   13   14 ar
  26   13   30 1
  27   14   15 ar
  28   14   31 1
  29   15   16 ar
  30   15   32 1
  31   16   17 1
  32   19   20 1
  33   19   33 1
  34   19   34 1
  35   20   21 1
  36   20   35 1
  37   20   36 1
  38   21   37 1
  39   21   38 1
  40   21   39 1
  41   23   40 1
  42   23   41 1
  43   23   42 1

#	End of record

