#	Name: ASD01370001
#	Creating user name:	WinNT
#	Creation time:	15. 06. 2019 19:16

#	Modifying user name:	WinNT
#	Modification time:	15. 06. 2019 19:16

#	Program:	/corina/corina34_cracker 3.40 0067  02.08.2006

@<TRIPOS>MOLECULE
ASD01370001
  36   39    0    0    0
SMALL
NO_CHARGES


@<TRIPOS>ATOM
   1 C1            -0.0169     1.3945     0.0097 C.ar    
   2 C2             0.0021    -0.0041     0.0020 C.ar    
   3 C3             1.1942    -0.6932    -0.0131 C.ar    
   4 C4             2.4057     0.0147    -0.0209 C.ar    
   5 C5             2.3760     1.4331    -0.0130 C.ar    
   6 C6             1.1418     2.1061     0.0025 C.ar    
   7 O7            -1.1694    -0.6907     0.0100 O.3     
   8 C8            -2.3729     0.0797     0.0261 C.3     
   9 N9             3.5769    -0.6337    -0.0351 N.ar    
  10 C10            4.7176     0.0069    -0.0422 C.ar    
  11 C11            4.7716     1.4116    -0.0352 C.ar    
  12 C12            3.5884     2.1419    -0.0209 C.ar    
  13 C13            6.0752     2.1064    -0.0435 C.2     
  14 N14            7.2680     1.5407    -0.0575 N.2     
  15 C15            8.1511     2.5609    -0.0608 C.2     
  16 N16            7.4626     3.6736    -0.0488 N.2     
  17 O17            6.2738     3.4339    -0.0442 O.3     
  18 C18            9.6306     2.4428    -0.0745 C.ar    
  19 C19           10.4232     3.5887    -0.0763 C.ar    
  20 C20           11.7983     3.4736    -0.0886 C.ar    
  21 C21           12.3904     2.2225    -0.0996 C.ar    
  22 C22           11.6072     1.0812    -0.0983 C.ar    
  23 C23           10.2314     1.1857    -0.0798 C.ar    
  24 Br24          14.2753     2.0720    -0.1171 Br      
  25 H25           -0.9630     1.9153     0.0170 H       
  26 H26            1.1967    -1.7731    -0.0186 H       
  27 H27            1.1140     3.1857     0.0085 H       
  28 H28           -3.2329    -0.5900     0.0311 H       
  29 H29           -2.3930     0.7035     0.9197 H       
  30 H30           -2.4107     0.7131    -0.8602 H       
  31 H31            5.6389    -0.5565    -0.0533 H       
  32 H32            3.6014     3.2218    -0.0156 H       
  33 H33            9.9622     4.5653    -0.0685 H       
  34 H34           12.4136     4.3612    -0.0901 H       
  35 H35           12.0738     0.1072    -0.1073 H       
  36 H36            9.6212     0.2946    -0.0788 H       
@<TRIPOS>BOND
   1    1    2 ar
   2    1    6 ar
   3    1   25 1
   4    2    3 ar
   5    2    7 1
   6    3    4 ar
   7    3   26 1
   8    4    5 ar
   9    4    9 ar
  10    5    6 ar
  11    5   12 ar
  12    6   27 1
  13    7    8 1
  14    8   28 1
  15    8   29 1
  16    8   30 1
  17    9   10 ar
  18   10   11 ar
  19   10   31 1
  20   11   12 ar
  21   11   13 1
  22   12   32 1
  23   13   14 2
  24   13   17 1
  25   14   15 1
  26   15   16 2
  27   15   18 1
  28   16   17 1
  29   18   19 ar
  30   18   23 ar
  31   19   20 ar
  32   19   33 1
  33   20   21 ar
  34   20   34 1
  35   21   22 ar
  36   21   24 1
  37   22   23 ar
  38   22   35 1
  39   23   36 1

#	End of record

