#	Name: ASD01883728
#	Creating user name:	WinNT
#	Creation time:	15. 06. 2019 19:46

#	Modifying user name:	WinNT
#	Modification time:	15. 06. 2019 19:46

#	Program:	/corina/corina34_cracker 3.40 0067  02.08.2006

@<TRIPOS>MOLECULE
ASD01883728
  60   64    0    0    0
SMALL
NO_CHARGES


@<TRIPOS>ATOM
   1 C1            -0.6874     0.6148    -0.6830 C.2     
   2 C2            -0.1191    -0.0608     0.4041 C.2     
   3 C3            -0.7777    -0.0307     1.6474 C.2     
   4 C4            -1.9381     0.6339     1.8026 C.2     
   5 N5            -2.5281     1.3052     0.7719 N.pl3   
   6 C6            -1.9479     1.3308    -0.4699 C.2     
   7 C7            -3.6852     2.0396     0.6848 C.2     
   8 C8            -3.7815     2.4804    -0.5858 C.2     
   9 N9            -2.7191     2.0420    -1.2719 N.2     
  10 C10           -4.6640     2.3030     1.7999 C.3     
  11 C11           -5.7932     1.2723     1.7415 C.3     
  12 F12           -5.2592    -0.0130     1.8835 F       
  13 F13           -6.7018     1.5168     2.7767 F       
  14 F14           -6.4510     1.3706     0.5107 F       
  15 N15            1.0717    -0.7478     0.2578 N.pl3   
  16 C16            1.1228    -2.2046     0.4415 C.3     
  17 C17            2.2106    -2.5343     1.4685 C.3     
  18 C18            3.5346    -1.9102     1.0215 C.3     
  19 C19            3.3844    -0.3890     0.9483 C.3     
  20 C20            2.3089    -0.0358    -0.0902 C.3     
  21 C21            4.6147    -2.2610     2.0121 C.ar    
  22 C22            4.4885    -1.8820     3.3354 C.ar    
  23 C23            5.4793    -2.2037     4.2441 C.ar    
  24 C24            6.5962    -2.9049     3.8295 C.ar    
  25 C25            6.7220    -3.2847     2.5063 C.ar    
  26 C26            5.7291    -2.9668     1.5985 C.ar    
  27 N27            3.8981    -2.4305    -0.3033 N.3     
  28 C28            4.0154    -3.8957    -0.2800 C.3     
  29 C29            4.3358    -4.3992    -1.6898 C.3     
  30 O30            5.5314    -3.7678    -2.1558 O.3     
  31 C31            5.4521    -2.3403    -2.1920 C.3     
  32 C32            5.1430    -1.8160    -0.7872 C.3     
  33 C33           -0.0511     0.6109    -1.9659 C.1     
  34 N34            0.4537     0.6078    -2.9836 N.1     
  35 H35           -0.3455    -0.5494     2.4904 H       
  36 H36           -2.4161     0.6354     2.7711 H       
  37 H37           -4.5808     3.0885    -0.9829 H       
  38 H38           -4.1515     2.2264     2.7589 H       
  39 H39           -5.0800     3.3044     1.6893 H       
  40 H40            0.1585    -2.5614     0.8033 H       
  41 H41            1.3594    -2.6846    -0.5082 H       
  42 H42            1.9277    -2.1300     2.4405 H       
  43 H43            2.3249    -3.6157     1.5430 H       
  44 H44            3.0905    -0.0050     1.9251 H       
  45 H45            4.3343     0.0565     0.6524 H       
  46 H46            2.6447    -0.3391    -1.0818 H       
  47 H47            2.1267     1.0388    -0.0767 H       
  48 H48            3.6159    -1.3342     3.6594 H       
  49 H49            5.3810    -1.9070     5.2779 H       
  50 H50            7.3706    -3.1557     4.5392 H       
  51 H51            7.5947    -3.8322     2.1823 H       
  52 H52            5.8274    -3.2635     0.5647 H       
  53 H53            4.8156    -4.1861     0.4008 H       
  54 H54            3.0744    -4.3308     0.0568 H       
  55 H55            4.4800    -5.4794    -1.6665 H       
  56 H56            3.5109    -4.1558    -2.3595 H       
  57 H57            6.4036    -1.9314    -2.5319 H       
  58 H58            4.6597    -2.0370    -2.8762 H       
  59 H59            5.0251    -0.7329    -0.8207 H       
  60 H60            5.9612    -2.0730    -0.1145 H       
@<TRIPOS>BOND
   1    1    2 2
   2    1   33 1
   3    1    6 1
   4    2    3 1
   5    2   15 1
   6    3    4 2
   7    3   35 1
   8    4    5 1
   9    4   36 1
  10    5    6 1
  11    5    7 1
  12    6    9 2
  13    7    8 2
  14    7   10 1
  15    8    9 1
  16    8   37 1
  17   10   11 1
  18   10   38 1
  19   10   39 1
  20   11   12 1
  21   11   13 1
  22   11   14 1
  23   15   16 1
  24   15   20 1
  25   16   17 1
  26   16   40 1
  27   16   41 1
  28   17   18 1
  29   17   42 1
  30   17   43 1
  31   18   19 1
  32   18   21 1
  33   18   27 1
  34   19   20 1
  35   19   44 1
  36   19   45 1
  37   20   46 1
  38   20   47 1
  39   21   22 ar
  40   21   26 ar
  41   22   23 ar
  42   22   48 1
  43   23   24 ar
  44   23   49 1
  45   24   25 ar
  46   24   50 1
  47   25   26 ar
  48   25   51 1
  49   26   52 1
  50   27   28 1
  51   27   32 1
  52   28   29 1
  53   28   53 1
  54   28   54 1
  55   29   30 1
  56   29   55 1
  57   29   56 1
  58   30   31 1
  59   31   32 1
  60   31   57 1
  61   31   58 1
  62   32   59 1
  63   32   60 1
  64   33   34 3

#	End of record

