#	Name: ASD01152584
#	Creating user name:	WinNT
#	Creation time:	15. 06. 2019 19:06

#	Modifying user name:	WinNT
#	Modification time:	15. 06. 2019 19:06

#	Program:	/corina/corina34_cracker 3.40 0067  02.08.2006

@<TRIPOS>MOLECULE
ASD01152584
  48   50    0    0    0
SMALL
NO_CHARGES


@<TRIPOS>ATOM
   1 C1            -0.9868     1.3988    -0.6230 C.2     
   2 N2            -0.6846     0.1201    -0.5431 N.2     
   3 N3            -1.5044    -0.7642    -0.1174 N.am    
   4 C4            -2.6727    -0.4857     0.4805 C.2     
   5 C5            -3.0449     0.9453     0.7981 C.3     
   6 C6            -2.3391     1.8251    -0.2147 C.2     
   7 C7            -2.5776     1.3049     2.2099 C.3     
   8 O8            -2.8591     2.8221    -0.6704 O.2     
   9 C9             0.0020     2.3801    -1.1022 C.2     
  10 C10           -1.1606    -2.1102    -0.2865 C.ar    
  11 O11           -3.4311    -1.3820     0.7660 O.2     
  12 C12           -3.0601     2.6887     2.5614 C.ar    
  13 C13           -0.7296    -2.5669    -1.5239 C.ar    
  14 C14           -1.2451    -2.9898     0.7862 C.ar    
  15 C15           -0.9055    -4.3183     0.6201 C.ar    
  16 C16           -0.4805    -4.7771    -0.6122 C.ar    
  17 C17           -0.3892    -3.9021    -1.6872 C.ar    
  18 C18           -4.2877     2.8574     3.1743 C.ar    
  19 C19           -2.2724     3.7883     2.2760 C.ar    
  20 C20           -2.7142     5.0576     2.5986 C.ar    
  21 C21           -4.7307     4.1262     3.4970 C.ar    
  22 C22           -3.9451     5.2275     3.2069 C.ar    
  23 Cl23          -4.5007     6.8215     3.6124 Cl      
  24 O24            1.2343     1.9726    -1.4655 O.3     
  25 C25            2.1567     2.9943    -1.9277 C.3     
  26 O26           -0.2934     3.5569    -1.1698 O.2     
  27 N27            0.0463    -4.3665    -2.9333 N.am    
  28 C28            0.7989    -3.5743    -3.7222 C.2     
  29 O29            1.0283    -2.4304    -3.3907 O.2     
  30 C30            1.3555    -4.1099    -5.0162 C.3     
  31 H31           -4.1242     1.0752     0.7183 H       
  32 H32           -2.9847     0.5865     2.9214 H       
  33 H33           -1.4887     1.2788     2.2498 H       
  34 H34           -0.6594    -1.8846    -2.3581 H       
  35 H35           -1.5763    -2.6342     1.7507 H       
  36 H36           -0.9720    -4.9999     1.4552 H       
  37 H37           -0.2150    -5.8163    -0.7386 H       
  38 H38           -4.9008     1.9976     3.4008 H       
  39 H39           -1.3116     3.6555     1.8011 H       
  40 H40           -2.0985     5.9165     2.3762 H       
  41 H41           -5.6899     4.2579     3.9755 H       
  42 H42            3.1094     2.5328    -2.1877 H       
  43 H43            1.7411     3.4888    -2.8057 H       
  44 H44            2.3122     3.7281    -1.1369 H       
  45 H45           -0.1935    -5.2586    -3.2292 H       
  46 H46            1.0462    -5.1473    -5.1430 H       
  47 H47            0.9790    -3.5142    -5.8478 H       
  48 H48            2.4439    -4.0554    -4.9937 H       
@<TRIPOS>BOND
   1    1    2 2
   2    1    9 1
   3    1    6 1
   4    2    3 1
   5    3    4 am
   6    3   10 1
   7    4    5 1
   8    4   11 2
   9    5    6 1
  10    5    7 1
  11    5   31 1
  12    6    8 2
  13    7   12 1
  14    7   32 1
  15    7   33 1
  16    9   24 1
  17    9   26 2
  18   10   13 ar
  19   10   14 ar
  20   12   18 ar
  21   12   19 ar
  22   13   17 ar
  23   13   34 1
  24   14   15 ar
  25   14   35 1
  26   15   16 ar
  27   15   36 1
  28   16   17 ar
  29   16   37 1
  30   17   27 1
  31   18   21 ar
  32   18   38 1
  33   19   20 ar
  34   19   39 1
  35   20   22 ar
  36   20   40 1
  37   21   22 ar
  38   21   41 1
  39   22   23 1
  40   24   25 1
  41   25   42 1
  42   25   43 1
  43   25   44 1
  44   27   28 am
  45   27   45 1
  46   28   29 2
  47   28   30 1
  48   30   46 1
  49   30   47 1
  50   30   48 1

#	End of record

