#	Name: ASD08178027
#	Creating user name:	WinNT
#	Creation time:	15. 06. 2019 21:18

#	Modifying user name:	WinNT
#	Modification time:	15. 06. 2019 21:18

#	Program:	/corina/corina34_cracker 3.40 0067  02.08.2006

@<TRIPOS>MOLECULE
ASD08178027
  48   50    0    0    0
SMALL
NO_CHARGES


@<TRIPOS>ATOM
   1 N1            -0.0155     1.2947     0.0092 N.2     
   2 C2             0.0021    -0.0041     0.0020 C.2     
   3 N3            -1.1168    -0.8300     0.0083 N.am    
   4 N4             1.0945     1.8960     0.0018 N.2     
   5 C5             2.1557     1.1534    -0.0123 C.2     
   6 S6             1.6320    -0.5310    -0.0164 S.3     
   7 C7             3.5816     1.6410    -0.0233 C.3     
   8 C8             4.0782     1.7976     1.4154 C.3     
   9 C9             6.1978     2.5063     3.1665 C.3     
  10 C10            7.6379     2.9971     3.3279 C.3     
  11 C11            7.9729     3.0983     4.7937 C.2     
  12 N12            8.4807     2.1604     5.5251 N.2     
  13 N13            8.7006     2.4123     6.7409 N.2     
  14 C14            8.3999     3.6028     7.1750 C.2     
  15 S15            7.7489     4.5201     5.8149 S.3     
  16 N16            8.5666     4.0679     8.4711 N.pl3   
  17 C17           -2.3521    -0.2911     0.0235 C.2     
  18 O18           -2.4879     0.9140     0.0317 O.2     
  19 C19           -3.5646    -1.1861     0.0302 C.3     
  20 S20            5.7946     2.3845     1.4021 S.3     
  21 C21           -3.8626    -1.7010    -1.4001 C.3     
  22 C22           -5.3785    -2.0186    -1.3072 C.3     
  23 C23           -5.9071    -0.9108    -0.3719 C.3     
  24 N24           -4.7649    -0.4209     0.4136 N.am    
  25 C25           -4.8083     0.5639     1.3327 C.2     
  26 O26           -3.7996     0.8869     1.9235 O.2     
  27 C27           -6.1102     1.2639     1.6262 C.3     
  28 F28           -5.9042     2.2397     2.6072 F       
  29 F29           -6.5875     1.8696     0.4589 F       
  30 F30           -7.0476     0.3321     2.0848 F       
  31 H31           -1.0082    -1.7939     0.0017 H       
  32 H32            4.2083     0.9194    -0.5474 H       
  33 H33            3.6326     2.6036    -0.5321 H       
  34 H34            3.4515     2.5192     1.9395 H       
  35 H35            4.0272     0.8350     1.9242 H       
  36 H36            6.0938     1.5259     3.6315 H       
  37 H37            5.5181     3.2102     3.6468 H       
  38 H38            8.3176     2.2933     2.8476 H       
  39 H39            7.7419     3.9775     2.8629 H       
  40 H40            8.9394     3.4853     9.1512 H       
  41 H41            8.3104     4.9756     8.6973 H       
  42 H42           -3.4131    -2.0237     0.7111 H       
  43 H43           -3.6705    -0.9261    -2.1422 H       
  44 H44           -3.2876    -2.6007    -1.6191 H       
  45 H45           -5.8475    -1.9509    -2.2888 H       
  46 H46           -5.5400    -3.0033    -0.8686 H       
  47 H47           -6.3274    -0.0965    -0.9623 H       
  48 H48           -6.6671    -1.3193     0.2940 H       
@<TRIPOS>BOND
   1    1    2 2
   2    1    4 1
   3    2    3 1
   4    2    6 1
   5    3   17 am
   6    3   31 1
   7    4    5 2
   8    5    6 1
   9    5    7 1
  10    7    8 1
  11    7   32 1
  12    7   33 1
  13    8   20 1
  14    8   34 1
  15    8   35 1
  16    9   10 1
  17    9   20 1
  18    9   36 1
  19    9   37 1
  20   10   11 1
  21   10   38 1
  22   10   39 1
  23   11   12 2
  24   11   15 1
  25   12   13 1
  26   13   14 2
  27   14   15 1
  28   14   16 1
  29   16   40 1
  30   16   41 1
  31   17   18 2
  32   17   19 1
  33   19   21 1
  34   19   24 1
  35   19   42 1
  36   21   22 1
  37   21   43 1
  38   21   44 1
  39   22   23 1
  40   22   45 1
  41   22   46 1
  42   23   24 1
  43   23   47 1
  44   23   48 1
  45   24   25 am
  46   25   26 2
  47   25   27 1
  48   27   28 1
  49   27   29 1
  50   27   30 1

#	End of record

