#	Name: ASD03731482
#	Creating user name:	WinNT
#	Creation time:	15. 06. 2019 20:45

#	Modifying user name:	WinNT
#	Modification time:	15. 06. 2019 20:45

#	Program:	/corina/corina34_cracker 3.40 0067  02.08.2006

@<TRIPOS>MOLECULE
ASD03731482
  54   59    0    0    0
SMALL
NO_CHARGES


@<TRIPOS>ATOM
   1 C1            -0.0180     1.4773     0.0102 C.2     
   2 C2             0.0021    -0.0041     0.0020 C.ar    
   3 C3             1.2113    -0.7061    -0.0133 C.ar    
   4 C4             1.1847    -2.0871    -0.0200 C.ar    
   5 N5             0.0409    -2.7424    -0.0121 N.ar    
   6 C6            -1.1220    -2.1199     0.0023 C.ar    
   7 C7            -1.1872    -0.7385     0.0153 C.ar    
   8 O8             1.0259     2.0991     0.0035 O.2     
   9 N9            -1.1942     2.1352     0.0193 N.am    
  10 C10           -1.2141     3.6001     0.0274 C.3     
  11 C11           -2.6634     4.0904     0.0369 C.3     
  12 C12           -2.6841     5.6203     0.0453 C.3     
  13 O13           -8.8976     2.7138     2.1987 O.3     
  14 C14          -10.3146     2.7673     2.4479 C.3     
  15 O15          -10.5198     4.0917     2.9742 O.3     
  16 C16           -9.5162     4.8539     2.4483 C.ar    
  17 C17           -8.5185     4.0061     1.9725 C.ar    
  18 C18           -9.3713     6.2249     2.3342 C.ar    
  19 C19           -8.2319     6.7671     1.7474 C.ar    
  20 C20           -7.2384     5.9103     1.2833 C.ar    
  21 C21           -7.3826     4.5427     1.3900 C.ar    
  22 O22           -7.9029     8.0718     1.5241 O.3     
  23 C23           -6.1400     6.7829     0.7376 C.3     
  24 C24           -6.4843     8.1713     1.2938 C.3     
  25 N25           -4.0718     6.0898     0.0545 N.am    
  26 C26           -4.7791     6.3253     1.1775 C.2     
  27 C27           -6.0967     6.7757    -0.7617 C.ar    
  28 C28           -7.0123     7.0886    -1.7414 C.ar    
  29 C29           -6.6639     6.9792    -3.0759 C.ar    
  30 C30           -5.3944     6.5542    -3.4232 C.ar    
  31 C31           -4.4740     6.2387    -2.4455 C.ar    
  32 C32           -4.8159     6.3463    -1.0997 C.ar    
  33 O33           -4.3921     6.1938     2.3194 O.2     
  34 Cl34          -2.5898    -3.0469     0.0114 Cl      
  35 H35            2.1524    -0.1762    -0.0202 H       
  36 H36            2.1137    -2.6376    -0.0322 H       
  37 H37           -2.1424    -0.2348     0.0315 H       
  38 H38           -2.0276     1.6389     0.0206 H       
  39 H39           -0.7010     3.9655     0.9169 H       
  40 H40           -0.7095     3.9752    -0.8630 H       
  41 H41           -3.1764     3.7250    -0.8526 H       
  42 H42           -3.1680     3.7153     0.9273 H       
  43 H43           -2.1711     5.9857     0.9349 H       
  44 H44           -2.1795     5.9954    -0.8450 H       
  45 H45          -10.8719     2.6331     1.5208 H       
  46 H46          -10.6031     2.0147     3.1817 H       
  47 H47          -10.1477     6.8788     2.7030 H       
  48 H48           -6.6075     3.8888     1.0187 H       
  49 H49           -6.2647     8.9474     0.5606 H       
  50 H50           -5.9527     8.3573     2.2270 H       
  51 H51           -8.0031     7.4200    -1.4679 H       
  52 H52           -7.3814     7.2254    -3.8446 H       
  53 H53           -5.1225     6.4687    -4.4649 H       
  54 H54           -3.4848     5.9070    -2.7246 H       
@<TRIPOS>BOND
   1    1    2 1
   2    1    8 2
   3    1    9 am
   4    2    3 ar
   5    2    7 ar
   6    3    4 ar
   7    3   35 1
   8    4    5 ar
   9    4   36 1
  10    5    6 ar
  11    6    7 ar
  12    6   34 1
  13    7   37 1
  14    9   10 1
  15    9   38 1
  16   10   11 1
  17   10   39 1
  18   10   40 1
  19   11   12 1
  20   11   41 1
  21   11   42 1
  22   12   25 1
  23   12   43 1
  24   12   44 1
  25   13   14 1
  26   13   17 1
  27   14   15 1
  28   14   45 1
  29   14   46 1
  30   15   16 1
  31   16   17 ar
  32   16   18 ar
  33   17   21 ar
  34   18   19 ar
  35   18   47 1
  36   19   20 ar
  37   19   22 1
  38   20   21 ar
  39   20   23 1
  40   21   48 1
  41   22   24 1
  42   23   24 1
  43   23   26 1
  44   23   27 1
  45   24   49 1
  46   24   50 1
  47   25   26 am
  48   25   32 1
  49   26   33 2
  50   27   28 ar
  51   27   32 ar
  52   28   29 ar
  53   28   51 1
  54   29   30 ar
  55   29   52 1
  56   30   31 ar
  57   30   53 1
  58   31   32 ar
  59   31   54 1

#	End of record

