#	Name: ASD01148659
#	Creating user name:	WinNT
#	Creation time:	15. 06. 2019 19:02

#	Modifying user name:	WinNT
#	Modification time:	15. 06. 2019 19:02

#	Program:	/corina/corina34_cracker 3.40 0067  02.08.2006

@<TRIPOS>MOLECULE
ASD01148659
  49   52    0    0    0
SMALL
NO_CHARGES


@<TRIPOS>ATOM
   1 N1             0.3958     1.3362     1.9802 N.2     
   2 N2             0.9842     0.0794     2.1690 N.pl3   
   3 C3             0.7578    -0.6603     1.0381 C.2     
   4 C4             0.0394     0.1378     0.1706 C.2     
   5 C5            -0.1630     1.3673     0.7955 C.2     
   6 C6             1.1973    -2.0422     0.7944 C.2     
   7 O7             1.9282    -2.5976     1.5925 O.2     
   8 N8             0.7904    -2.6933    -0.3132 N.am    
   9 C9             1.2607    -3.9768    -0.5786 C.ar    
  10 C10            2.6122    -4.2679    -0.4388 C.ar    
  11 C11            3.0764    -5.5413    -0.7020 C.ar    
  12 C12            2.2007    -6.5374    -1.1068 C.ar    
  13 C13            0.8564    -6.2661    -1.2508 C.ar    
  14 C14            0.3716    -4.9835    -0.9828 C.ar    
  15 C15           -1.0662    -4.6884    -1.1290 C.2     
  16 N16           -1.9315    -5.6799    -1.4201 N.am    
  17 O17           -1.4709    -3.5506    -0.9868 O.2     
  18 C18           -3.3595    -5.3868    -1.5653 C.3     
  19 C19           -3.6415    -4.9196    -2.9947 C.3     
  20 C20           -4.1717    -6.6498    -1.2720 C.3     
  21 C21           -5.6952    -6.5489    -1.3712 C.3     
  22 C22           -4.9071    -7.3047    -2.4430 C.3     
  23 Cl23           2.7998    -8.1334    -1.4346 Cl      
  24 Br24           3.8170    -2.9184     0.1120 Br      
  25 C25            1.6779    -0.3436     3.3055 C.ar    
  26 C26            1.9570     0.5655     4.3206 C.ar    
  27 C27            2.6451     0.1321     5.4420 C.ar    
  28 C28            3.0307    -1.1994     5.5081 C.ar    
  29 C29            2.7194    -2.0464     4.4621 C.ar    
  30 N30            2.0586    -1.6065     3.4089 N.ar    
  31 Cl31           1.4505     2.2203     4.1838 Cl      
  32 Br32          -1.0915     2.8387     0.0548 Br      
  33 H33           -0.3038    -0.1402    -0.8150 H       
  34 H34            0.1698    -2.2679    -0.9255 H       
  35 H35            4.1277    -5.7628    -0.5923 H       
  36 H36            0.1785    -7.0452    -1.5666 H       
  37 H37           -1.6086    -6.5875    -1.5335 H       
  38 H38           -3.6424    -4.6018    -0.8640 H       
  39 H39           -4.7040    -4.7016    -3.1027 H       
  40 H40           -3.0628    -4.0199    -3.2037 H       
  41 H41           -3.3586    -5.7046    -3.6960 H       
  42 H42           -3.7596    -7.3063    -0.5056 H       
  43 H43           -6.2853    -7.1394    -0.6703 H       
  44 H44           -6.1188    -5.5828    -1.6454 H       
  45 H45           -4.8123    -6.8357    -3.4223 H       
  46 H46           -4.9789    -8.3923    -2.4473 H       
  47 H47            2.8765     0.8148     6.2462 H       
  48 H48            3.5689    -1.5695     6.3682 H       
  49 H49            3.0175    -3.0833     4.5092 H       
@<TRIPOS>BOND
   1    1    2 1
   2    1    5 2
   3    2    3 1
   4    2   25 1
   5    3    4 2
   6    3    6 1
   7    4    5 1
   8    4   33 1
   9    5   32 1
  10    6    7 2
  11    6    8 am
  12    8    9 1
  13    8   34 1
  14    9   10 ar
  15    9   14 ar
  16   10   11 ar
  17   10   24 1
  18   11   12 ar
  19   11   35 1
  20   12   13 ar
  21   12   23 1
  22   13   14 ar
  23   13   36 1
  24   14   15 1
  25   15   16 am
  26   15   17 2
  27   16   18 1
  28   16   37 1
  29   18   19 1
  30   18   20 1
  31   18   38 1
  32   19   39 1
  33   19   40 1
  34   19   41 1
  35   20   21 1
  36   20   22 1
  37   20   42 1
  38   21   22 1
  39   21   43 1
  40   21   44 1
  41   22   45 1
  42   22   46 1
  43   25   26 ar
  44   25   30 ar
  45   26   27 ar
  46   26   31 1
  47   27   28 ar
  48   27   47 1
  49   28   29 ar
  50   28   48 1
  51   29   30 ar
  52   29   49 1

#	End of record

