#	Name: ASD00431250
#	Creating user name:	WinNT
#	Creation time:	15. 06. 2019 18:35

#	Modifying user name:	WinNT
#	Modification time:	15. 06. 2019 18:35

#	Program:	/corina/corina34_cracker 3.40 0067  02.08.2006

@<TRIPOS>MOLECULE
ASD00431250
  42   44    0    0    0
SMALL
NO_CHARGES


@<TRIPOS>ATOM
   1 S1            -1.9310     1.4583     1.1859 S.3     
   2 C2            -1.6269    -0.2152     1.0156 C.2     
   3 N3            -1.9476    -0.8448     2.1022 N.2     
   4 C4            -2.4263    -0.1236     3.0948 C.2     
   5 C5            -2.5145     1.1976     2.8277 C.2     
   6 O6            -1.1222    -0.8005    -0.0973 O.3     
   7 C7            -0.8389    -2.1293    -0.0472 C.ar    
   8 C8            -1.8638    -3.0517     0.1056 C.ar    
   9 C9            -1.5760    -4.4016     0.1566 C.ar    
  10 C10           -0.2622    -4.8350     0.0555 C.ar    
  11 C11            0.7626    -3.9127    -0.0969 C.ar    
  12 C12            0.4744    -2.5632    -0.1545 C.ar    
  13 O13            0.0211    -6.1639     0.1061 O.3     
  14 C14           -1.0626    -7.0475     0.4011 C.3     
  15 C15           -1.6799    -7.5513    -0.9050 C.3     
  16 C16           -0.5446    -8.2367     1.2125 C.3     
  17 C17           -3.0103     2.2364     3.7465 C.2     
  18 C18           -3.0918     3.5541     3.4630 C.2     
  19 C19           -3.5908     4.3332     4.4873 C.2     
  20 C20           -3.9157     3.6674     5.5984 C.2     
  21 S21           -3.5952     1.9521     5.3807 S.3     
  22 C22           -4.4782     4.2918     6.8493 C.3     
  23 C23           -5.9019     3.7806     7.0787 C.3     
  24 F24           -5.8805     2.3891     7.2211 F       
  25 F25           -6.4241     4.3603     8.2399 F       
  26 F26           -6.7030     4.1251     5.9847 F       
  27 Cl27          -3.4458     3.8478     8.2592 Cl      
  28 H28           -2.7228    -0.5517     4.0409 H       
  29 H29           -2.8867    -2.7143     0.1851 H       
  30 H30           -2.3738    -5.1197     0.2755 H       
  31 H31            1.7855    -4.2502    -0.1752 H       
  32 H32            1.2718    -1.8455    -0.2783 H       
  33 H33           -1.8184    -6.5152     0.9787 H       
  34 H34           -2.5065    -8.2253    -0.6799 H       
  35 H35           -2.0489    -6.7041    -1.4830 H       
  36 H36           -0.9241    -8.0835    -1.4825 H       
  37 H37           -0.1048    -7.8777     2.1430 H       
  38 H38           -1.3712    -8.9106     1.4375 H       
  39 H39            0.2113    -8.7689     0.6350 H       
  40 H40           -2.7904     3.9655     2.5110 H       
  41 H41           -3.7095     5.4028     4.3969 H       
  42 H42           -4.4949     5.3760     6.7383 H       
@<TRIPOS>BOND
   1    1    2 1
   2    1    5 1
   3    2    3 2
   4    2    6 1
   5    3    4 1
   6    4    5 2
   7    4   28 1
   8    5   17 1
   9    6    7 1
  10    7    8 ar
  11    7   12 ar
  12    8    9 ar
  13    8   29 1
  14    9   10 ar
  15    9   30 1
  16   10   11 ar
  17   10   13 1
  18   11   12 ar
  19   11   31 1
  20   12   32 1
  21   13   14 1
  22   14   15 1
  23   14   16 1
  24   14   33 1
  25   15   34 1
  26   15   35 1
  27   15   36 1
  28   16   37 1
  29   16   38 1
  30   16   39 1
  31   17   18 2
  32   17   21 1
  33   18   19 1
  34   18   40 1
  35   19   20 2
  36   19   41 1
  37   20   21 1
  38   20   22 1
  39   22   23 1
  40   22   27 1
  41   22   42 1
  42   23   24 1
  43   23   25 1
  44   23   26 1

#	End of record

