#	Name: ASD01001025
#	Creating user name:	WinNT
#	Creation time:	15. 06. 2019 18:54

#	Modifying user name:	WinNT
#	Modification time:	15. 06. 2019 18:54

#	Program:	/corina/corina34_cracker 3.40 0067  02.08.2006

@<TRIPOS>MOLECULE
ASD01001025
  44   46    0    0    0
SMALL
NO_CHARGES


@<TRIPOS>ATOM
   1 C1            -2.2710     0.9771    -2.2868 C.3     
   2 C2            -2.4059    -0.4630    -1.7881 C.3     
   3 N3            -3.2473     1.2179    -3.3578 N.3     
   4 S4            -1.2004    -0.7603    -0.4656 S.3     
   5 C5            -1.6026    -2.4421     0.0826 C.3     
   6 C6            -5.7308    -2.6384     1.1625 C.ar    
   7 C7            -0.8282    -5.1968    -3.0890 C.ar    
   8 C8             0.8037    -3.4505     3.4649 C.ar    
   9 C9            -4.8453    -1.9202     1.9442 C.ar    
  10 C10           -3.5093    -1.8570     1.5949 C.ar    
  11 C11           -3.0589    -2.5115     0.4637 C.ar    
  12 C12           -3.9445    -3.2292    -0.3183 C.ar    
  13 C13           -5.2804    -3.2928     0.0313 C.ar    
  14 C14           -1.4390    -5.6332    -1.9282 C.ar    
  15 C15           -1.6893    -4.7418    -0.9018 C.ar    
  16 C16           -1.3292    -3.4140    -1.0362 C.ar    
  17 C17           -0.7188    -2.9775    -2.1972 C.ar    
  18 C18           -0.4681    -3.8690    -3.2235 C.ar    
  19 C19            1.2994    -2.6025     2.4922 C.ar    
  20 C20            0.5208    -2.2764     1.3975 C.ar    
  21 C21           -0.7536    -2.7980     1.2758 C.ar    
  22 C22           -1.2494    -3.6456     2.2487 C.ar    
  23 C23           -0.4707    -3.9721     3.3431 C.ar    
  24 H24           -2.4582     1.6659    -1.4630 H       
  25 H25           -1.2635     1.1357    -2.6713 H       
  26 H26           -3.4135    -0.6215    -1.4037 H       
  27 H27           -2.2188    -1.1518    -2.6119 H       
  28 H28           -3.1782     2.1630    -3.7043 H       
  29 H29           -3.1359     0.5496    -4.1055 H       
  30 H30           -6.7738    -2.6914     1.4379 H       
  31 H31           -0.6286    -5.8942    -3.8892 H       
  32 H32            1.4137    -3.7088     4.3180 H       
  33 H33           -5.1972    -1.4085     2.8278 H       
  34 H34           -2.8176    -1.2953     2.2052 H       
  35 H35           -3.5927    -3.7403    -1.2023 H       
  36 H36           -5.9724    -3.8536    -0.5796 H       
  37 H37           -1.7207    -6.6705    -1.8233 H       
  38 H38           -2.1672    -5.0825     0.0048 H       
  39 H39           -0.4378    -1.9400    -2.3024 H       
  40 H40            0.0088    -3.5280    -4.1305 H       
  41 H41            2.2949    -2.1947     2.5876 H       
  42 H42            0.9078    -1.6133     0.6380 H       
  43 H43           -2.2452    -4.0528     2.1537 H       
  44 H44           -0.8580    -4.6343     4.1033 H       
@<TRIPOS>BOND
   1    1    2 1
   2    1    3 1
   3    1   24 1
   4    1   25 1
   5    2    4 1
   6    2   26 1
   7    2   27 1
   8    3   28 1
   9    3   29 1
  10    4    5 1
  11    5   11 1
  12    5   16 1
  13    5   21 1
  14    6    9 ar
  15    6   13 ar
  16    6   30 1
  17    7   14 ar
  18    7   18 ar
  19    7   31 1
  20    8   19 ar
  21    8   23 ar
  22    8   32 1
  23    9   10 ar
  24    9   33 1
  25   10   11 ar
  26   10   34 1
  27   11   12 ar
  28   12   13 ar
  29   12   35 1
  30   13   36 1
  31   14   15 ar
  32   14   37 1
  33   15   16 ar
  34   15   38 1
  35   16   17 ar
  36   17   18 ar
  37   17   39 1
  38   18   40 1
  39   19   20 ar
  40   19   41 1
  41   20   21 ar
  42   20   42 1
  43   21   22 ar
  44   22   23 ar
  45   22   43 1
  46   23   44 1

#	End of record

