#	Name: ASD02032007
#	Creating user name:	WinNT
#	Creation time:	15. 06. 2019 20:16

#	Modifying user name:	WinNT
#	Modification time:	15. 06. 2019 20:16

#	Program:	/corina/corina34_cracker 3.40 0067  02.08.2006

@<TRIPOS>MOLECULE
ASD02032007
  50   53    0    0    0
SMALL
NO_CHARGES


@<TRIPOS>ATOM
   1 C1            -0.1978     1.5374    -0.9610 C.ar    
   2 C2            -0.0703     0.1601    -0.7951 C.ar    
   3 C3            -1.1354    -0.6013    -0.4066 C.ar    
   4 C4            -2.3746     0.0025    -0.1700 C.ar    
   5 C5            -2.5082     1.4009    -0.3373 C.ar    
   6 C6            -1.4098     2.1628    -0.7290 C.ar    
   7 N7            -3.4451    -0.7195     0.2137 N.2     
   8 C8            -4.6103    -0.1590     0.4368 C.2     
   9 N9            -4.8285     1.1911     0.2986 N.am    
  10 C10           -3.8213     2.0107    -0.0827 C.2     
  11 O11           -3.9962     3.2085    -0.2098 O.2     
  12 C12           -6.0952     1.7192     0.5524 C.ar    
  13 C13           -6.3861     2.2542     1.8033 C.ar    
  14 C14           -7.6344     2.7765     2.0571 C.ar    
  15 C15           -8.6101     2.7688     1.0560 C.ar    
  16 C16           -8.3142     2.2305    -0.1996 C.ar    
  17 C17           -7.0621     1.7147    -0.4479 C.ar    
  18 C18           -5.7280    -1.0096     0.8509 C.2     
  19 C19           -5.5210    -2.3162     1.1087 C.2     
  20 C20           -6.6447    -3.1713     1.5251 C.ar    
  21 C21           -7.9280    -2.6318     1.6541 C.ar    
  22 C22           -8.9755    -3.4393     2.0446 C.ar    
  23 C23           -8.7589    -4.7802     2.3090 C.ar    
  24 C24           -7.4911    -5.3217     2.1839 C.ar    
  25 C25           -6.4350    -4.5288     1.7880 C.ar    
  26 O26            0.8779     2.2729    -1.3480 O.3     
  27 C27            2.1016     1.5677    -1.5654 C.3     
  28 C28           -9.9488     3.3270     1.3243 C.2     
  29 O29          -10.2046     3.7942     2.4163 O.2     
  30 O30          -10.8881     3.3188     0.3582 O.3     
  31 N31           -7.2700    -6.7570     2.4700 N.pl3   
  32 O32           -8.2029    -7.4600     2.8149 O.2     
  33 O33           -6.1551    -7.2350     2.3604 O.2     
  34 H34            0.8839    -0.3121    -0.9766 H       
  35 H35           -1.0211    -1.6681    -0.2826 H       
  36 H36           -1.5055     3.2308    -0.8581 H       
  37 H37           -5.6320     2.2595     2.5764 H       
  38 H38           -7.8597     3.1913     3.0284 H       
  39 H39           -9.0656     2.2229    -0.9753 H       
  40 H40           -6.8327     1.2989    -1.4179 H       
  41 H41           -6.7182    -0.5899     0.9497 H       
  42 H42           -4.5307    -2.7358     1.0100 H       
  43 H43           -8.0985    -1.5853     1.4488 H       
  44 H44           -9.9675    -3.0240     2.1448 H       
  45 H45           -9.5832    -5.4075     2.6148 H       
  46 H46           -5.4465    -4.9527     1.6905 H       
  47 H47            2.8770     2.2708    -1.8695 H       
  48 H48            2.4032     1.0705    -0.6435 H       
  49 H49            1.9580     0.8239    -2.3492 H       
  50 H50          -11.7504     3.6956     0.5810 H       
@<TRIPOS>BOND
   1    1    2 ar
   2    1   26 1
   3    1    6 ar
   4    2    3 ar
   5    2   34 1
   6    3    4 ar
   7    3   35 1
   8    4    5 ar
   9    4    7 1
  10    5    6 ar
  11    5   10 1
  12    6   36 1
  13    7    8 2
  14    8    9 1
  15    8   18 1
  16    9   10 am
  17    9   12 1
  18   10   11 2
  19   12   13 ar
  20   12   17 ar
  21   13   14 ar
  22   13   37 1
  23   14   15 ar
  24   14   38 1
  25   15   16 ar
  26   15   28 1
  27   16   17 ar
  28   16   39 1
  29   17   40 1
  30   18   19 2
  31   18   41 1
  32   19   20 1
  33   19   42 1
  34   20   21 ar
  35   20   25 ar
  36   21   22 ar
  37   21   43 1
  38   22   23 ar
  39   22   44 1
  40   23   24 ar
  41   23   45 1
  42   24   25 ar
  43   24   31 1
  44   25   46 1
  45   26   27 1
  46   27   47 1
  47   27   48 1
  48   27   49 1
  49   28   29 2
  50   28   30 1
  51   30   50 1
  52   31   32 2
  53   31   33 2

#	End of record

