#	Name: ASD01811712
#	Creating user name:	WinNT
#	Creation time:	15. 06. 2019 19:27

#	Modifying user name:	WinNT
#	Modification time:	15. 06. 2019 19:27

#	Program:	/corina/corina34_cracker 3.40 0067  02.08.2006

@<TRIPOS>MOLECULE
ASD01811712
  59   63    0    0    0
SMALL
NO_CHARGES


@<TRIPOS>ATOM
   1 C1            -0.0167     1.3805     0.0096 C.ar    
   2 C2             0.0021    -0.0041     0.0020 C.ar    
   3 C3             1.2075    -0.6836    -0.0127 C.ar    
   4 C4             2.3988     0.0118    -0.0203 C.ar    
   5 C5             2.3881     1.4079    -0.0132 C.ar    
   6 C6             1.1658     2.0836     0.0021 C.ar    
   7 C7            -1.2939    -0.7731     0.0103 C.3     
   8 C8             1.2188    -2.1905    -0.0199 C.3     
   9 C9             1.0853    -2.6871    -1.4364 C.ar    
  10 C10            2.2157    -2.9084    -2.2107 C.ar    
  11 C11            2.0500    -3.3645    -3.5066 C.ar    
  12 C12            0.7608    -3.5847    -3.9872 C.ar    
  13 N13           -0.2942    -3.3603    -3.2145 N.ar    
  14 C14           -0.1639    -2.9318    -1.9750 C.ar    
  15 C15            0.5663    -4.0735    -5.3741 C.2     
  16 C16           -0.6688    -4.3409    -5.9975 C.2     
  17 N17           -0.4282    -4.7517    -7.2141 N.2     
  18 N18            0.9574    -4.7630    -7.4144 N.pl3   
  19 C19            1.5509    -4.3406    -6.2813 C.2     
  20 C20           -2.0297    -4.1813    -5.3702 C.3     
  21 C21            1.6435    -5.1605    -8.6463 C.3     
  22 C22            3.4708     2.4102    -0.0183 C.2     
  23 N23            2.9565     3.6521    -0.0072 N.am    
  24 C24            1.4923     3.5561     0.0064 C.3     
  25 O25            4.6581     2.1501    -0.0300 O.2     
  26 C26            3.7301     4.8962    -0.0086 C.3     
  27 C27            4.6096     4.9685    -1.2691 C.3     
  28 C28            6.0720     5.0375    -0.7827 C.3     
  29 C29            6.0325     4.4049     0.6305 C.3     
  30 C30            4.6887     4.9237     1.1998 C.3     
  31 O31            4.2889     6.1391    -2.0233 O.3     
  32 H32           -0.9590     1.9081     0.0170 H       
  33 H33            3.3374    -0.5224    -0.0314 H       
  34 H34           -1.6162    -0.9530    -1.0154 H       
  35 H35           -1.1473    -1.7267     0.5176 H       
  36 H36           -2.0556    -0.1960     0.5345 H       
  37 H37            2.1570    -2.5488     0.4038 H       
  38 H38            0.3854    -2.5629     0.5758 H       
  39 H39            3.2026    -2.7284    -1.8107 H       
  40 H40            2.9079    -3.5469    -4.1368 H       
  41 H41           -1.0455    -2.7603    -1.3752 H       
  42 H42            2.6135    -4.2376    -6.1180 H       
  43 H43           -2.3987    -3.1724    -5.5544 H       
  44 H44           -2.7181    -4.9052    -5.8065 H       
  45 H45           -1.9568    -4.3511    -4.2960 H       
  46 H46            1.7734    -4.2886    -9.2874 H       
  47 H47            2.6194    -5.5789    -8.3999 H       
  48 H48            1.0482    -5.9097    -9.1682 H       
  49 H49            1.0774     4.0343    -0.8809 H       
  50 H50            1.0945     4.0255     0.9061 H       
  51 H51            3.0586     5.7540     0.0279 H       
  52 H52            4.4609     4.0780    -1.8798 H       
  53 H53            6.7207     4.4598    -1.4412 H       
  54 H54            6.4073     6.0732    -0.7279 H       
  55 H55            6.0306     3.3168     0.5668 H       
  56 H56            6.8692     4.7561     1.2345 H       
  57 H57            4.8006     5.9410     1.5748 H       
  58 H58            4.3279     4.2630     1.9881 H       
  59 H59            4.8104     6.2417    -2.8312 H       
@<TRIPOS>BOND
   1    1    2 ar
   2    1    6 ar
   3    1   32 1
   4    2    3 ar
   5    2    7 1
   6    3    4 ar
   7    3    8 1
   8    4    5 ar
   9    4   33 1
  10    5    6 ar
  11    5   22 1
  12    6   24 1
  13    7   34 1
  14    7   35 1
  15    7   36 1
  16    8    9 1
  17    8   37 1
  18    8   38 1
  19    9   10 ar
  20    9   14 ar
  21   10   11 ar
  22   10   39 1
  23   11   12 ar
  24   11   40 1
  25   12   13 ar
  26   12   15 1
  27   13   14 ar
  28   14   41 1
  29   15   16 1
  30   15   19 2
  31   16   17 2
  32   16   20 1
  33   17   18 1
  34   18   19 1
  35   18   21 1
  36   19   42 1
  37   20   43 1
  38   20   44 1
  39   20   45 1
  40   21   46 1
  41   21   47 1
  42   21   48 1
  43   22   23 am
  44   22   25 2
  45   23   24 1
  46   23   26 1
  47   24   49 1
  48   24   50 1
  49   26   27 1
  50   26   30 1
  51   26   51 1
  52   27   28 1
  53   27   31 1
  54   27   52 1
  55   28   29 1
  56   28   53 1
  57   28   54 1
  58   29   30 1
  59   29   55 1
  60   29   56 1
  61   30   57 1
  62   30   58 1
  63   31   59 1

#	End of record

