#	Name: ASD04590798
#	Creating user name:	WinNT
#	Creation time:	15. 06. 2019 20:51

#	Modifying user name:	WinNT
#	Modification time:	15. 06. 2019 20:51

#	Program:	/corina/corina34_cracker 3.40 0067  02.08.2006

@<TRIPOS>MOLECULE
ASD04590798
  36   37    0    0    0
SMALL
NO_CHARGES


@<TRIPOS>ATOM
   1 N1            -0.0178     1.4642     0.0101 N.3     
   2 C2             0.0021    -0.0041     0.0020 C.3     
   3 C3             0.6797    -0.4993    -1.2777 C.3     
   4 C4             2.1079     0.0494    -1.3384 C.3     
   5 C5             2.0615     1.5788    -1.2797 C.3     
   6 C6             1.3439     2.0138     0.0000 C.3     
   7 O7             2.8583    -0.4485    -0.2290 O.3     
   8 C8            -0.7829     1.9741     1.1559 C.3     
   9 C9            -0.5795     3.4626     1.2733 C.ar    
  10 C10           -1.4301     4.3306     0.6146 C.ar    
  11 C11           -1.2435     5.6960     0.7223 C.ar    
  12 C12           -0.2066     6.1936     1.4892 C.ar    
  13 C13            0.6435     5.3256     2.1487 C.ar    
  14 C14            0.4543     3.9603     2.0444 C.ar    
  15 C15            2.7702    -0.3923    -2.6450 C.3     
  16 N16            4.1402     0.1348    -2.7020 N.3     
  17 H17            0.5557    -0.3645     0.8690 H       
  18 H18           -1.0198    -0.3814     0.0413 H       
  19 H19            0.7083    -1.5890    -1.2760 H       
  20 H20            0.1187    -0.1507    -2.1448 H       
  21 H21            3.0774     1.9739    -1.2795 H       
  22 H22            1.5223     1.9601    -2.1469 H       
  23 H23            1.2966     3.1021     0.0379 H       
  24 H24            1.8912     1.6439     0.8670 H       
  25 H25            3.7746    -0.1405    -0.2040 H       
  26 H26           -1.8420     1.7626     1.0087 H       
  27 H27           -0.4385     1.4872     2.0683 H       
  28 H28           -2.2403     3.9419     0.0154 H       
  29 H29           -1.9077     6.3741     0.2071 H       
  30 H30           -0.0603     7.2604     1.5728 H       
  31 H31            1.4539     5.7143     2.7475 H       
  32 H32            1.1162     3.2822     2.5627 H       
  33 H33            2.7977    -1.4811    -2.6884 H       
  34 H34            2.1981    -0.0092    -3.4900 H       
  35 H35            4.6726    -0.1538    -1.8949 H       
  36 H36            4.5994    -0.1434    -3.5563 H       
@<TRIPOS>BOND
   1    1    2 1
   2    1    6 1
   3    1    8 1
   4    2    3 1
   5    2   17 1
   6    2   18 1
   7    3    4 1
   8    3   19 1
   9    3   20 1
  10    4    5 1
  11    4    7 1
  12    4   15 1
  13    5    6 1
  14    5   21 1
  15    5   22 1
  16    6   23 1
  17    6   24 1
  18    7   25 1
  19    8    9 1
  20    8   26 1
  21    8   27 1
  22    9   10 ar
  23    9   14 ar
  24   10   11 ar
  25   10   28 1
  26   11   12 ar
  27   11   29 1
  28   12   13 ar
  29   12   30 1
  30   13   14 ar
  31   13   31 1
  32   14   32 1
  33   15   16 1
  34   15   33 1
  35   15   34 1
  36   16   35 1
  37   16   36 1

#	End of record

