#	Name: ASD09740236
#	Creating user name:	WinNT
#	Creation time:	15. 06. 2019 21:23

#	Modifying user name:	WinNT
#	Modification time:	15. 06. 2019 21:23

#	Program:	/corina/corina34_cracker 3.40 0067  02.08.2006

@<TRIPOS>MOLECULE
ASD09740236
  60   63    0    0    0
SMALL
NO_CHARGES


@<TRIPOS>ATOM
   1 C1            -0.0161     1.3325     0.0094 C.2     
   2 O2             0.0021    -0.0041     0.0020 O.3     
   3 N3            -1.1317    -0.4349     0.0110 N.2     
   4 C4            -1.9878     0.5533     0.0248 C.2     
   5 N5            -1.2728     1.7010     0.0291 N.2     
   6 C6            -3.4674     0.4371     0.0389 C.ar    
   7 C7            -4.0701    -0.8191     0.0387 C.ar    
   8 C8            -4.2586     1.5837     0.0582 C.ar    
   9 C9            -5.6341     1.4699     0.0717 C.ar    
  10 C10           -6.2272     0.2203     0.0661 C.ar    
  11 C11           -5.4464    -0.9214     0.0523 C.ar    
  12 C12            1.1840     2.2440     0.0028 C.3     
  13 C13            2.0386     1.9710     1.2422 C.3     
  14 C14           -7.7295     0.1023     0.0810 C.3     
  15 C15            2.0016     1.9891    -1.2372 C.ar    
  16 N16           -8.2324     0.0771    -1.2991 N.3     
  17 C17           -9.6638    -0.2746    -1.3335 C.3     
  18 C18          -10.3981     0.8690    -2.0645 C.3     
  19 C19           -9.2710     1.5296    -2.9012 C.3     
  20 C20           -8.0548     1.3917    -1.9517 C.3     
  21 C21            2.2193     3.0100    -2.1435 C.ar    
  22 C22            2.9692     2.7762    -3.2810 C.ar    
  23 C23            3.5019     1.5217    -3.5119 C.ar    
  24 C24            3.2850     0.5011    -2.6052 C.ar    
  25 C25            2.5387     0.7360    -1.4656 C.ar    
  26 C26            4.3186     1.2666    -4.7525 C.3     
  27 C27            5.7922     1.5578    -4.4617 C.3     
  28 C28            6.3132     0.5631    -3.4224 C.3     
  29 C29            6.6035     1.4196    -5.7515 C.3     
  30 H30           -3.4614    -1.7111     0.0275 H       
  31 H31           -3.7965     2.5599     0.0629 H       
  32 H32           -6.2484     2.3580     0.0871 H       
  33 H33           -5.9146    -1.8946     0.0480 H       
  34 H34            0.8518     3.2821     0.0120 H       
  35 H35            2.9066     2.6302     1.2374 H       
  36 H36            1.4472     2.1553     2.1391 H       
  37 H37            2.3708     0.9329     1.2330 H       
  38 H38           -8.0166    -0.8183     0.5891 H       
  39 H39           -8.1559     0.9561     0.6075 H       
  40 H40           -9.8028    -1.2103    -1.8750 H       
  41 H41          -10.0465    -0.3713    -0.3175 H       
  42 H42          -11.1786     0.4727    -2.7141 H       
  43 H43          -10.8140     1.5790    -1.3495 H       
  44 H44           -9.1044     0.9851    -3.8306 H       
  45 H45           -9.4949     2.5778    -3.0992 H       
  46 H46           -8.0617     2.1886    -1.2081 H       
  47 H47           -7.1252     1.4105    -2.5206 H       
  48 H48            1.8031     3.9901    -1.9631 H       
  49 H49            3.1386     3.5736    -3.9894 H       
  50 H50            3.7008    -0.4792    -2.7858 H       
  51 H51            2.3692    -0.0614    -0.7571 H       
  52 H52            4.2065     0.2249    -5.0534 H       
  53 H53            3.9715     1.9162    -5.5559 H       
  54 H54            5.8929     2.5723    -4.0761 H       
  55 H55            6.2125    -0.4514    -3.8080 H       
  56 H56            7.3630     0.7705    -3.2153 H       
  57 H57            5.7352     0.6615    -2.5036 H       
  58 H58            6.2323     2.1282    -6.4919 H       
  59 H59            7.6533     1.6270    -5.5444 H       
  60 H60            6.5028     0.4050    -6.1371 H       
@<TRIPOS>BOND
   1    1    2 1
   2    1   12 1
   3    1    5 2
   4    2    3 1
   5    3    4 2
   6    4    5 1
   7    4    6 1
   8    6    7 ar
   9    6    8 ar
  10    7   11 ar
  11    7   30 1
  12    8    9 ar
  13    8   31 1
  14    9   10 ar
  15    9   32 1
  16   10   11 ar
  17   10   14 1
  18   11   33 1
  19   12   13 1
  20   12   15 1
  21   12   34 1
  22   13   35 1
  23   13   36 1
  24   13   37 1
  25   14   16 1
  26   14   38 1
  27   14   39 1
  28   15   21 ar
  29   15   25 ar
  30   16   17 1
  31   16   20 1
  32   17   18 1
  33   17   40 1
  34   17   41 1
  35   18   19 1
  36   18   42 1
  37   18   43 1
  38   19   20 1
  39   19   44 1
  40   19   45 1
  41   20   46 1
  42   20   47 1
  43   21   22 ar
  44   21   48 1
  45   22   23 ar
  46   22   49 1
  47   23   24 ar
  48   23   26 1
  49   24   25 ar
  50   24   50 1
  51   25   51 1
  52   26   27 1
  53   26   52 1
  54   26   53 1
  55   27   28 1
  56   27   29 1
  57   27   54 1
  58   28   55 1
  59   28   56 1
  60   28   57 1
  61   29   58 1
  62   29   59 1
  63   29   60 1

#	End of record

