#	Name: ASD01915585
#	Creating user name:	WinNT
#	Creation time:	15. 06. 2019 20:05

#	Modifying user name:	WinNT
#	Modification time:	15. 06. 2019 20:05

#	Program:	/corina/corina34_cracker 3.40 0067  02.08.2006

@<TRIPOS>MOLECULE
ASD01915585
  43   46    0    0    0
SMALL
NO_CHARGES


@<TRIPOS>ATOM
   1 C1            -0.0262     1.3430     0.0759 C.2     
   2 N2            -0.0129    -0.0320     0.0029 N.pl3   
   3 C3            -1.2605    -0.8003    -0.0861 C.3     
   4 C4            -2.3732    -0.0420     0.6356 C.3     
   5 N5            -2.4196     1.3694     0.2696 N.am    
   6 C6            -1.2881     2.0974     0.1090 C.2     
   7 C7             1.2765     1.7537     0.1191 C.2     
   8 C8             2.0306     0.5732     0.0804 C.2     
   9 N9             1.1962    -0.4383     0.0172 N.2     
  10 C10            3.5345     0.4811     0.1071 C.3     
  11 O11            4.0911     1.7953     0.1789 O.3     
  12 C12            5.4464     1.8904     0.2111 C.ar    
  13 O13           -1.3146     3.3084    -0.0014 O.2     
  14 C14            6.0540     3.1357     0.2808 C.ar    
  15 C15            6.2245     0.7423     0.1801 C.ar    
  16 C16            7.6019     0.8417     0.2129 C.ar    
  17 C17            8.2052     2.0842     0.2766 C.ar    
  18 C18            7.4318     3.2297     0.3134 C.ar    
  19 C19           -3.6568     1.9834     0.0806 C.ar    
  20 C20           -4.2161     2.0272    -1.1912 C.ar    
  21 C21           -5.4450     2.6392    -1.3659 C.ar    
  22 C22           -6.0752     3.1891    -0.2560 C.ar    
  23 C23           -5.4596     3.1087     0.9800 C.ar    
  24 N24           -4.2897     2.5141     1.1149 N.ar    
  25 C25           -3.4936     1.4168    -2.3644 C.3     
  26 F26           -7.2756     3.7959    -0.3830 F       
  27 H27           -1.5315    -0.9341    -1.1334 H       
  28 H28           -1.1218    -1.7750     0.3816 H       
  29 H29           -3.3302    -0.5016     0.3886 H       
  30 H30           -2.2136    -0.1219     1.7109 H       
  31 H31            1.6447     2.7676     0.1713 H       
  32 H32            3.8479    -0.0943     0.9782 H       
  33 H33            3.8845    -0.0127    -0.7995 H       
  34 H34            5.4504     4.0308     0.3091 H       
  35 H35            5.7537    -0.2285     0.1307 H       
  36 H36            8.2081    -0.0518     0.1892 H       
  37 H37            9.2823     2.1598     0.3022 H       
  38 H38            7.9054     4.1991     0.3627 H       
  39 H39           -5.9037     2.6885    -2.3425 H       
  40 H40           -5.9444     3.5346     1.8460 H       
  41 H41           -3.7102     0.3495    -2.4092 H       
  42 H42           -3.8279     1.8943    -3.2854 H       
  43 H43           -2.4201     1.5651    -2.2471 H       
@<TRIPOS>BOND
   1    1    2 1
   2    1    7 2
   3    1    6 1
   4    2    3 1
   5    2    9 1
   6    3    4 1
   7    3   27 1
   8    3   28 1
   9    4    5 1
  10    4   29 1
  11    4   30 1
  12    5    6 am
  13    5   19 1
  14    6   13 2
  15    7    8 1
  16    7   31 1
  17    8    9 2
  18    8   10 1
  19   10   11 1
  20   10   32 1
  21   10   33 1
  22   11   12 1
  23   12   14 ar
  24   12   15 ar
  25   14   18 ar
  26   14   34 1
  27   15   16 ar
  28   15   35 1
  29   16   17 ar
  30   16   36 1
  31   17   18 ar
  32   17   37 1
  33   18   38 1
  34   19   20 ar
  35   19   24 ar
  36   20   21 ar
  37   20   25 1
  38   21   22 ar
  39   21   39 1
  40   22   23 ar
  41   22   26 1
  42   23   24 ar
  43   23   40 1
  44   25   41 1
  45   25   42 1
  46   25   43 1

#	End of record

