#	Name: ASD02180001
#	Creating user name:	WinNT
#	Creation time:	15. 06. 2019 20:18

#	Modifying user name:	WinNT
#	Modification time:	15. 06. 2019 20:18

#	Program:	/corina/corina34_cracker 3.40 0067  02.08.2006

@<TRIPOS>MOLECULE
ASD02180001
  24   25    0    0    0
SMALL
NO_CHARGES


@<TRIPOS>ATOM
   1 N1            -0.0165     1.3641     0.0095 N.pl3   
   2 C2             0.0021    -0.0041     0.0020 C.2     
   3 C3             1.2701    -0.4444    -0.0124 C.2     
   4 C4             2.1342     0.7385    -0.0143 C.ar    
   5 C5             3.5172     0.9301    -0.0265 C.ar    
   6 C6             4.0264     2.1979    -0.0246 C.ar    
   7 C7             3.1795     3.2979    -0.0106 C.ar    
   8 C8             1.8122     3.1318     0.0020 C.ar    
   9 C9             1.2718     1.8497    -0.0002 C.ar    
  10 C10            2.4624    -3.7264     1.6455 C.2     
  11 C11            2.0003    -2.3331     1.3860 C.2     
  12 O12            1.8510    -1.5652     2.3062 O.2     
  13 C13            1.7194    -1.8828    -0.0245 C.3     
  14 O14            2.6124    -4.4974     0.7216 O.2     
  15 O15            2.7133    -4.1285     2.9051 O.3     
  16 H16           -0.8179     1.9105     0.0165 H       
  17 H17           -0.8737    -0.6360     0.0073 H       
  18 H18            4.1822     0.0791    -0.0371 H       
  19 H19            5.0962     2.3455    -0.0336 H       
  20 H20            3.5970     4.2940    -0.0092 H       
  21 H21            1.1617     3.9939     0.0132 H       
  22 H22            0.9348    -2.5050    -0.4550 H       
  23 H23            2.6259    -1.9753    -0.6227 H       
  24 H24            3.0108    -5.0410     3.0236 H       
@<TRIPOS>BOND
   1    1    2 1
   2    1    9 1
   3    1   16 1
   4    2    3 2
   5    2   17 1
   6    3    4 1
   7    3   13 1
   8    4    5 ar
   9    4    9 ar
  10    5    6 ar
  11    5   18 1
  12    6    7 ar
  13    6   19 1
  14    7    8 ar
  15    7   20 1
  16    8    9 ar
  17    8   21 1
  18   10   11 1
  19   10   14 2
  20   10   15 1
  21   11   12 2
  22   11   13 1
  23   13   22 1
  24   13   23 1
  25   15   24 1

#	End of record

