#	Name: ASD01885013
#	Creating user name:	WinNT
#	Creation time:	15. 06. 2019 19:49

#	Modifying user name:	WinNT
#	Modification time:	15. 06. 2019 19:49

#	Program:	/corina/corina34_cracker 3.40 0067  02.08.2006

@<TRIPOS>MOLECULE
ASD01885013
  47   51    0    0    0
SMALL
NO_CHARGES


@<TRIPOS>ATOM
   1 C1            -0.0171     1.4074     0.0098 C.2     
   2 C2            -0.8625     1.4233    -1.1205 C.2     
   3 C3            -2.0177     0.7296    -1.1149 C.2     
   4 N4            -2.3872     0.0036    -0.0201 N.pl3   
   5 C5            -1.5880    -0.0337     1.0966 C.2     
   6 C6            -0.3755     0.6778     1.1113 C.2     
   7 Cl7            0.6475     0.6425     2.5134 Cl      
   8 C8            -3.4679    -0.7762     0.2699 C.2     
   9 N9            -3.3054    -1.2381     1.4818 N.2     
  10 N10           -2.2002    -0.8074     1.9802 N.2     
  11 N11            1.1769     2.1246     0.0022 N.pl3   
  12 C12            2.4725     1.4349     0.0962 C.3     
  13 C13            3.3712     1.9300    -1.0420 C.3     
  14 N14            3.4440     3.3966    -1.0015 N.3     
  15 C15            2.1253     4.0021    -1.2303 C.3     
  16 C16            1.1757     3.5914    -0.1060 C.3     
  17 C17            4.3767     3.8746    -1.9146 C.ar    
  18 C18            4.5921     5.2441    -2.0270 C.ar    
  19 C19            5.5237     5.7060    -2.9396 C.ar    
  20 C20            6.2110     4.7790    -3.7117 C.ar    
  21 C21            5.9469     3.4338    -3.5477 C.ar    
  22 N22            5.0563     3.0216    -2.6658 N.ar    
  23 C23           -4.6364    -1.0539    -0.6404 C.3     
  24 C24           -4.3440    -2.2989    -1.4803 C.3     
  25 C25           -5.4611    -2.8169    -2.3883 C.3     
  26 C26           -4.2422    -2.1203    -2.9964 C.3     
  27 H27           -0.5825     1.9943    -1.9934 H       
  28 H28           -2.6573     0.7485    -1.9849 H       
  29 H29            2.9386     1.6603     1.0553 H       
  30 H30            2.3223     0.3593     0.0027 H       
  31 H31            4.3712     1.5128    -0.9235 H       
  32 H32            2.9552     1.6127    -1.9982 H       
  33 H33            2.2216     5.0877    -1.2484 H       
  34 H34            1.7266     3.6560    -2.1839 H       
  35 H35            0.1686     3.9428    -0.3307 H       
  36 H36            1.5153     4.0224     0.8358 H       
  37 H37            4.0394     5.9376    -1.4106 H       
  38 H38            5.7119     6.7638    -3.0492 H       
  39 H39            6.9444     5.1069    -4.4334 H       
  40 H40            6.4789     2.7093    -4.1465 H       
  41 H41           -5.5316    -1.2217    -0.0416 H       
  42 H42           -4.7947    -0.2001    -1.2992 H       
  43 H43           -3.6905    -3.0370    -1.0152 H       
  44 H44           -5.5424    -3.8958    -2.5208 H       
  45 H45           -6.4045    -2.2708    -2.3873 H       
  46 H46           -4.3836    -1.1159    -3.3955 H       
  47 H47           -3.5216    -2.7409    -3.5290 H       
@<TRIPOS>BOND
   1    1    2 1
   2    1   11 1
   3    1    6 2
   4    2    3 2
   5    2   27 1
   6    3    4 1
   7    3   28 1
   8    4    5 1
   9    4    8 1
  10    5    6 1
  11    5   10 2
  12    6    7 1
  13    8    9 2
  14    8   23 1
  15    9   10 1
  16   11   12 1
  17   11   16 1
  18   12   13 1
  19   12   29 1
  20   12   30 1
  21   13   14 1
  22   13   31 1
  23   13   32 1
  24   14   15 1
  25   14   17 1
  26   15   16 1
  27   15   33 1
  28   15   34 1
  29   16   35 1
  30   16   36 1
  31   17   18 ar
  32   17   22 ar
  33   18   19 ar
  34   18   37 1
  35   19   20 ar
  36   19   38 1
  37   20   21 ar
  38   20   39 1
  39   21   22 ar
  40   21   40 1
  41   23   24 1
  42   23   41 1
  43   23   42 1
  44   24   25 1
  45   24   26 1
  46   24   43 1
  47   25   26 1
  48   25   44 1
  49   25   45 1
  50   26   46 1
  51   26   47 1

#	End of record

