#	Name: ASD08178009
#	Creating user name:	WinNT
#	Creation time:	15. 06. 2019 21:18

#	Modifying user name:	WinNT
#	Modification time:	15. 06. 2019 21:18

#	Program:	/corina/corina34_cracker 3.40 0067  02.08.2006

@<TRIPOS>MOLECULE
ASD08178009
  51   52    0    0    0
SMALL
NO_CHARGES


@<TRIPOS>ATOM
   1 N1            -0.0150     1.2583     0.0090 N.2     
   2 N2             0.0021    -0.0041     0.0020 N.2     
   3 C3             1.1271     1.8769     0.0014 C.2     
   4 S4             2.3826     0.7116    -0.0169 S.3     
   5 C5             1.1681    -0.5677    -0.0121 C.2     
   6 N6             1.3017     3.2566     0.0067 N.am    
   7 C7             0.2284     4.0717     0.0214 C.2     
   8 C8             0.4176     5.5667     0.0272 C.3     
   9 O9            -0.8897     3.6019     0.0299 O.2     
  10 O10           -0.8797     6.2187     0.0432 O.3     
  11 C11           -0.8871     7.5610     0.0501 C.2     
  12 C12            1.4387    -2.0502    -0.0227 C.3     
  13 C13            1.5165    -2.5442    -1.4687 C.3     
  14 S14            1.8422    -4.3286    -1.4814 S.3     
  15 C15            1.8986    -4.7206    -3.2516 C.3     
  16 C16            2.1699    -6.2152    -3.4347 C.3     
  17 C17            2.2167    -6.5408    -4.9053 C.2     
  18 N18            3.2694    -6.5184    -5.6596 N.2     
  19 S19            0.8491    -7.0282    -5.9071 S.3     
  20 C20            1.9000    -7.1354    -7.2557 C.2     
  21 N21            3.1017    -6.8250    -6.8728 N.2     
  22 N22            1.5289    -7.4992    -8.5457 N.am    
  23 C23            2.4537    -7.5464    -9.5250 C.2     
  24 C24            2.0516    -7.9407   -10.9228 C.3     
  25 O25            3.6096    -7.2716    -9.2812 O.2     
  26 O26            3.2180    -7.9159   -11.7871 O.3     
  27 C27            3.0294    -8.2445   -13.0748 C.2     
  28 C28           -2.1962     8.3072     0.0668 C.3     
  29 O29            0.1559     8.1709     0.0430 O.2     
  30 C30            4.1936    -8.2412   -14.0317 C.3     
  31 O31            1.9261    -8.5431   -13.4668 O.2     
  32 H32            2.1959     3.6323    -0.0001 H       
  33 H33            0.9817     5.8582     0.9132 H       
  34 H34            0.9643     5.8672    -0.8667 H       
  35 H35            2.3843    -2.2506     0.4811 H       
  36 H36            0.6334    -2.5702     0.4961 H       
  37 H37            0.5709    -2.3438    -1.9724 H       
  38 H38            2.3218    -2.0242    -1.9874 H       
  39 H39            0.9434    -4.4658    -3.7108 H       
  40 H40            2.6943    -4.1461    -3.7258 H       
  41 H41            3.1250    -6.4700    -2.9755 H       
  42 H42            1.3741    -6.7896    -2.9605 H       
  43 H43            0.6045    -7.7190    -8.7407 H       
  44 H44            1.6303    -8.9459   -10.9098 H       
  45 H45            1.3064    -7.2392   -11.2980 H       
  46 H46           -3.0208     7.5943     0.0712 H       
  47 H47           -2.2487     8.9290     0.9605 H       
  48 H48           -2.2661     8.9381    -0.8194 H       
  49 H49            5.0995    -7.9485   -13.5008 H       
  50 H50            4.3237    -9.2397   -14.4491 H       
  51 H51            3.9998    -7.5330   -14.8373 H       
@<TRIPOS>BOND
   1    1    2 1
   2    1    3 2
   3    2    5 2
   4    3    4 1
   5    3    6 1
   6    4    5 1
   7    5   12 1
   8    6    7 am
   9    6   32 1
  10    7    8 1
  11    7    9 2
  12    8   10 1
  13    8   33 1
  14    8   34 1
  15   10   11 1
  16   11   28 1
  17   11   29 2
  18   12   13 1
  19   12   35 1
  20   12   36 1
  21   13   14 1
  22   13   37 1
  23   13   38 1
  24   14   15 1
  25   15   16 1
  26   15   39 1
  27   15   40 1
  28   16   17 1
  29   16   41 1
  30   16   42 1
  31   17   18 2
  32   17   19 1
  33   18   21 1
  34   19   20 1
  35   20   21 2
  36   20   22 1
  37   22   23 am
  38   22   43 1
  39   23   24 1
  40   23   25 2
  41   24   26 1
  42   24   44 1
  43   24   45 1
  44   26   27 1
  45   27   30 1
  46   27   31 2
  47   28   46 1
  48   28   47 1
  49   28   48 1
  50   30   49 1
  51   30   50 1
  52   30   51 1

#	End of record

