#	Name: ASD01028251
#	Creating user name:	WinNT
#	Creation time:	15. 06. 2019 18:56

#	Modifying user name:	WinNT
#	Modification time:	15. 06. 2019 18:56

#	Program:	/corina/corina34_cracker 3.40 0067  02.08.2006

@<TRIPOS>MOLECULE
ASD01028251
  46   50    0    0    0
SMALL
NO_CHARGES


@<TRIPOS>ATOM
   1 C1            -0.0164     1.3618     0.0095 C.ar    
   2 C2             0.0021    -0.0041     0.0020 C.ar    
   3 C3             1.1731     2.0966     0.0021 C.ar    
   4 C4             2.3797     1.4677    -0.0128 C.ar    
   5 C5             2.4329     0.0652    -0.0208 C.ar    
   6 C6             1.2310    -0.6840    -0.0134 C.ar    
   7 C7             3.6667    -0.6216    -0.0358 C.ar    
   8 C8             3.6388    -2.0063    -0.0426 C.ar    
   9 C9             2.4173    -2.6708    -0.0346 C.ar    
  10 N10            1.2768    -2.0210    -0.0206 N.ar    
  11 O11            4.8430     0.0541    -0.0438 O.3     
  12 C12            5.4176     0.3712     1.2256 C.3     
  13 C13            6.7112     1.1162     1.0194 C.2     
  14 N14            6.8524     2.4561     0.9200 N.pl3   
  15 C15            8.1963     2.6835     0.7397 C.2     
  16 N16            8.7879     1.5002     0.7388 N.2     
  17 N17            7.9020     0.5819     0.9100 N.2     
  18 N18            5.9606     3.5296     0.9643 N.2     
  19 C19            6.3955     4.7634     0.8346 C.2     
  20 C20            7.7686     5.0292     0.6479 C.2     
  21 C21            8.6610     4.0051     0.6013 C.2     
  22 C22            5.4310     5.8897     0.8847 C.ar    
  23 O23           -1.2073     2.0154     0.0187 O.3     
  24 C24           -1.1634     3.4437     0.0263 C.3     
  25 C25            4.0725     5.6394     1.0682 C.ar    
  26 C26            3.1798     6.6910     1.1144 C.ar    
  27 C27            3.6314     7.9914     0.9791 C.ar    
  28 C28            4.9788     8.2456     0.7968 C.ar    
  29 C29            5.8810     7.2021     0.7542 C.ar    
  30 F30            4.7931    -2.7082    -0.0573 F       
  31 H31           -0.9245    -0.5589     0.0083 H       
  32 H32            1.1338     3.1758     0.0079 H       
  33 H33            3.2923     2.0452    -0.0188 H       
  34 H34            2.4066    -3.7508    -0.0404 H       
  35 H35            4.7257     0.9944     1.7922 H       
  36 H36            5.6122    -0.5491     1.7764 H       
  37 H37            8.1111     6.0480     0.5422 H       
  38 H38            9.7131     4.2027     0.4586 H       
  39 H39           -2.1794     3.8384     0.0332 H       
  40 H40           -0.6345     3.7862     0.9156 H       
  41 H41           -0.6429     3.7959    -0.8643 H       
  42 H42            3.7188     4.6244     1.1736 H       
  43 H43            2.1267     6.4981     1.2562 H       
  44 H44            2.9293     8.8112     1.0156 H       
  45 H45            5.3259     9.2629     0.6913 H       
  46 H46            6.9328     7.4017     0.6118 H       
@<TRIPOS>BOND
   1    1    2 ar
   2    1    3 ar
   3    1   23 1
   4    2    6 ar
   5    2   31 1
   6    3    4 ar
   7    3   32 1
   8    4    5 ar
   9    4   33 1
  10    5    6 ar
  11    5    7 ar
  12    6   10 ar
  13    7    8 ar
  14    7   11 1
  15    8    9 ar
  16    8   30 1
  17    9   10 ar
  18    9   34 1
  19   11   12 1
  20   12   13 1
  21   12   35 1
  22   12   36 1
  23   13   14 1
  24   13   17 2
  25   14   15 1
  26   14   18 1
  27   15   16 2
  28   15   21 1
  29   16   17 1
  30   18   19 2
  31   19   20 1
  32   19   22 1
  33   20   21 2
  34   20   37 1
  35   21   38 1
  36   22   25 ar
  37   22   29 ar
  38   23   24 1
  39   24   39 1
  40   24   40 1
  41   24   41 1
  42   25   26 ar
  43   25   42 1
  44   26   27 ar
  45   26   43 1
  46   27   28 ar
  47   27   44 1
  48   28   29 ar
  49   28   45 1
  50   29   46 1

#	End of record

