#	Name: ASD01810352
#	Creating user name:	WinNT
#	Creation time:	15. 06. 2019 19:24

#	Modifying user name:	WinNT
#	Modification time:	15. 06. 2019 19:24

#	Program:	/corina/corina34_cracker 3.40 0067  02.08.2006

@<TRIPOS>MOLECULE
ASD01810352
  38   40    0    0    0
SMALL
NO_CHARGES


@<TRIPOS>ATOM
   1 C1            -0.0167     1.3836     0.0096 C.ar    
   2 C2             0.0021    -0.0041     0.0020 C.ar    
   3 C3             1.1955    -0.6917    -0.0130 C.ar    
   4 C4             2.4007     0.0063    -0.0207 C.ar    
   5 C5             2.3789     1.4112    -0.0130 C.ar    
   6 C6             1.1628     2.0943     0.0022 C.ar    
   7 N7             3.6012    -0.6701    -0.0353 N.pl3   
   8 C8             4.7860    -0.0459    -0.0424 C.2     
   9 C9             4.8923     1.3302    -0.0360 C.2     
  10 C10            3.6621     2.1382    -0.0214 C.2     
  11 O11            3.7021     3.3560    -0.0156 O.2     
  12 C12            6.2117     1.9779    -0.0431 C.2     
  13 C13            3.5805    -2.1349    -0.0429 C.3     
  14 C14            3.5604    -2.6296    -1.4663 C.ar    
  15 C15            4.7491    -2.8731    -2.1292 C.ar    
  16 C16            4.7334    -3.3266    -3.4339 C.ar    
  17 C17            3.5235    -3.5377    -4.0792 C.ar    
  18 C18            2.3322    -3.2927    -3.4118 C.ar    
  19 C19            2.3532    -2.8447    -2.1052 C.ar    
  20 O20            7.2212     1.3007    -0.0548 O.2     
  21 O21            6.3024     3.3229    -0.0368 O.3     
  22 *22            7.5989     3.8771    -0.0443 Du      
  23 O23            3.5054    -3.9834    -5.3629 O.3     
  24 C24            2.2237    -4.1785    -5.9639 C.3     
  25 H25           -0.9606     1.9085     0.0170 H       
  26 H26           -0.9293    -0.5508     0.0083 H       
  27 H27            1.1967    -1.7717    -0.0185 H       
  28 H28            1.1465     3.1742     0.0078 H       
  29 H29            5.6884    -0.6392    -0.0530 H       
  30 H30            4.4699    -2.5135     0.4608 H       
  31 H31            2.6902    -2.4884     0.4772 H       
  32 H32            5.6907    -2.7082    -1.6266 H       
  33 H33            5.6622    -3.5163    -3.9514 H       
  34 H34            1.3891    -3.4563    -3.9120 H       
  35 H35            1.4261    -2.6538    -1.5853 H       
  36 H36            1.6617    -4.9153    -5.3901 H       
  37 H37            1.6797    -3.2340    -5.9741 H       
  38 H38            2.3521    -4.5348    -6.9859 H       
@<TRIPOS>BOND
   1    1    2 ar
   2    1    6 ar
   3    1   25 1
   4    2    3 ar
   5    2   26 1
   6    3    4 ar
   7    3   27 1
   8    4    5 ar
   9    4    7 1
  10    5    6 ar
  11    5   10 1
  12    6   28 1
  13    7    8 1
  14    7   13 1
  15    8    9 2
  16    8   29 1
  17    9   10 1
  18    9   12 1
  19   10   11 2
  20   12   21 1
  21   12   20 2
  22   13   14 1
  23   13   30 1
  24   13   31 1
  25   14   15 ar
  26   14   19 ar
  27   15   16 ar
  28   15   32 1
  29   16   17 ar
  30   16   33 1
  31   17   23 1
  32   17   18 ar
  33   18   19 ar
  34   18   34 1
  35   19   35 1
  36   21   22 1
  37   23   24 1
  38   24   36 1
  39   24   37 1
  40   24   38 1

#	End of record

