#	Name: ASD09080080
#	Creating user name:	WinNT
#	Creation time:	15. 06. 2019 21:20

#	Modifying user name:	WinNT
#	Modification time:	15. 06. 2019 21:20

#	Program:	/corina/corina34_cracker 3.40 0067  02.08.2006

@<TRIPOS>MOLECULE
ASD09080080
  60   59    0    0    0
SMALL
NO_CHARGES


@<TRIPOS>ATOM
   1 C1            -0.0167     1.3831     0.0096 C.ar    
   2 C2             0.0021    -0.0041     0.0020 C.ar    
   3 C3            -1.1854    -0.7098     0.0095 C.ar    
   4 C4            -2.3921    -0.0349     0.0246 C.ar    
   5 C5            -2.4135     1.3476     0.0318 C.ar    
   6 C6            -1.2287     2.0579     0.0306 C.ar    
   7 C7            -3.6860    -0.8073     0.0328 C.3     
   8 C8            -4.1102    -1.0765     1.4779 C.3     
   9 O9             1.1501     2.0797     0.0022 O.3     
  10 P10            1.6984     2.4232    -1.4720 P.3     
  11 C11            0.6167     3.8279    -3.5650 C.3     
  12 C12            0.4841     3.6536    -2.0508 C.3     
  13 O13            2.9787     3.3437    -1.1470 O.3     
  14 C14            4.8442     4.8380    -1.5037 C.3     
  15 C15            3.6884     4.0723    -2.1507 C.3     
  16 C16           -5.4632    -1.7400     1.4891 C.2     
  17 O17           -5.5949    -2.8353     1.9818 O.2     
  18 O18           -6.5221    -1.1142     0.9515 O.3     
  19 O19           -7.6259    -1.7204     0.9916 O.3     
  20 C20           -8.7081    -0.9969     0.4022 C.3     
  21 N21           -3.1296    -1.9562     2.1189 N.am    
  22 O22           -2.0823    -2.7479     4.0477 O.3     
  23 C23           -1.9791    -2.6766     5.4943 C.3     
  24 C24           -3.3274    -3.0387     6.1203 C.3     
  25 C25           -0.9115    -3.6598     5.9784 C.3     
  26 C26           -1.5896    -1.2561     5.9084 C.3     
  27 C27           -2.9835    -1.9394     3.4586 C.2     
  28 O28           -3.6651    -1.1946     4.1348 O.2     
  29 H29            0.9443    -0.5317    -0.0101 H       
  30 H30           -1.1713    -1.7897     0.0032 H       
  31 H31           -3.3573     1.8725     0.0432 H       
  32 H32           -1.2459     3.1378     0.0362 H       
  33 H33           -4.4590    -0.2266    -0.4706 H       
  34 H34           -3.5468    -1.7550    -0.4875 H       
  35 H35           -4.1633    -0.1338     2.0226 H       
  36 H36           -0.1094     4.5636    -3.9111 H       
  37 H37            1.6233     4.1704    -3.8046 H       
  38 H38            0.4305     2.8738    -4.0582 H       
  39 H39           -0.5226     3.3112    -1.8112 H       
  40 H40            0.6703     4.6077    -1.5576 H       
  41 H41            5.3856     5.3938    -2.2694 H       
  42 H42            4.4499     5.5321    -0.7615 H       
  43 H43            5.5206     4.1338    -1.0194 H       
  44 H44            4.0828     3.3782    -2.8930 H       
  45 H45            3.0120     4.7765    -2.6351 H       
  46 H46           -9.6223    -1.5859     0.4768 H       
  47 H47           -8.8415    -0.0511     0.9272 H       
  48 H48           -8.4861    -0.8020    -0.6470 H       
  49 H49           -2.5856    -2.5507     1.5791 H       
  50 H50           -3.6049    -4.0507     5.8252 H       
  51 H51           -3.2499    -2.9852     7.2062 H       
  52 H52           -4.0880    -2.3383     5.7753 H       
  53 H53            0.0491    -3.4018     5.5325 H       
  54 H54           -0.8340    -3.6062     7.0644 H       
  55 H55           -1.1890    -4.6717     5.6834 H       
  56 H56           -2.3502    -0.5557     5.5634 H       
  57 H57           -1.5121    -1.2026     6.9943 H       
  58 H58           -0.6291    -0.9981     5.4624 H       
  59 O59           10.5206    10.5321    12.2062 O.2     
  60 O60           10.5206    11.5356    12.2062 O.2     
@<TRIPOS>BOND
   1    1    2 ar
   2    1    9 1
   3    1    6 ar
   4    2    3 ar
   5    2   29 1
   6    3    4 ar
   7    3   30 1
   8    4    5 ar
   9    4    7 1
  10    5    6 ar
  11    5   31 1
  12    6   32 1
  13    7    8 1
  14    7   33 1
  15    7   34 1
  16    8   16 1
  17    8   21 1
  18    8   35 1
  19    9   10 1
  20   10   12 1
  21   10   13 1
  22   11   12 1
  23   11   36 1
  24   11   37 1
  25   11   38 1
  26   12   39 1
  27   12   40 1
  28   13   15 1
  29   14   15 1
  30   14   41 1
  31   14   42 1
  32   14   43 1
  33   15   44 1
  34   15   45 1
  35   16   17 2
  36   16   18 1
  37   18   19 1
  38   19   20 1
  39   20   46 1
  40   20   47 1
  41   20   48 1
  42   21   27 am
  43   21   49 1
  44   22   23 1
  45   22   27 1
  46   23   24 1
  47   23   25 1
  48   23   26 1
  49   24   50 1
  50   24   51 1
  51   24   52 1
  52   25   53 1
  53   25   54 1
  54   25   55 1
  55   26   56 1
  56   26   57 1
  57   26   58 1
  58   27   28 2
  59   59   60 2

#	End of record

