#	Name: ASD01870134
#	Creating user name:	WinNT
#	Creation time:	15. 06. 2019 19:38

#	Modifying user name:	WinNT
#	Modification time:	15. 06. 2019 19:38

#	Program:	/corina/corina34_cracker 3.40 0067  02.08.2006

@<TRIPOS>MOLECULE
ASD01870134
  43   46    0    0    0
SMALL
NO_CHARGES


@<TRIPOS>ATOM
   1 C1            -0.1634     1.4692     0.5843 C.ar    
   2 C2            -0.1467    -0.0089     0.5831 C.2     
   3 N3            -1.1558    -0.6938     0.0094 N.am    
   4 O4             0.7772    -0.6068     1.0996 O.2     
   5 C5            -1.0870    -2.0879    -0.0914 C.ar    
   6 C6            -2.2420    -2.8504     0.0248 C.ar    
   7 C7             0.1356    -2.7085    -0.3134 C.ar    
   8 C8             0.2035    -4.0847    -0.4138 C.ar    
   9 C9            -0.9509    -4.8478    -0.2923 C.ar    
  10 C10           -2.1742    -4.2266    -0.0751 C.ar    
  11 Cl11          -3.6169    -5.1801     0.0773 Cl      
  12 N12           -0.8819    -6.2463    -0.3943 N.am    
  13 C13           -0.6812    -7.0409     0.6643 C.2     
  14 C14           -1.0171    -6.8954    -1.5573 C.2     
  15 C15           -0.8911    -8.3836    -1.3144 C.3     
  16 C16           -0.6610    -8.4833     0.2073 C.3     
  17 O17           -1.2103    -6.3736    -2.6344 O.2     
  18 O18           -0.5379    -6.6645     1.8078 O.2     
  19 C19           -1.9243    -9.0697    -0.4185 C.3     
  20 C20           -3.2418    -8.3326    -0.1701 C.3     
  21 C21           -2.0278   -10.5939    -0.5017 C.3     
  22 C22            0.8802     2.1811     1.1777 C.ar    
  23 Cl23           1.7315    -4.8603    -0.6924 Cl      
  24 C24           -1.2199     2.1585    -0.0130 C.ar    
  25 C25           -1.2288     3.5401    -0.0085 C.ar    
  26 C26           -0.1912     4.2399     0.5870 C.ar    
  27 C27            0.8600     3.5608     1.1757 C.ar    
  28 F28           -2.2502     4.2100    -0.5859 F       
  29 H29           -1.9298    -0.2203    -0.3337 H       
  30 H30           -3.1931    -2.3674     0.1937 H       
  31 H31            1.0330    -2.1152    -0.4078 H       
  32 H32           -0.3150    -8.9683    -2.0316 H       
  33 H33            0.0909    -9.1428     0.6406 H       
  34 H34           -3.1700    -7.3180    -0.5618 H       
  35 H35           -4.0532    -8.8594    -0.6724 H       
  36 H36           -3.4410    -8.2954     0.9009 H       
  37 H37           -1.9800   -11.0167     0.5018 H       
  38 H38           -2.9744   -10.8689    -0.9671 H       
  39 H39           -1.2029   -10.9821    -1.0992 H       
  40 H40            1.7021     1.6530     1.6380 H       
  41 H41           -2.0282     1.6134    -0.4777 H       
  42 H42           -0.2017     5.3198     0.5880 H       
  43 H43            1.6656     4.1119     1.6381 H       
@<TRIPOS>BOND
   1    1    2 1
   2    1   22 ar
   3    1   24 ar
   4    2    3 am
   5    2    4 2
   6    3    5 1
   7    3   29 1
   8    5    6 ar
   9    5    7 ar
  10    6   10 ar
  11    6   30 1
  12    7    8 ar
  13    7   31 1
  14    8    9 ar
  15    8   23 1
  16    9   10 ar
  17    9   12 1
  18   10   11 1
  19   12   13 am
  20   12   14 am
  21   13   18 2
  22   13   16 1
  23   14   17 2
  24   14   15 1
  25   15   16 1
  26   15   19 1
  27   15   32 1
  28   16   19 1
  29   16   33 1
  30   19   20 1
  31   19   21 1
  32   20   34 1
  33   20   35 1
  34   20   36 1
  35   21   37 1
  36   21   38 1
  37   21   39 1
  38   22   27 ar
  39   22   40 1
  40   24   25 ar
  41   24   41 1
  42   25   26 ar
  43   25   28 1
  44   26   27 ar
  45   26   42 1
  46   27   43 1

#	End of record

