#	Name: ASD03240031
#	Creating user name:	WinNT
#	Creation time:	15. 06. 2019 20:34

#	Modifying user name:	WinNT
#	Modification time:	15. 06. 2019 20:34

#	Program:	/corina/corina34_cracker 3.40 0067  02.08.2006

@<TRIPOS>MOLECULE
ASD03240031
  56   59    0    0    0
SMALL
NO_CHARGES


@<TRIPOS>ATOM
   1 N1            -0.0159     1.3201     0.0093 N.ar    
   2 C2             0.0021    -0.0041     0.0020 C.ar    
   3 C3             1.2159    -0.7158    -0.0134 C.ar    
   4 C4             2.4192    -0.0108    -0.0211 C.ar    
   5 C5             2.3620     1.3801    -0.0131 C.ar    
   6 C6             3.5811     2.2050    -0.0203 C.2     
   7 N7             3.4619     3.5834    -0.0118 N.am    
   8 C8             2.2245     4.1887     0.0033 C.2     
   9 C9             1.0816     3.4958     0.0109 C.2     
  10 C10            1.1062     2.0284     0.0024 C.ar    
  11 N11            5.5864     3.0875    -0.0347 N.am    
  12 N12            4.8504     1.8952    -0.0341 N.2     
  13 C13            4.7065     4.1083    -0.0208 C.2     
  14 O14            4.9844     5.2946    -0.0171 O.2     
  15 C15            1.2156    -2.1977    -0.0209 C.ar    
  16 C16            1.9816    -2.8931    -0.9557 C.ar    
  17 C17            1.9773    -4.2730    -0.9578 C.ar    
  18 C18            1.2146    -4.9665    -0.0352 C.ar    
  19 C19            0.4523    -4.2820     0.8944 C.ar    
  20 C20            0.4538    -2.9022     0.9106 C.ar    
  21 C21           -1.2782    -0.7491     0.0107 C.ar    
  22 C22           -2.3733    -0.2511     0.7162 C.ar    
  23 C23           -3.5634    -0.9494     0.7201 C.ar    
  24 C24           -3.6714    -2.1416     0.0266 C.ar    
  25 C25           -2.5885    -2.6410    -0.6746 C.ar    
  26 C26           -1.3950    -1.9486    -0.6912 C.ar    
  27 C27           -4.9739    -2.8996     0.0355 C.3     
  28 C28           -5.2195    -3.7172    -1.2436 C.3     
  29 C29           -5.7800    -4.8236    -0.3345 C.3     
  30 C30           -4.9011    -4.2406     0.7846 C.3     
  31 N31           -6.1169    -2.0649     0.4289 N.3     
  32 H32            3.3670    -0.5284    -0.0326 H       
  33 H33            2.1759     5.2676     0.0096 H       
  34 H34            0.1363     4.0178     0.0231 H       
  35 H35            6.5533     3.1643    -0.0430 H       
  36 H36            2.5768    -2.3528    -1.6769 H       
  37 H37            2.5702    -4.8127    -1.6814 H       
  38 H38            1.2141    -6.0464    -0.0409 H       
  39 H39           -0.1414    -4.8288     1.6121 H       
  40 H40           -0.1380    -2.3690     1.6399 H       
  41 H41           -2.2900     0.6792     1.2585 H       
  42 H42           -4.4122    -0.5647     1.2660 H       
  43 H43           -2.6787    -3.5724    -1.2138 H       
  44 H44           -0.5517    -2.3370    -1.2429 H       
  45 H45           -5.9647    -3.2775    -1.9065 H       
  46 H46           -4.3042    -4.0008    -1.7630 H       
  47 H47           -6.8491    -4.7315    -0.1429 H       
  48 H48           -5.4888    -5.8287    -0.6396 H       
  49 H49           -3.8987    -4.6673     0.8197 H       
  50 H50           -5.3893    -4.2234     1.7590 H       
  51 H51           -5.9229    -1.5659     1.2841 H       
  52 H52           -6.3716    -1.4284    -0.3113 H       
  53 Cl53          11.5533    10.2946     6.7590 Cl      
  54 H54           11.5533    11.6646     6.7590 H       
  55 Cl55          16.5533    16.6646    11.7590 Cl      
  56 H56           16.5533    18.0346    11.7590 H       
@<TRIPOS>BOND
   1    1    2 ar
   2    1   10 ar
   3    2    3 ar
   4    2   21 1
   5    3    4 ar
   6    3   15 1
   7    4    5 ar
   8    4   32 1
   9    5    6 1
  10    5   10 ar
  11    6    7 1
  12    6   12 2
  13    7    8 1
  14    7   13 am
  15    8    9 2
  16    8   33 1
  17    9   10 1
  18    9   34 1
  19   11   12 1
  20   11   13 am
  21   11   35 1
  22   13   14 2
  23   15   16 ar
  24   15   20 ar
  25   16   17 ar
  26   16   36 1
  27   17   18 ar
  28   17   37 1
  29   18   19 ar
  30   18   38 1
  31   19   20 ar
  32   19   39 1
  33   20   40 1
  34   21   22 ar
  35   21   26 ar
  36   22   23 ar
  37   22   41 1
  38   23   24 ar
  39   23   42 1
  40   24   25 ar
  41   24   27 1
  42   25   26 ar
  43   25   43 1
  44   26   44 1
  45   27   28 1
  46   27   30 1
  47   27   31 1
  48   28   29 1
  49   28   45 1
  50   28   46 1
  51   29   30 1
  52   29   47 1
  53   29   48 1
  54   30   49 1
  55   30   50 1
  56   31   51 1
  57   31   52 1
  58   53   54 1
  59   55   56 1

#	End of record

