#	Name: ASD01720118
#	Creating user name:	WinNT
#	Creation time:	15. 06. 2019 19:23

#	Modifying user name:	WinNT
#	Modification time:	15. 06. 2019 19:23

#	Program:	/corina/corina34_cracker 3.40 0067  02.08.2006

@<TRIPOS>MOLECULE
ASD01720118
  74   78    0    0    0
SMALL
NO_CHARGES


@<TRIPOS>ATOM
   1 C1            -0.0165     1.3645     0.0095 C.ar    
   2 C2             0.0021    -0.0041     0.0020 C.ar    
   3 C3             1.2239    -0.6746    -0.0132 C.ar    
   4 N4             2.3695    -0.0074    -0.0206 N.ar    
   5 C5             2.4006     1.3140    -0.0138 C.ar    
   6 C6             1.2064     2.0516     0.0016 C.ar    
   7 O7             3.5909     1.9597    -0.0217 O.3     
   8 C8             4.7682     1.1498    -0.0373 C.3     
   9 C9             6.0059     2.0492    -0.0443 C.3     
  10 C10            7.2664     1.1821    -0.0610 C.3     
  11 C11            8.4997     2.0777    -0.1937 C.3     
  12 C12            7.3535     0.3838     1.2413 C.3     
  13 C13            1.2369     3.5235     0.0087 C.2     
  14 O14            2.3026     4.1097     0.0017 O.2     
  15 N15            0.0839     4.2213     0.0230 N.am    
  16 C16            0.1143     5.6860     0.0301 C.3     
  17 C17           -1.1879     6.2260    -0.5647 C.3     
  18 C18           -1.1562     7.7556    -0.5572 C.3     
  19 C19            0.2640     6.1861     1.4683 C.3     
  20 C20            0.2957     7.7157     1.4757 C.3     
  21 C21           -1.0065     8.2557     0.8810 C.3     
  22 C22           -0.9202     5.6964     2.3043 C.3     
  23 C23           -2.3720     5.7363     0.2714 C.3     
  24 C24           -2.1906     7.7660     1.7170 C.3     
  25 C25           -2.2223     6.2364     1.7096 C.3     
  26 O26           -0.9769     9.6843     0.8879 O.3     
  27 N27            1.2414    -2.0588    -0.0204 N.3     
  28 C28            2.6189    -2.5676    -0.0364 C.3     
  29 C29            2.6000    -4.0900    -0.1906 C.3     
  30 C30            1.8218    -4.7066     0.9751 C.3     
  31 C31            0.4060    -4.1240     0.9982 C.3     
  32 C32            0.4885    -2.6006     1.1180 C.3     
  33 C33            1.7485    -6.2013     0.7970 C.2     
  34 O34            2.2653    -6.7214    -0.1634 O.2     
  35 O35            1.1091    -6.9548     1.7053 O.3     
  36 H36           -0.9523     1.9036     0.0169 H       
  37 H37           -0.9235    -0.5605     0.0082 H       
  38 H38            4.7848     0.5158     0.8492 H       
  39 H39            4.7678     0.5254    -0.9307 H       
  40 H40            5.9893     2.6833    -0.9308 H       
  41 H41            6.0063     2.6737     0.8491 H       
  42 H42            7.2236     0.4951    -0.9061 H       
  43 H43            8.5425     2.7647     0.6515 H       
  44 H44            9.3977     1.4600    -0.2056 H       
  45 H45            8.4377     2.6464    -1.1215 H       
  46 H46            8.2515    -0.2339     1.2294 H       
  47 H47            7.3963     1.0708     2.0865 H       
  48 H48            6.4748    -0.2542     1.3359 H       
  49 H49           -0.7659     3.7538     0.0286 H       
  50 H50            0.9579     6.0348    -0.5655 H       
  51 H51           -1.2945     5.8697    -1.5893 H       
  52 H52           -0.3126     8.1044    -1.1529 H       
  53 H53           -2.0839     8.1403    -0.9810 H       
  54 H54            1.1917     5.8014     1.8920 H       
  55 H55            0.4023     8.0719     2.5003 H       
  56 H56            1.1393     8.0645     0.8801 H       
  57 H57           -0.9427     4.6067     2.2991 H       
  58 H58           -0.8135     6.0527     3.3290 H       
  59 H59           -3.2997     6.1210    -0.1523 H       
  60 H60           -2.3946     4.6466     0.2661 H       
  61 H61           -2.0840     8.1223     2.7416 H       
  62 H62           -3.1183     8.1507     1.2933 H       
  63 H63           -3.0659     5.8875     2.3052 H       
  64 H64           -1.7727    10.0960     0.5240 H       
  65 H65            3.1600    -2.1245    -0.8724 H       
  66 H66            3.1145    -2.3033     0.8978 H       
  67 H67            2.1168    -4.3546    -1.1311 H       
  68 H68            3.6221    -4.4689    -0.1867 H       
  69 H69            2.3265    -4.4749     1.9130 H       
  70 H70           -0.1117    -4.3891     0.0764 H       
  71 H71           -0.1395    -4.5271     1.8515 H       
  72 H72            0.9941    -2.3361     2.0467 H       
  73 H73           -0.5177    -2.1815     1.1204 H       
  74 H74            1.0885    -7.9087     1.5482 H       
@<TRIPOS>BOND
   1    1    2 ar
   2    1    6 ar
   3    1   36 1
   4    2    3 ar
   5    2   37 1
   6    3    4 ar
   7    3   27 1
   8    4    5 ar
   9    5    6 ar
  10    5    7 1
  11    6   13 1
  12    7    8 1
  13    8    9 1
  14    8   38 1
  15    8   39 1
  16    9   10 1
  17    9   40 1
  18    9   41 1
  19   10   11 1
  20   10   12 1
  21   10   42 1
  22   11   43 1
  23   11   44 1
  24   11   45 1
  25   12   46 1
  26   12   47 1
  27   12   48 1
  28   13   14 2
  29   13   15 am
  30   15   16 1
  31   15   49 1
  32   16   17 1
  33   16   19 1
  34   16   50 1
  35   17   18 1
  36   17   23 1
  37   17   51 1
  38   18   21 1
  39   18   52 1
  40   18   53 1
  41   19   20 1
  42   19   22 1
  43   19   54 1
  44   20   21 1
  45   20   55 1
  46   20   56 1
  47   21   24 1
  48   21   26 1
  49   22   25 1
  50   22   57 1
  51   22   58 1
  52   23   25 1
  53   23   59 1
  54   23   60 1
  55   24   25 1
  56   24   61 1
  57   24   62 1
  58   25   63 1
  59   26   64 1
  60   27   28 1
  61   27   32 1
  62   28   29 1
  63   28   65 1
  64   28   66 1
  65   29   30 1
  66   29   67 1
  67   29   68 1
  68   30   31 1
  69   30   33 1
  70   30   69 1
  71   31   32 1
  72   31   70 1
  73   31   71 1
  74   32   72 1
  75   32   73 1
  76   33   34 2
  77   33   35 1
  78   35   74 1

#	End of record

