#	Name: ASD01411000
#	Creating user name:	WinNT
#	Creation time:	15. 06. 2019 19:19

#	Modifying user name:	WinNT
#	Modification time:	15. 06. 2019 19:19

#	Program:	/corina/corina34_cracker 3.40 0067  02.08.2006

@<TRIPOS>MOLECULE
ASD01411000
  41   44    0    0    0
SMALL
NO_CHARGES


@<TRIPOS>ATOM
   1 N1             0.2071     1.8769    -1.4223 N.am    
   2 C2             0.0189     0.5481    -1.4939 C.2     
   3 C3             1.1188    -0.4062    -1.1092 C.3     
   4 C4             2.4689     0.1554    -1.5581 C.3     
   5 C5             2.5753     1.6001    -1.1497 C.2     
   6 C6             1.4493     2.4025    -1.1116 C.2     
   7 N7             1.5676     3.6909    -0.7689 N.2     
   8 C8             3.8145     2.1489    -0.8045 C.2     
   9 N9             3.8698     3.4511    -0.4513 N.am    
  10 C10            2.7362     4.2047    -0.4473 C.2     
  11 C11            1.1239    -0.5887     0.3867 C.ar    
  12 C12            0.2650     0.1543     1.1780 C.ar    
  13 C13            0.2706    -0.0142     2.5525 C.ar    
  14 C14            1.1338    -0.9234     3.1342 C.ar    
  15 C15            1.9919    -1.6658     2.3451 C.ar    
  16 C16            1.9836    -1.5034     0.9699 C.ar    
  17 N17            2.8132     5.5287    -0.1002 N.pl3   
  18 C18            1.6450     6.2870     0.0283 C.ar    
  19 C19           -0.6657     7.7875     0.2834 C.ar    
  20 C20           -0.6632     6.4558     0.6559 C.ar    
  21 C21            0.4885     5.7041     0.5298 C.ar    
  22 C22            1.6406     7.6262    -0.3400 C.ar    
  23 C23            0.4856     8.3723    -0.2114 C.ar    
  24 O24           -1.0480     0.1128    -1.8717 O.2     
  25 O25            4.8253     1.4647    -0.8216 O.2     
  26 F26           -0.5782     1.0438     0.6097 F       
  27 F27            2.8183    -2.2336     0.1982 F       
  28 H28           -0.5364     2.4756    -1.5946 H       
  29 H29            0.9483    -1.3691    -1.5908 H       
  30 H30            3.2723    -0.4140    -1.0909 H       
  31 H31            2.5521     0.0775    -2.6421 H       
  32 H32            4.7178     3.8499    -0.2008 H       
  33 H33           -0.3994     0.5654     3.1701 H       
  34 H34            1.1380    -1.0536     4.2063 H       
  35 H35            2.6659    -2.3760     2.8007 H       
  36 H36            3.6778     5.9396     0.0562 H       
  37 H37           -1.5676     8.3732     0.3830 H       
  38 H38           -1.5640     6.0020     1.0420 H       
  39 H39            0.4897     4.6640     0.8206 H       
  40 H40            2.5395     8.0836    -0.7262 H       
  41 H41            0.4803     9.4126    -0.5015 H       
@<TRIPOS>BOND
   1    1    2 am
   2    1    6 1
   3    1   28 1
   4    2    3 1
   5    2   24 2
   6    3    4 1
   7    3   11 1
   8    3   29 1
   9    4    5 1
  10    4   30 1
  11    4   31 1
  12    5    8 1
  13    5    6 2
  14    6    7 1
  15    7   10 2
  16    8    9 am
  17    8   25 2
  18    9   10 1
  19    9   32 1
  20   10   17 1
  21   11   12 ar
  22   11   16 ar
  23   12   13 ar
  24   12   26 1
  25   13   14 ar
  26   13   33 1
  27   14   15 ar
  28   14   34 1
  29   15   16 ar
  30   15   35 1
  31   16   27 1
  32   17   18 1
  33   17   36 1
  34   18   22 ar
  35   18   21 ar
  36   19   20 ar
  37   19   23 ar
  38   19   37 1
  39   20   21 ar
  40   20   38 1
  41   21   39 1
  42   22   23 ar
  43   22   40 1
  44   23   41 1

#	End of record

