#	Name: ASD00844924
#	Creating user name:	WinNT
#	Creation time:	15. 06. 2019 18:51

#	Modifying user name:	WinNT
#	Modification time:	15. 06. 2019 18:51

#	Program:	/corina/corina34_cracker 3.40 0067  02.08.2006

@<TRIPOS>MOLECULE
ASD00844924
  89   94    0    0    0
SMALL
NO_CHARGES


@<TRIPOS>ATOM
   1 F1             5.7057    -2.1839    -1.9783 F       
   2 C2             0.7584     1.2683    -0.4600 C.ar    
   3 C3             1.0009    -0.0749    -0.7070 C.ar    
   4 C4             0.8704    -1.0010     0.3180 C.ar    
   5 C5             0.4996    -0.5835     1.5813 C.ar    
   6 C6             0.2580     0.7562     1.8249 C.ar    
   7 C7             0.3877     1.6809     0.8054 C.ar    
   8 C8             1.1326    -2.4612     0.0530 C.3     
   9 C9             0.7973    -3.2902     1.2743 C.2     
  10 C10            0.3259    -2.9382    -1.1564 C.3     
  11 C11           -1.1345    -2.6387    -0.9360 C.2     
  12 N12           -2.0519    -3.0659    -1.8261 N.am    
  13 O13           -1.4843    -2.0132     0.0424 O.2     
  14 C14           -3.4670    -2.6883    -1.6919 C.3     
  15 C15           -3.9482    -2.1194    -3.0309 C.3     
  16 N16           -3.6616    -3.0846    -4.1007 N.3     
  17 C17           -2.2165    -3.3047    -4.2467 C.3     
  18 C18           -1.6634    -3.9171    -2.9609 C.3     
  19 N19           -4.2536    -2.6591    -5.3587 N.3     
  20 C20           -3.9669    -3.6246    -6.4288 C.3     
  21 C21           -4.6718    -3.1825    -7.7134 C.3     
  22 N22           -4.2106    -1.8374    -8.0842 N.3     
  23 C23           -4.4973    -0.8719    -7.0140 C.3     
  24 C24           -3.7924    -1.3139    -5.7294 C.3     
  25 H25           -3.2279    -1.8423    -8.3130 H       
  26 O26           -0.2909    -3.3891     1.8007 O.2     
  27 N27            1.9306    -3.8962     1.6658 N.am    
  28 C28            2.6093    -2.7034    -0.1630 C.ar    
  29 C29            3.0136    -3.5737     0.8442 C.ar    
  30 C30            3.5030    -2.2392    -1.1028 C.ar    
  31 C31            4.8277    -2.6372    -1.0569 C.ar    
  32 C32            5.2521    -3.5118    -0.0514 C.ar    
  33 C33            4.3422    -3.9783     0.8968 C.ar    
  34 C34            1.7050    -6.5410     2.3925 C.ar    
  35 C35            0.4523    -6.8594     1.8878 C.ar    
  36 C36            2.6980    -7.5012     2.4361 C.ar    
  37 C37            2.4465    -8.7797     1.9771 C.ar    
  38 C38            1.1951    -9.1031     1.4713 C.ar    
  39 C39            0.1973    -8.1420     1.4269 C.ar    
  40 O40            0.9482   -10.3610     1.0203 O.3     
  41 O41           -0.5239    -5.9149     1.8456 O.3     
  42 C42           -1.7890    -6.3129     1.3133 C.3     
  43 C43            2.0226   -11.3002     1.0967 C.3     
  44 S44            2.0320    -4.9094     2.9717 S.o2    
  45 O45            3.3913    -4.8955     3.3857 O.2     
  46 O46            0.9542    -4.5652     3.8313 O.2     
  47 O47            1.3652    -0.4833    -1.9510 O.3     
  48 C48            1.3995     0.5115    -2.9763 C.3     
  49 C49            1.9117    -0.1128    -4.2758 C.3     
  50 F50            3.1624    -0.6978    -4.0507 F       
  51 F51            1.0107    -1.0910    -4.7100 F       
  52 C52            6.6209    -3.9290     0.0039 C.1     
  53 N53            7.7068    -4.2599     0.0477 N.1     
  54 H54            0.8637     1.9916    -1.2551 H       
  55 H55            0.3979    -1.3039     2.3794 H       
  56 H56           -0.0326     1.0805     2.8132 H       
  57 H57            0.1985     2.7265     0.9982 H       
  58 H58            0.6720    -2.4206    -2.0511 H       
  59 H59            0.4615    -4.0123    -1.2828 H       
  60 H60           -4.0577    -3.5674    -1.4341 H       
  61 H61           -3.5720    -1.9322    -0.9138 H       
  62 H62           -5.0217    -1.9368    -2.9838 H       
  63 H63           -3.4283    -1.1837    -3.2364 H       
  64 H64           -2.0342    -3.9816    -5.0813 H       
  65 H65           -1.7208    -2.3524    -4.4352 H       
  66 H66           -0.5767    -3.9760    -3.0213 H       
  67 H67           -2.0798    -4.9148    -2.8219 H       
  68 H68           -2.8914    -3.6681    -6.6008 H       
  69 H69           -4.3289    -4.6101    -6.1360 H       
  70 H70           -4.4370    -3.8816    -8.5161 H       
  71 H71           -5.7493    -3.1652    -7.5494 H       
  72 H72           -4.1353     0.1137    -7.3068 H       
  73 H73           -5.5728    -0.8283    -6.8421 H       
  74 H74           -4.0272    -0.6149    -4.9268 H       
  75 H75           -2.7149    -1.3312    -5.8934 H       
  76 H76            3.1693    -1.5640    -1.8769 H       
  77 H77            4.6703    -4.6537     1.6731 H       
  78 H78            3.6724    -7.2515     2.8293 H       
  79 H79            3.2244    -9.5281     2.0115 H       
  80 H80           -0.7772    -8.3918     1.0340 H       
  81 H81           -1.6609    -6.6479     0.2840 H       
  82 H82           -2.1953    -7.1276     1.9127 H       
  83 H83           -2.4756    -5.4667     1.3372 H       
  84 H84            2.8647   -10.9377     0.5071 H       
  85 H85            2.3301   -11.4167     2.1360 H       
  86 H86            1.6925   -12.2625     0.7054 H       
  87 H87            0.3955     0.9058    -3.1336 H       
  88 H88            2.0646     1.3209    -2.6752 H       
  89 H89            2.0041     0.6603    -5.0386 H       
@<TRIPOS>BOND
   1    1   31 1
   2    2    3 ar
   3    2    7 ar
   4    2   54 1
   5    3    4 ar
   6    3   47 1
   7    4    5 ar
   8    4    8 1
   9    5    6 ar
  10    5   55 1
  11    6    7 ar
  12    6   56 1
  13    7   57 1
  14    8    9 1
  15    8   10 1
  16    8   28 1
  17    9   26 2
  18    9   27 am
  19   10   11 1
  20   10   58 1
  21   10   59 1
  22   11   12 am
  23   11   13 2
  24   12   14 1
  25   12   18 1
  26   14   15 1
  27   14   60 1
  28   14   61 1
  29   15   16 1
  30   15   62 1
  31   15   63 1
  32   16   17 1
  33   16   19 1
  34   17   18 1
  35   17   64 1
  36   17   65 1
  37   18   66 1
  38   18   67 1
  39   19   20 1
  40   19   24 1
  41   20   21 1
  42   20   68 1
  43   20   69 1
  44   21   22 1
  45   21   70 1
  46   21   71 1
  47   22   23 1
  48   22   25 1
  49   23   24 1
  50   23   72 1
  51   23   73 1
  52   24   74 1
  53   24   75 1
  54   27   44 am
  55   27   29 1
  56   28   29 ar
  57   28   30 ar
  58   29   33 ar
  59   30   31 ar
  60   30   76 1
  61   31   32 ar
  62   32   33 ar
  63   32   52 1
  64   33   77 1
  65   34   35 ar
  66   34   36 ar
  67   34   44 1
  68   35   41 1
  69   35   39 ar
  70   36   37 ar
  71   36   78 1
  72   37   38 ar
  73   37   79 1
  74   38   39 ar
  75   38   40 1
  76   39   80 1
  77   40   43 1
  78   41   42 1
  79   42   81 1
  80   42   82 1
  81   42   83 1
  82   43   84 1
  83   43   85 1
  84   43   86 1
  85   44   45 2
  86   44   46 2
  87   47   48 1
  88   48   49 1
  89   48   87 1
  90   48   88 1
  91   49   50 1
  92   49   51 1
  93   49   89 1
  94   52   53 3

#	End of record

