#	Name: ASD00460059
#	Creating user name:	WinNT
#	Creation time:	15. 06. 2019 18:36

#	Modifying user name:	WinNT
#	Modification time:	15. 06. 2019 18:36

#	Program:	/corina/corina34_cracker 3.40 0067  02.08.2006

@<TRIPOS>MOLECULE
ASD00460059
  45   46    0    0    0
SMALL
NO_CHARGES


@<TRIPOS>ATOM
   1 O1             0.0983     1.2757     0.1669 O.3     
   2 C2             0.3281    -0.1280     0.3043 C.3     
   3 C3             1.1814    -0.3845     1.5492 C.3     
   4 C4             2.4957     0.3927     1.4268 C.3     
   5 C5             2.1808     1.8793     1.2341 C.3     
   6 C6             1.2889     2.0484     0.0013 C.3     
   7 C7            -1.0118    -0.8530     0.4459 C.3     
   8 O8             3.2670     0.2179     2.6170 O.3     
   9 O9             1.4612    -1.7817     1.6568 O.3     
  10 O10            3.3976     2.6047     1.0462 O.3     
  11 O11           -1.7612    -0.7092    -0.7623 O.3     
  12 O12            1.9907     1.5996    -1.1598 O.3     
  13 C13            1.4195     2.0440    -2.3920 C.3     
  14 C14            0.3880     0.1428    -3.5125 C.3     
  15 C15            1.9221     0.2315    -3.7085 C.3     
  16 O16            2.2387     1.6259    -3.5055 O.3     
  17 C17            0.0525     1.3639    -2.6272 C.3     
  18 C18            2.3040    -0.2027    -5.1250 C.3     
  19 O19           -0.8371     2.2488    -3.3111 O.3     
  20 O20            0.0378    -1.0719    -2.8463 O.3     
  21 C21            1.2635     3.5660    -2.3874 C.3     
  22 O22            3.7274    -0.2253    -5.2488 O.3     
  23 O23            2.5230     4.1730    -2.0923 O.3     
  24 H24            0.8508    -0.4988    -0.5774 H       
  25 H25            0.6420    -0.0508     2.4357 H       
  26 H26            3.0583     0.0249     0.5688 H       
  27 H27            1.6616     2.2588     2.1141 H       
  28 H28            1.0265     3.0998    -0.1160 H       
  29 H29           -0.8339    -1.9108     0.6394 H       
  30 H30           -1.5726    -0.4213     1.2749 H       
  31 H31            4.1144     0.6838     2.6085 H       
  32 H32            1.9993    -2.0171     2.4250 H       
  33 H33            3.2732     3.5550     0.9177 H       
  34 H34           -2.6242    -1.1450    -0.7440 H       
  35 H35           -0.1244     0.2149    -4.4718 H       
  36 H36            2.4352    -0.3850    -2.9705 H       
  37 H37           -0.3808     1.0417    -1.6804 H       
  38 H38            1.9065    -1.1988    -5.3193 H       
  39 H39            1.8878     0.5015    -5.8455 H       
  40 H40           -1.6897     1.8523    -3.5368 H       
  41 H41            0.2820    -1.8715    -3.3323 H       
  42 H42            0.9202     3.8990    -3.3669 H       
  43 H43            0.5348     3.8542    -1.6297 H       
  44 H44            4.0420    -0.4925    -6.1233 H       
  45 H45            2.4988     5.1395    -2.0727 H       
@<TRIPOS>BOND
   1    1    2 1
   2    1    6 1
   3    2    3 1
   4    2    7 1
   5    2   24 1
   6    3    4 1
   7    3    9 1
   8    3   25 1
   9    4    5 1
  10    4    8 1
  11    4   26 1
  12    5    6 1
  13    5   10 1
  14    5   27 1
  15    6   12 1
  16    6   28 1
  17    7   11 1
  18    7   29 1
  19    7   30 1
  20    8   31 1
  21    9   32 1
  22   10   33 1
  23   11   34 1
  24   12   13 1
  25   13   21 1
  26   13   16 1
  27   13   17 1
  28   14   15 1
  29   14   17 1
  30   14   20 1
  31   14   35 1
  32   15   16 1
  33   15   18 1
  34   15   36 1
  35   17   19 1
  36   17   37 1
  37   18   22 1
  38   18   38 1
  39   18   39 1
  40   19   40 1
  41   20   41 1
  42   21   23 1
  43   21   42 1
  44   21   43 1
  45   22   44 1
  46   23   45 1

#	End of record

