#	Name: ASD01148190
#	Creating user name:	WinNT
#	Creation time:	15. 06. 2019 19:02

#	Modifying user name:	WinNT
#	Modification time:	15. 06. 2019 19:02

#	Program:	/corina/corina34_cracker 3.40 0067  02.08.2006

@<TRIPOS>MOLECULE
ASD01148190
  43   45    0    0    0
SMALL
NO_CHARGES


@<TRIPOS>ATOM
   1 C1            -0.0167     1.3777     0.0096 C.ar    
   2 C2             0.0021    -0.0041     0.0020 C.ar    
   3 C3             1.2098    -0.6793    -0.0131 C.ar    
   4 C4             2.3977     0.0294    -0.0206 C.ar    
   5 C5             2.3777     1.4116    -0.0130 C.ar    
   6 C6             1.1710     2.0855     0.0021 C.ar    
   7 C7             3.6718     2.1839    -0.0212 C.3     
   8 O8             4.6969     1.4658    -0.7375 O.3     
   9 C9             3.5417     3.4737    -0.8661 C.3     
  10 C10            4.0452     3.0289    -2.2262 C.2     
  11 N11            4.6710     1.9094    -2.0797 N.2     
  12 C12            3.8525     3.7520    -3.4985 C.ar    
  13 C13            4.3710     3.2279    -4.6854 C.ar    
  14 C14            3.1466     4.9578    -3.5168 C.ar    
  15 C15            2.9665     5.6319    -4.7033 C.ar    
  16 C16            3.4900     5.1106    -5.8894 C.ar    
  17 C17            4.1918     3.9024    -5.8718 C.ar    
  18 C18            3.2968     5.8340    -7.1627 C.2     
  19 O19            2.6827     6.8824    -7.1787 O.2     
  20 N20            3.8018     5.3312    -8.3067 N.am    
  21 C21            4.1233     2.5056     1.4048 C.3     
  22 F22            4.2988     1.3150     2.1182 F       
  23 F23            5.3328     3.2074     1.3639 F       
  24 F24            3.1510     3.2886     2.0363 F       
  25 Cl25           1.2342    -2.4151    -0.0221 Cl      
  26 C26            3.6255     5.9913    -9.4684 C.2     
  27 O27            4.1298     5.4892   -10.6109 O.3     
  28 C28            3.9015     6.2535   -11.8242 C.3     
  29 O29            3.0116     7.0393    -9.4845 O.2     
  30 H30           -0.9593     1.9048     0.0169 H       
  31 H31           -0.9257    -0.5569     0.0082 H       
  32 H32            3.3407    -0.4970    -0.0321 H       
  33 H33            1.1559     3.1654     0.0080 H       
  34 H34            2.5017     3.7948    -0.9245 H       
  35 H35            4.1705     4.2666    -0.4611 H       
  36 H36            4.9128     2.2937    -4.6719 H       
  37 H37            2.7420     5.3607    -2.6001 H       
  38 H38            2.4203     6.5634    -4.7176 H       
  39 H39            4.5967     3.4997    -6.7884 H       
  40 H40            4.2920     4.4944    -8.2939 H       
  41 H41            2.8295     6.3518   -11.9955 H       
  42 H42            4.3448     7.2437   -11.7186 H       
  43 H43            4.3588     5.7389   -12.6693 H       
@<TRIPOS>BOND
   1    1    2 ar
   2    1    6 ar
   3    1   30 1
   4    2    3 ar
   5    2   31 1
   6    3    4 ar
   7    3   25 1
   8    4    5 ar
   9    4   32 1
  10    5    6 ar
  11    5    7 1
  12    6   33 1
  13    7    8 1
  14    7    9 1
  15    7   21 1
  16    8   11 1
  17    9   10 1
  18    9   34 1
  19    9   35 1
  20   10   11 2
  21   10   12 1
  22   12   13 ar
  23   12   14 ar
  24   13   17 ar
  25   13   36 1
  26   14   15 ar
  27   14   37 1
  28   15   16 ar
  29   15   38 1
  30   16   17 ar
  31   16   18 1
  32   17   39 1
  33   18   19 2
  34   18   20 am
  35   20   26 am
  36   20   40 1
  37   21   22 1
  38   21   23 1
  39   21   24 1
  40   26   27 1
  41   26   29 2
  42   27   28 1
  43   28   41 1
  44   28   42 1
  45   28   43 1

#	End of record

