#	Name: ASD01200379
#	Creating user name:	WinNT
#	Creation time:	15. 06. 2019 19:09

#	Modifying user name:	WinNT
#	Modification time:	15. 06. 2019 19:09

#	Program:	/corina/corina34_cracker 3.40 0067  02.08.2006

@<TRIPOS>MOLECULE
ASD01200379
  81   84    0    0    0
SMALL
NO_CHARGES


@<TRIPOS>ATOM
   1 N1            -0.0178     1.4608     0.0101 N.pl3   
   2 C2             0.0242     0.0158     0.2478 C.3     
   3 C3            -0.9851    -0.3513     1.3375 C.3     
   4 P4            -0.3962    -0.8657    -1.2916 P.3     
   5 C5             1.1730     2.1777    -0.1556 C.ar    
   6 O6            -0.2229    -2.4505    -1.0670 O.3     
   7 O7            -1.7983    -0.5704    -1.6621 O.2     
   8 O8             0.5845    -0.3807    -2.4727 O.3     
   9 C9             0.4420    -0.8099    -3.8282 C.3     
  10 C10            1.5323    -0.1636    -4.6852 C.3     
  11 C11           -0.5761    -3.4199    -2.0556 C.3     
  12 C12           -0.2854    -4.8235    -1.5204 C.3     
  13 C13            2.3813     1.5067    -0.2228 C.ar    
  14 C14            3.5670     2.2258    -0.3887 C.ar    
  15 C15            3.5280     3.6185    -0.4860 C.ar    
  16 C16            2.3206     4.2816    -0.4184 C.ar    
  17 C17            1.1417     3.5685    -0.2589 C.ar    
  18 N18           -2.3311     0.0338     0.9063 N.pl3   
  19 O19           -0.0455     4.2268    -0.1928 O.3     
  20 C20            4.8594     1.5151    -0.4605 C.2     
  21 N21            6.0184     2.0935    -0.6136 N.2     
  22 C22            7.0713     1.3224    -0.6581 C.2     
  23 C23            6.7907    -0.0126    -0.5339 C.2     
  24 S24            5.0467    -0.1801    -0.3474 S.3     
  25 C25            7.7655    -1.1039    -0.5477 C.2     
  26 C26            8.4707     1.8540    -0.8316 C.3     
  27 O27            7.3505    -2.3807    -0.4149 O.3     
  28 O28            8.9499    -0.8598    -0.6788 O.2     
  29 C29            8.3565    -3.3954    -0.4372 C.3     
  30 C30            7.7002    -4.7679    -0.2743 C.3     
  31 C31           -3.4229    -0.2022     1.7379 C.ar    
  32 C32           -3.2269    -0.8039     2.9765 C.ar    
  33 C33           -4.3183    -1.0335     3.7943 C.ar    
  34 C34           -5.5786    -0.6505     3.3421 C.ar    
  35 C35           -5.6983    -0.0563     2.0972 C.ar    
  36 N36           -4.6350     0.1534     1.3437 N.ar    
  37 O37           -6.6790    -0.8581     4.1142 O.3     
  38 C38           -7.9355    -0.4372     3.5794 C.3     
  39 C39           -9.0307    -0.7459     4.5674 C.ar    
  40 C40           -9.3852     0.1900     5.5211 C.ar    
  41 C41          -10.3897    -0.0932     6.4274 C.ar    
  42 C42          -11.0402    -1.3120     6.3799 C.ar    
  43 C43          -10.6864    -2.2475     5.4256 C.ar    
  44 C44           -9.6847    -1.9627     4.5165 C.ar    
  45 H45           -0.8709     1.9201    -0.0364 H       
  46 H46            1.0257    -0.2707     0.5686 H       
  47 H47           -0.9538    -1.4264     1.5144 H       
  48 H48           -0.7337     0.1757     2.2579 H       
  49 H49            0.5364    -1.8947    -3.8776 H       
  50 H50           -0.5379    -0.5131    -4.2023 H       
  51 H51            2.5121    -0.4604    -4.3112 H       
  52 H52            1.4235    -0.4910    -5.7192 H       
  53 H53            1.4378     0.9212    -4.6358 H       
  54 H54           -1.6375    -3.3321    -2.2877 H       
  55 H55            0.0088    -3.2473    -2.9591 H       
  56 H56            0.7760    -4.9113    -1.2884 H       
  57 H57           -0.8703    -4.9961    -0.6170 H       
  58 H58           -0.5549    -5.5629    -2.2745 H       
  59 H59            2.4075     0.4297    -0.1468 H       
  60 H60            4.4438     4.1765    -0.6139 H       
  61 H61            2.2927     5.3586    -0.4935 H       
  62 H62           -2.4620     0.4531     0.0415 H       
  63 H63           -0.4713     4.3572    -1.0512 H       
  64 H64            8.9063     2.0567     0.1469 H       
  65 H65            9.0781     1.1147    -1.3536 H       
  66 H66            8.4400     2.7752    -1.4134 H       
  67 H67            8.8894    -3.3580    -1.3873 H       
  68 H68            9.0585    -3.2291     0.3799 H       
  69 H69            7.1673    -4.8054     0.6758 H       
  70 H70            6.9982    -4.9342    -1.0915 H       
  71 H71            8.4675    -5.5419    -0.2914 H       
  72 H72           -2.2351    -1.0886     3.2954 H       
  73 H73           -4.1961    -1.4993     4.7610 H       
  74 H74           -6.6727     0.2432     1.7403 H       
  75 H75           -7.9087     0.6359     3.3901 H       
  76 H76           -8.1286    -0.9660     2.6460 H       
  77 H77           -8.8770     1.1422     5.5582 H       
  78 H78          -10.6662     0.6377     7.1730 H       
  79 H79          -11.8246    -1.5335     7.0884 H       
  80 H80          -11.1943    -3.1999     5.3887 H       
  81 H81           -9.4108    -2.6921     3.7687 H       
@<TRIPOS>BOND
   1    1    2 1
   2    1    5 1
   3    1   45 1
   4    2    3 1
   5    2    4 1
   6    2   46 1
   7    3   18 1
   8    3   47 1
   9    3   48 1
  10    4    6 1
  11    4    7 2
  12    4    8 1
  13    5   13 ar
  14    5   17 ar
  15    6   11 1
  16    8    9 1
  17    9   10 1
  18    9   49 1
  19    9   50 1
  20   10   51 1
  21   10   52 1
  22   10   53 1
  23   11   12 1
  24   11   54 1
  25   11   55 1
  26   12   56 1
  27   12   57 1
  28   12   58 1
  29   13   14 ar
  30   13   59 1
  31   14   15 ar
  32   14   20 1
  33   15   16 ar
  34   15   60 1
  35   16   17 ar
  36   16   61 1
  37   17   19 1
  38   18   31 1
  39   18   62 1
  40   19   63 1
  41   20   21 2
  42   20   24 1
  43   21   22 1
  44   22   23 2
  45   22   26 1
  46   23   24 1
  47   23   25 1
  48   25   27 1
  49   25   28 2
  50   26   64 1
  51   26   65 1
  52   26   66 1
  53   27   29 1
  54   29   30 1
  55   29   67 1
  56   29   68 1
  57   30   69 1
  58   30   70 1
  59   30   71 1
  60   31   32 ar
  61   31   36 ar
  62   32   33 ar
  63   32   72 1
  64   33   34 ar
  65   33   73 1
  66   34   35 ar
  67   34   37 1
  68   35   36 ar
  69   35   74 1
  70   37   38 1
  71   38   39 1
  72   38   75 1
  73   38   76 1
  74   39   40 ar
  75   39   44 ar
  76   40   41 ar
  77   40   77 1
  78   41   42 ar
  79   41   78 1
  80   42   43 ar
  81   42   79 1
  82   43   44 ar
  83   43   80 1
  84   44   81 1

#	End of record

