#	Name: ASD01820038
#	Creating user name:	WinNT
#	Creation time:	15. 06. 2019 19:36

#	Modifying user name:	WinNT
#	Modification time:	15. 06. 2019 19:36

#	Program:	/corina/corina34_cracker 3.40 0067  02.08.2006

@<TRIPOS>MOLECULE
ASD01820038
 105  109    0    0    0
SMALL
NO_CHARGES


@<TRIPOS>ATOM
   1 C1            -3.2469     5.9204    -0.8239 C.ar    
   2 C2            -3.4853     4.4341    -0.7626 C.3     
   3 C3            -2.3420     3.7037    -1.4680 C.3     
   4 C4            -1.0193     4.2325    -0.9826 C.2     
   5 N5            -0.8706     5.5329    -0.6701 N.am    
   6 C6            -1.9504     6.4149    -0.7752 C.ar    
   7 C7             1.2519     6.4861    -1.4236 C.3     
   8 C8             0.4314     6.0277    -0.2162 C.3     
   9 O9            -0.0764     3.4777    -0.8713 O.2     
  10 C10            2.6117     7.0029    -0.9496 C.3     
  11 N11            3.3995     7.4430    -2.1087 N.3     
  12 C12            4.6077     8.1604    -1.6822 C.3     
  13 C13           -1.7302     7.7849    -0.8305 C.ar    
  14 C14           -2.8012     8.6505    -0.9347 C.ar    
  15 C15           -4.0914     8.1546    -0.9832 C.ar    
  16 C16           -4.3135     6.7906    -0.9340 C.ar    
  17 C17            2.5872     8.2635    -3.0161 C.3     
  18 C18            3.3930     8.5813    -4.2778 C.3     
  19 C19            4.6697     9.3307    -3.8868 C.3     
  20 C20            5.4738     8.4750    -2.9041 C.3     
  21 O21           18.9518    17.1352   -10.0606 O.3     
  22 C22           19.8061    17.4651   -11.0647 C.2     
  23 C23           20.9522    18.2374   -10.8837 C.2     
  24 C24           21.3482    18.7756    -9.5658 C.2     
  25 C25           22.3771    19.5925    -9.5056 C.2     
  26 C26           20.5533    18.3692    -8.3583 C.3     
  27 N27           21.3095    18.6546    -7.1324 N.3     
  28 C28           21.7865    20.0474    -7.1402 C.3     
  29 C29           22.8652    20.1893    -8.2150 C.3     
  30 C30           20.4984    18.3826    -5.9382 C.3     
  31 N31           21.6516    18.4494   -11.9702 N.2     
  32 S32           20.9496    17.7401   -13.1718 S.3     
  33 N33           19.6468    17.0880   -12.3083 N.2     
  34 C34            5.5092     9.5978    -5.1378 C.3     
  35 C35            6.7214    10.4537    -4.7653 C.3     
  36 C36            7.5609    10.7208    -6.0162 C.3     
  37 C37            8.7732    11.5767    -5.6438 C.3     
  38 C38            9.6127    11.8438    -6.8947 C.3     
  39 C39           10.8249    12.6997    -6.5222 C.3     
  40 C40           11.6644    12.9668    -7.7731 C.3     
  41 C41           12.8766    13.8227    -7.4007 C.3     
  42 C42           13.7161    14.0898    -8.6516 C.3     
  43 C43           14.9283    14.9457    -8.2791 C.3     
  44 C44           15.7678    15.2128    -9.5301 C.3     
  45 C45           16.9801    16.0687    -9.1576 C.3     
  46 C46           17.8196    16.3358   -10.4085 C.3     
  47 H47           -3.5314     4.1163     0.2790 H       
  48 H48           -4.4275     4.1967    -1.2566 H       
  49 H49           -2.4065     2.6371    -1.2528 H       
  50 H50           -2.4216     3.8601    -2.5438 H       
  51 H51            1.3990     5.6464    -2.1028 H       
  52 H52            0.7205     7.2841    -1.9421 H       
  53 H53            0.2843     6.8674     0.4630 H       
  54 H54            0.9628     5.2297     0.3023 H       
  55 H55            2.4646     7.8426    -0.2703 H       
  56 H56            3.1431     6.2048    -0.4310 H       
  57 H57            4.3231     9.0901    -1.1896 H       
  58 H58            5.1725     7.5393    -0.9870 H       
  59 H59           -0.7230     8.1728    -0.7919 H       
  60 H60           -2.6311     9.7161    -0.9779 H       
  61 H61           -4.9270     8.8340    -1.0642 H       
  62 H62           -5.3220     6.4062    -0.9723 H       
  63 H63            1.6845     7.7173    -3.2897 H       
  64 H64            2.3121     9.1928    -2.5172 H       
  65 H65            3.6566     7.6530    -4.7846 H       
  66 H66            2.7954     9.2034    -4.9441 H       
  67 H67            4.4064    10.2778    -3.4158 H       
  68 H68            6.3629     9.0212    -2.5890 H       
  69 H69            5.7702     7.5451    -3.3893 H       
  70 H70           22.8926    19.8447   -10.4205 H       
  71 H71           19.6148    18.9232    -8.3408 H       
  72 H72           20.3388    17.3018    -8.4099 H       
  73 H73           20.9573    20.7171    -7.3679 H       
  74 H74           22.2048    20.2965    -6.1650 H       
  75 H75           23.7670    19.6673    -7.8949 H       
  76 H76           23.0917    21.2450    -8.3643 H       
  77 H77           20.2035    17.3333    -5.9306 H       
  78 H78           21.0824    18.6024    -5.0445 H       
  79 H79           19.6074    19.0104    -5.9535 H       
  80 H80            5.8483     8.6504    -5.5568 H       
  81 H81            4.9045    10.1256    -5.8753 H       
  82 H82            6.3823    11.4011    -4.3462 H       
  83 H83            7.3261     9.9259    -4.0278 H       
  84 H84            7.9000     9.7734    -6.4353 H       
  85 H85            6.9563    11.2486    -6.7537 H       
  86 H86            8.4341    12.5241    -5.2247 H       
  87 H87            9.3778    11.0489    -4.9063 H       
  88 H88            9.9518    10.8964    -7.3138 H       
  89 H89            9.0080    12.3716    -7.6322 H       
  90 H90           10.4858    13.6471    -6.1031 H       
  91 H91           11.4296    12.1719    -5.7847 H       
  92 H92           12.0035    12.0194    -8.1922 H       
  93 H93           11.0597    13.4946    -8.5106 H       
  94 H94           12.5375    14.7701    -6.9816 H       
  95 H95           13.4813    13.2949    -6.6632 H       
  96 H96           14.0552    13.1424    -9.0707 H       
  97 H97           13.1114    14.6176    -9.3891 H       
  98 H98           14.5892    15.8931    -7.8601 H       
  99 H99           15.5330    14.4179    -7.5416 H       
 100 H100          16.1069    14.2654    -9.9491 H       
 101 H101          15.1632    15.7406   -10.2676 H       
 102 H102          16.6410    17.0161    -8.7385 H       
 103 H103          17.5847    15.5409    -8.4201 H       
 104 H104          17.2149    16.8636   -11.1460 H       
 105 H105          18.1587    15.3884   -10.8276 H       
@<TRIPOS>BOND
   1    1    2 1
   2    1    6 ar
   3    1   16 ar
   4    2    3 1
   5    2   47 1
   6    2   48 1
   7    3    4 1
   8    3   49 1
   9    3   50 1
  10    4    5 am
  11    4    9 2
  12    5    6 1
  13    5    8 1
  14    6   13 ar
  15    7    8 1
  16    7   10 1
  17    7   51 1
  18    7   52 1
  19    8   53 1
  20    8   54 1
  21   10   11 1
  22   10   55 1
  23   10   56 1
  24   11   12 1
  25   11   17 1
  26   12   20 1
  27   12   57 1
  28   12   58 1
  29   13   14 ar
  30   13   59 1
  31   14   15 ar
  32   14   60 1
  33   15   16 ar
  34   15   61 1
  35   16   62 1
  36   17   18 1
  37   17   63 1
  38   17   64 1
  39   18   19 1
  40   18   65 1
  41   18   66 1
  42   19   34 1
  43   19   20 1
  44   19   67 1
  45   20   68 1
  46   20   69 1
  47   21   46 1
  48   21   22 1
  49   22   23 1
  50   22   33 2
  51   23   24 1
  52   23   31 2
  53   24   25 2
  54   24   26 1
  55   25   29 1
  56   25   70 1
  57   26   27 1
  58   26   71 1
  59   26   72 1
  60   27   28 1
  61   27   30 1
  62   28   29 1
  63   28   73 1
  64   28   74 1
  65   29   75 1
  66   29   76 1
  67   30   77 1
  68   30   78 1
  69   30   79 1
  70   31   32 1
  71   32   33 1
  72   34   35 1
  73   34   80 1
  74   34   81 1
  75   35   36 1
  76   35   82 1
  77   35   83 1
  78   36   37 1
  79   36   84 1
  80   36   85 1
  81   37   38 1
  82   37   86 1
  83   37   87 1
  84   38   39 1
  85   38   88 1
  86   38   89 1
  87   39   40 1
  88   39   90 1
  89   39   91 1
  90   40   41 1
  91   40   92 1
  92   40   93 1
  93   41   42 1
  94   41   94 1
  95   41   95 1
  96   42   43 1
  97   42   96 1
  98   42   97 1
  99   43   44 1
 100   43   98 1
 101   43   99 1
 102   44   45 1
 103   44  100 1
 104   44  101 1
 105   45   46 1
 106   45  102 1
 107   45  103 1
 108   46  104 1
 109   46  105 1

#	End of record

