#	Name: ASD01870084
#	Creating user name:	WinNT
#	Creation time:	15. 06. 2019 19:38

#	Modifying user name:	WinNT
#	Modification time:	15. 06. 2019 19:38

#	Program:	/corina/corina34_cracker 3.40 0067  02.08.2006

@<TRIPOS>MOLECULE
ASD01870084
  30   32    0    0    0
SMALL
NO_CHARGES


@<TRIPOS>ATOM
   1 C1            -0.0168     1.3887     0.0097 C.ar    
   2 C2             0.0021    -0.0041     0.0020 C.ar    
   3 C3             1.1778    -0.6915    -0.0124 C.ar    
   4 C4             2.3958     0.0077    -0.0202 C.ar    
   5 C5             2.3748     1.4259    -0.0129 C.ar    
   6 C6             1.1429     2.1024     0.0024 C.ar    
   7 N7             3.5624    -0.6490    -0.0339 N.ar    
   8 C8             4.7074    -0.0184    -0.0410 C.ar    
   9 C9             4.7724     1.3895    -0.0346 C.ar    
  10 C10            3.5907     2.1288    -0.0208 C.ar    
  11 C11            6.0737     2.0716    -0.0424 C.2     
  12 C12            7.2180     1.3472    -0.0558 C.2     
  13 C13            8.4663     2.0016    -0.0633 C.2     
  14 O14            8.5159     3.2150    -0.0577 O.2     
  15 C15            9.7395     1.1955    -0.0782 C.3     
  16 C16           10.9894     1.8597    -0.6592 C.3     
  17 C17           10.8700     1.6431     0.8506 C.3     
  18 H18           -0.9631     1.9091     0.0170 H       
  19 H19           -0.9310    -0.5479     0.0080 H       
  20 H20            1.1734    -1.7715    -0.0175 H       
  21 H21            1.1163     3.1821     0.0078 H       
  22 H22            5.6242    -0.5891    -0.0517 H       
  23 H23            3.6096     3.2086    -0.0159 H       
  24 H24            6.1178     3.1507    -0.0374 H       
  25 H25            7.1739     0.2681    -0.0608 H       
  26 H26            9.6163     0.1249    -0.2419 H       
  27 H27           11.6886     1.2261    -1.2048 H       
  28 H28           10.8908     2.8797    -1.0307 H       
  29 H29           10.6927     2.5206     1.4725 H       
  30 H30           11.4906     0.8669     1.2984 H       
@<TRIPOS>BOND
   1    1    2 ar
   2    1    6 ar
   3    1   18 1
   4    2    3 ar
   5    2   19 1
   6    3    4 ar
   7    3   20 1
   8    4    5 ar
   9    4    7 ar
  10    5    6 ar
  11    5   10 ar
  12    6   21 1
  13    7    8 ar
  14    8    9 ar
  15    8   22 1
  16    9   10 ar
  17    9   11 1
  18   10   23 1
  19   11   12 2
  20   11   24 1
  21   12   13 1
  22   12   25 1
  23   13   14 2
  24   13   15 1
  25   15   16 1
  26   15   17 1
  27   15   26 1
  28   16   17 1
  29   16   27 1
  30   16   28 1
  31   17   29 1
  32   17   30 1

#	End of record

