#	Name: ASD03090114
#	Creating user name:	WinNT
#	Creation time:	15. 06. 2019 20:28

#	Modifying user name:	WinNT
#	Modification time:	15. 06. 2019 20:28

#	Program:	/corina/corina34_cracker 3.40 0067  02.08.2006

@<TRIPOS>MOLECULE
ASD03090114
  51   53    0    0    0
SMALL
NO_CHARGES


@<TRIPOS>ATOM
   1 C1            -0.0186     1.5024     0.0154 C.2     
   2 C2             0.0014    -0.0045     0.0123 C.3     
   3 O3             1.0237     2.1227     0.0093 O.2     
   4 N4            -1.1946     2.1607     0.0195 N.am    
   5 C5             1.4287    -0.4880     0.0013 C.ar    
   6 C6             2.0905    -0.7116     1.1947 C.ar    
   7 C7             3.3986    -1.1547     1.1881 C.ar    
   8 C8             4.0493    -1.3757    -0.0191 C.ar    
   9 C9             3.3815    -1.1500    -1.2160 C.ar    
  10 C10            2.0717    -0.7123    -1.2023 C.ar    
  11 N11            5.3724    -1.8233    -0.0293 N.pl3   
  12 C12            6.0571    -2.0558    -1.3034 C.3     
  13 O13            8.5441    -1.7470    -0.9013 O.3     
  14 C14            7.4625    -2.5312    -1.0389 C.2     
  15 C15            7.8464    -3.8129    -0.9002 C.2     
  16 C16            9.2405    -3.7998    -0.6653 C.2     
  17 C17            9.6252    -2.5108    -0.6746 C.2     
  18 C18           11.0308    -2.0091    -0.4659 C.3     
  19 C19           11.7463    -1.9205    -1.8154 C.3     
  20 C20           -1.2153     3.5574     0.1329 C.ar    
  21 C21           -2.1839     4.2939    -0.5363 C.ar    
  22 C22           -2.2048     5.6696    -0.4248 C.ar    
  23 C23           -1.2567     6.3175     0.3575 C.ar    
  24 C24           -0.2879     5.5802     1.0273 C.ar    
  25 C25           -0.2708     4.2041     0.9191 C.ar    
  26 S26           -1.2824     8.0736     0.4997 S.3     
  27 C27            0.1193     8.4145     1.5995 C.3     
  28 F28           -0.0833     7.7727     2.8260 F       
  29 F29            1.2978     7.9397     1.0139 F       
  30 H30           -0.5013    -0.3764     0.9052 H       
  31 H31           -0.5139    -0.3729    -0.8747 H       
  32 H32           -2.0266     1.6678    -0.0562 H       
  33 H33            1.5841    -0.5393     2.1329 H       
  34 H34            3.9150    -1.3289     2.1205 H       
  35 H35            3.8846    -1.3208    -2.1563 H       
  36 H36            1.5504    -0.5412    -2.1325 H       
  37 H37            5.8378    -1.9803     0.8071 H       
  38 H38            5.5184    -2.8135    -1.8725 H       
  39 H39            6.0889    -1.1274    -1.8736 H       
  40 H40            7.2114    -4.6847    -0.9568 H       
  41 H41            9.8749    -4.6596    -0.5083 H       
  42 H42           10.9995    -1.0215    -0.0057 H       
  43 H43           11.5690    -2.6969     0.1863 H       
  44 H44           12.7630    -1.5576    -1.6644 H       
  45 H45           11.7776    -2.9081    -2.2755 H       
  46 H46           11.2081    -1.2327    -2.4675 H       
  47 H47           -2.9208     3.7903    -1.1443 H       
  48 H48           -2.9577     6.2424    -0.9458 H       
  49 H49            0.4492     6.0833     1.6355 H       
  50 H50            0.4798     3.6306     1.4427 H       
  51 H51            0.2013     9.4893     1.7611 H       
@<TRIPOS>BOND
   1    1    2 1
   2    1    3 2
   3    1    4 am
   4    2    5 1
   5    2   30 1
   6    2   31 1
   7    4   20 1
   8    4   32 1
   9    5    6 ar
  10    5   10 ar
  11    6    7 ar
  12    6   33 1
  13    7    8 ar
  14    7   34 1
  15    8    9 ar
  16    8   11 1
  17    9   10 ar
  18    9   35 1
  19   10   36 1
  20   11   12 1
  21   11   37 1
  22   12   14 1
  23   12   38 1
  24   12   39 1
  25   13   14 1
  26   13   17 1
  27   14   15 2
  28   15   16 1
  29   15   40 1
  30   16   17 2
  31   16   41 1
  32   17   18 1
  33   18   19 1
  34   18   42 1
  35   18   43 1
  36   19   44 1
  37   19   45 1
  38   19   46 1
  39   20   21 ar
  40   20   25 ar
  41   21   22 ar
  42   21   47 1
  43   22   23 ar
  44   22   48 1
  45   23   24 ar
  46   23   26 1
  47   24   25 ar
  48   24   49 1
  49   25   50 1
  50   26   27 1
  51   27   28 1
  52   27   29 1
  53   27   51 1

#	End of record

