#	Name: ASD03240926
#	Creating user name:	WinNT
#	Creation time:	15. 06. 2019 20:35

#	Modifying user name:	WinNT
#	Modification time:	15. 06. 2019 20:35

#	Program:	/corina/corina34_cracker 3.40 0067  02.08.2006

@<TRIPOS>MOLECULE
ASD03240926
  79   86    0    0    0
SMALL
NO_CHARGES


@<TRIPOS>ATOM
   1 N1            -0.0165     1.3644     0.0095 N.pl3   
   2 C2             0.0021    -0.0041     0.0020 C.2     
   3 N3             1.1520    -0.7012    -0.0131 N.2     
   4 C4             2.3201    -0.1125    -0.0215 C.2     
   5 C5             2.3794     1.3476    -0.0142 C.ar    
   6 C6             3.5983     2.0343    -0.0225 C.ar    
   7 C7             3.5625     3.4247    -0.0146 C.ar    
   8 C8             2.3153     4.0793     0.0012 C.ar    
   9 N9             1.1813     3.3950     0.0086 N.ar    
  10 C10            1.1694     2.0733     0.0020 C.ar    
  11 C11           -1.3218    -0.4220     0.0129 C.2     
  12 C12           -2.1233     0.7125     0.0269 C.2     
  13 N13           -1.3548     1.7753     0.0302 N.2     
  14 C14            2.2712     5.5595     0.0101 C.ar    
  15 C15            1.2560     6.2339    -0.6682 C.ar    
  16 C16            1.2200     7.6132    -0.6558 C.ar    
  17 C17            2.1882     8.3271     0.0276 C.ar    
  18 C18            3.1977     7.6639     0.7022 C.ar    
  19 C19            3.2415     6.2848     0.7017 C.ar    
  20 C20            2.1433     9.8334     0.0367 C.3     
  21 N21            1.3452    10.2926     1.1813 N.3     
  22 C22            1.4722    11.7443     1.3628 C.3     
  23 C23            0.7487    12.1646     2.6442 C.3     
  24 C24           -0.7276    11.7712     2.5436 C.3     
  25 C25           -0.8305    10.2620     2.3064 C.3     
  26 C26           -0.0613     9.8968     1.0348 C.3     
  27 N27           -2.5734    13.2072     5.2568 N.2     
  28 N28           -2.0994    13.2268     4.0621 N.2     
  29 C29           -1.4326    12.1286     3.8266 C.2     
  30 N30           -1.4921    11.3660     4.9521 N.pl3   
  31 C31           -2.2311    12.0859     5.8514 C.2     
  32 C32           -2.5787    11.6794     7.2307 C.ar    
  33 C33           -3.3444    12.5218     8.0374 C.ar    
  34 C34           -3.6652    12.1369     9.3229 C.ar    
  35 C35           -3.2291    10.9186     9.8125 C.ar    
  36 C36           -2.4692    10.0790     9.0178 C.ar    
  37 C37           -2.1469    10.4496     7.7284 C.ar    
  38 C38           -3.5832    10.5045    11.2176 C.3     
  39 F39           -4.7935     9.8030    11.2061 F       
  40 F40           -2.5731     9.6834    11.7302 F       
  41 F41           -3.7114    11.6427    12.0209 F       
  42 C42            4.8213     4.2081    -0.0223 C.ar    
  43 C43            5.8335     3.9147     0.8902 C.ar    
  44 C44            7.0032     4.6469     0.8781 C.ar    
  45 C45            7.1723     5.6702    -0.0372 C.ar    
  46 C46            6.1712     5.9661    -0.9448 C.ar    
  47 C47            4.9995     5.2369    -0.9458 C.ar    
  48 C48           -3.6302     0.7208     0.0412 C.3     
  49 H49            3.2279    -0.6974    -0.0333 H       
  50 H50            4.5376     1.5015    -0.0343 H       
  51 H51           -1.6666    -1.4455     0.0105 H       
  52 H52            0.4998     5.6777    -1.2023 H       
  53 H53            0.4347     8.1365    -1.1809 H       
  54 H54            3.9507     8.2268     1.2339 H       
  55 H55            4.0274     5.7681     1.2324 H       
  56 H56            3.1566    10.2266     0.1191 H       
  57 H57            1.6898    10.1890    -0.8885 H       
  58 H58            2.5266    12.0101     1.4371 H       
  59 H59            1.0277    12.2572     0.5099 H       
  60 H60            1.2017    11.6627     3.4992 H       
  61 H61            0.8299    13.2443     2.7704 H       
  62 H62           -1.1904    12.3030     1.7122 H       
  63 H63           -0.4024     9.7301     3.1561 H       
  64 H64           -1.8777     9.9823     2.1913 H       
  65 H65           -0.4986    10.4183     0.1834 H       
  66 H66           -0.1206     8.8208     0.8709 H       
  67 H67           -1.0931    10.4925     5.0888 H       
  68 H68           -3.6851    13.4732     7.6564 H       
  69 H69           -4.2575    12.7881     9.9485 H       
  70 H70           -2.1312     9.1296     9.4060 H       
  71 H71           -1.5580     9.7911     7.1072 H       
  72 H72            5.7023     3.1162     1.6055 H       
  73 H73            7.7879     4.4207     1.5849 H       
  74 H74            8.0894     6.2405    -0.0430 H       
  75 H75            6.3085     6.7666    -1.6566 H       
  76 H76            4.2204     5.4659    -1.6578 H       
  77 H77           -3.9838     0.7169     1.0722 H       
  78 H78           -3.9934     1.6156    -0.4642 H       
  79 H79           -4.0033    -0.1643    -0.4742 H       
@<TRIPOS>BOND
   1    1    2 1
   2    1   10 1
   3    1   13 1
   4    2    3 1
   5    2   11 2
   6    3    4 2
   7    4    5 1
   8    4   49 1
   9    5    6 ar
  10    5   10 ar
  11    6    7 ar
  12    6   50 1
  13    7    8 ar
  14    7   42 1
  15    8    9 ar
  16    8   14 1
  17    9   10 ar
  18   11   12 1
  19   11   51 1
  20   12   13 2
  21   12   48 1
  22   14   15 ar
  23   14   19 ar
  24   15   16 ar
  25   15   52 1
  26   16   17 ar
  27   16   53 1
  28   17   18 ar
  29   17   20 1
  30   18   19 ar
  31   18   54 1
  32   19   55 1
  33   20   21 1
  34   20   56 1
  35   20   57 1
  36   21   22 1
  37   21   26 1
  38   22   23 1
  39   22   58 1
  40   22   59 1
  41   23   24 1
  42   23   60 1
  43   23   61 1
  44   24   25 1
  45   24   29 1
  46   24   62 1
  47   25   26 1
  48   25   63 1
  49   25   64 1
  50   26   65 1
  51   26   66 1
  52   27   28 1
  53   27   31 2
  54   28   29 2
  55   29   30 1
  56   30   31 1
  57   30   67 1
  58   31   32 1
  59   32   33 ar
  60   32   37 ar
  61   33   34 ar
  62   33   68 1
  63   34   35 ar
  64   34   69 1
  65   35   36 ar
  66   35   38 1
  67   36   37 ar
  68   36   70 1
  69   37   71 1
  70   38   39 1
  71   38   40 1
  72   38   41 1
  73   42   43 ar
  74   42   47 ar
  75   43   44 ar
  76   43   72 1
  77   44   45 ar
  78   44   73 1
  79   45   46 ar
  80   45   74 1
  81   46   47 ar
  82   46   75 1
  83   47   76 1
  84   48   77 1
  85   48   78 1
  86   48   79 1

#	End of record

