#	Name: ASD01209210
#	Creating user name:	WinNT
#	Creation time:	15. 06. 2019 19:11

#	Modifying user name:	WinNT
#	Modification time:	15. 06. 2019 19:11

#	Program:	/corina/corina34_cracker 3.40 0067  02.08.2006

@<TRIPOS>MOLECULE
ASD01209210
  67   69    0    0    0
SMALL
NO_CHARGES


@<TRIPOS>ATOM
   1 O1            -4.6490     7.4397    -0.6123 O.3     
   2 O2            -7.0759     7.1525    -1.5816 O.3     
   3 C3            -0.1543     6.2588    -8.3363 C.2     
   4 C4             0.5092     5.9176    -7.1742 C.2     
   5 C5            -0.0871     5.7670    -5.8388 C.2     
   6 N6            -1.4235     5.8485    -5.6844 N.am    
   7 O7             0.6258     5.5689    -4.8732 O.2     
   8 C8            -1.9954     5.6017    -4.4432 C.2     
   9 P9            -5.5053     7.0901    -1.9301 P.3     
  10 O10           -5.1966     8.0717    -2.9938 O.2     
  11 C11           -5.0768     5.4146    -2.5064 C.3     
  12 N12           -3.2654     5.6530    -4.1873 N.2     
  13 S13           -1.1280     5.1790    -3.0319 S.3     
  14 C14           -2.6324     5.0983    -2.1187 C.2     
  15 C15           -3.6363     5.3885    -2.9485 C.2     
  16 N16            1.8280     5.7457    -7.5016 N.pl3   
  17 N17            1.9596     5.9859    -8.8750 N.2     
  18 C18            0.7832     6.2895    -9.3655 C.2     
  19 C19            0.4922     6.6173   -10.8073 C.3     
  20 C20            0.2728     8.1244   -10.9535 C.3     
  21 C21            2.8588     5.3941    -6.6217 C.ar    
  22 C22            2.6656     4.3790    -5.6937 C.ar    
  23 C23            4.0785     6.0558    -6.6788 C.ar    
  24 C24            5.0932     5.7066    -5.8095 C.ar    
  25 C25            4.8958     4.6992    -4.8829 C.ar    
  26 C26            3.6844     4.0346    -4.8272 C.ar    
  27 S27            6.1932     4.2564    -3.7760 S.o2    
  28 O28            5.9250     2.9004    -3.4464 O.2     
  29 C29           -4.6815     8.7209     0.0198 C.3     
  30 C30           -3.7570     8.7118     1.2389 C.3     
  31 C31           -7.7418     8.3587    -1.2025 C.3     
  32 C32           -9.2208     8.0651    -0.9435 C.3     
  33 O33            7.3813     4.6218    -4.4645 O.2     
  34 C34            5.9403     5.3245    -2.3317 C.3     
  35 C35            1.6754     6.1874   -11.6769 C.3     
  36 C36           -0.7671     5.8727   -11.2555 C.3     
  37 H37           -1.2110     6.4609    -8.4309 H       
  38 H38           -1.9858     6.0794    -6.4403 H       
  39 H39           -5.2203     4.7029    -1.6934 H       
  40 H40           -5.7189     5.1433    -3.3444 H       
  41 H41           -2.7261     4.8531    -1.0711 H       
  42 H42            1.1699     8.6548   -10.6342 H       
  43 H43            0.0623     8.3614   -11.9963 H       
  44 H44           -0.5702     8.4306   -10.3340 H       
  45 H45            1.7197     3.8598    -5.6496 H       
  46 H46            4.2334     6.8423    -7.4025 H       
  47 H47            6.0421     6.2205    -5.8537 H       
  48 H48            3.5332     3.2486    -4.1021 H       
  49 H49           -4.3464     9.4822    -0.6846 H       
  50 H50           -5.7000     8.9434     0.3379 H       
  51 H51           -3.7818     9.6890     1.7210 H       
  52 H52           -4.0921     7.9505     1.9433 H       
  53 H53           -2.7384     8.4893     0.9208 H       
  54 H54           -7.2859     8.7557    -0.2955 H       
  55 H55           -7.6518     9.0910    -2.0049 H       
  56 H56           -9.7287     8.9851    -0.6544 H       
  57 H57           -9.6767     7.6681    -1.8506 H       
  58 H58           -9.3108     7.3328    -0.1412 H       
  59 H59            4.9566     5.1305    -1.9041 H       
  60 H60            6.7080     5.1157    -1.5866 H       
  61 H61            6.0044     6.3690    -2.6366 H       
  62 H62            1.8317     5.1138   -11.5727 H       
  63 H63            1.4649     6.4245   -12.7197 H       
  64 H64            2.5725     6.7179   -11.3576 H       
  65 H65           -1.6100     6.1789   -10.6360 H       
  66 H66           -0.9775     6.1098   -12.2983 H       
  67 H67           -0.6107     4.7990   -11.1513 H       
@<TRIPOS>BOND
   1    1   29 1
   2    1    9 1
   3    2   31 1
   4    2    9 1
   5    3    4 2
   6    3   18 1
   7    3   37 1
   8    4    5 1
   9    4   16 1
  10    5    6 am
  11    5    7 2
  12    6    8 1
  13    6   38 1
  14    8   12 2
  15    8   13 1
  16    9   10 2
  17    9   11 1
  18   11   15 1
  19   11   39 1
  20   11   40 1
  21   12   15 1
  22   13   14 1
  23   14   15 2
  24   14   41 1
  25   16   17 1
  26   16   21 1
  27   17   18 2
  28   18   19 1
  29   19   20 1
  30   19   35 1
  31   19   36 1
  32   20   42 1
  33   20   43 1
  34   20   44 1
  35   21   22 ar
  36   21   23 ar
  37   22   26 ar
  38   22   45 1
  39   23   24 ar
  40   23   46 1
  41   24   25 ar
  42   24   47 1
  43   25   26 ar
  44   25   27 1
  45   26   48 1
  46   27   28 2
  47   27   33 2
  48   27   34 1
  49   29   30 1
  50   29   49 1
  51   29   50 1
  52   30   51 1
  53   30   52 1
  54   30   53 1
  55   31   32 1
  56   31   54 1
  57   31   55 1
  58   32   56 1
  59   32   57 1
  60   32   58 1
  61   34   59 1
  62   34   60 1
  63   34   61 1
  64   35   62 1
  65   35   63 1
  66   35   64 1
  67   36   65 1
  68   36   66 1
  69   36   67 1

#	End of record

