#	Name: ASD01812727
#	Creating user name:	WinNT
#	Creation time:	15. 06. 2019 19:29

#	Modifying user name:	WinNT
#	Modification time:	15. 06. 2019 19:29

#	Program:	/corina/corina34_cracker 3.40 0067  02.08.2006

@<TRIPOS>MOLECULE
ASD01812727
  59   63    0    0    0
SMALL
NO_CHARGES


@<TRIPOS>ATOM
   1 C1            -0.0167     1.3764     0.0227 C.ar    
   2 C2             0.0019    -0.0040     0.0170 C.ar    
   3 C3             1.2084    -0.6873    -0.0072 C.ar    
   4 C4             2.3936     0.0073    -0.0260 C.ar    
   5 C5             2.3937     1.4056    -0.0210 C.ar    
   6 C6             1.1718     2.0915     0.0039 C.ar    
   7 C7             3.8406    -0.4179    -0.0540 C.3     
   8 N8             4.6307     0.8186    -0.0641 N.am    
   9 C9             3.7911     1.8681    -0.0449 C.2     
  10 C10            6.0934     0.8964    -0.0901 C.3     
  11 C11            6.5693     0.9279    -1.5196 C.ar    
  12 C12            6.7234     2.1399    -2.1681 C.ar    
  13 C13            7.1594     2.1744    -3.4772 C.ar    
  14 C14            7.4445     0.9858    -4.1453 C.ar    
  15 C15            7.2877    -0.2320    -3.4875 C.ar    
  16 C16            6.8560    -0.2550    -2.1767 C.ar    
  17 O17            1.1515     3.4479     0.0091 O.3     
  18 O18            4.1366     3.0339    -0.0467 O.2     
  19 C19            7.3319     1.6990    -6.5823 C.2     
  20 C20            7.9135     1.0169    -5.5537 C.2     
  21 C21            9.0396     0.3475    -6.0709 C.2     
  22 N22            9.1230     0.6191    -7.3464 N.2     
  23 N23            8.0624     1.4656    -7.6912 N.pl3   
  24 C24            9.9842    -0.5290    -5.2894 C.3     
  25 C25            7.7926     2.0043    -9.0266 C.3     
  26 C26           -0.1276     4.0779    -0.0868 C.3     
  27 C27            0.0363     5.4818    -0.6771 C.3     
  28 C28           -1.3291     6.1756    -0.7025 C.3     
  29 C29           -1.9043     6.2052     0.7159 C.3     
  30 O30           -2.0017     4.8705     1.2170 O.3     
  31 C31           -0.7492     4.1885     1.3079 C.3     
  32 O32            0.5478     5.3841    -2.0078 O.3     
  33 H33           -0.9603     1.9016     0.0374 H       
  34 H34           -0.9274    -0.5542     0.0317 H       
  35 H35            1.2164    -1.7672    -0.0109 H       
  36 H36            4.0757    -1.0056     0.8333 H       
  37 H37            4.0430    -0.9992    -0.9536 H       
  38 H38            6.4182     1.8027     0.4210 H       
  39 H39            6.5126     0.0252     0.4133 H       
  40 H40            6.5017     3.0608    -1.6493 H       
  41 H41            7.2791     3.1213    -3.9828 H       
  42 H42            7.5074    -1.1564    -4.0010 H       
  43 H43            6.7380    -1.1984    -1.6645 H       
  44 H44            6.4444     2.3113    -6.5204 H       
  45 H45            9.6279    -1.5588    -5.3131 H       
  46 H46           10.9784    -0.4781    -5.7333 H       
  47 H47           10.0294    -0.1839    -4.2565 H       
  48 H48            8.3096     2.9565    -9.1455 H       
  49 H49            8.1477     1.3016    -9.7804 H       
  50 H50            6.7200     2.1556    -9.1475 H       
  51 H51           -0.7780     3.4857    -0.7305 H       
  52 H52            0.7266     6.0581    -0.0611 H       
  53 H53           -1.2128     7.1952    -1.0698 H       
  54 H54           -2.0047     5.6261    -1.3582 H       
  55 H55           -1.2486     6.7891     1.3619 H       
  56 H56           -2.8949     6.6596     0.6970 H       
  57 H57           -0.9076     3.1901     1.7155 H       
  58 H58           -0.0784     4.7460     1.9617 H       
  59 H59            0.6766     6.2379    -2.4433 H       
@<TRIPOS>BOND
   1    1    2 ar
   2    1    6 ar
   3    1   33 1
   4    2    3 ar
   5    2   34 1
   6    3    4 ar
   7    3   35 1
   8    4    7 1
   9    4    5 ar
  10    5    6 ar
  11    5    9 1
  12    6   17 1
  13    7    8 1
  14    7   36 1
  15    7   37 1
  16    8    9 am
  17    8   10 1
  18    9   18 2
  19   10   11 1
  20   10   38 1
  21   10   39 1
  22   11   12 ar
  23   11   16 ar
  24   12   13 ar
  25   12   40 1
  26   13   14 ar
  27   13   41 1
  28   14   15 ar
  29   14   20 1
  30   15   16 ar
  31   15   42 1
  32   16   43 1
  33   17   26 1
  34   19   20 2
  35   19   23 1
  36   19   44 1
  37   20   21 1
  38   21   22 2
  39   21   24 1
  40   22   23 1
  41   23   25 1
  42   24   45 1
  43   24   46 1
  44   24   47 1
  45   25   48 1
  46   25   49 1
  47   25   50 1
  48   26   27 1
  49   26   31 1
  50   26   51 1
  51   27   28 1
  52   27   32 1
  53   27   52 1
  54   28   29 1
  55   28   53 1
  56   28   54 1
  57   29   30 1
  58   29   55 1
  59   29   56 1
  60   30   31 1
  61   31   57 1
  62   31   58 1
  63   32   59 1

#	End of record

