#	Name: ASD01915843
#	Creating user name:	WinNT
#	Creation time:	15. 06. 2019 20:06

#	Modifying user name:	WinNT
#	Modification time:	15. 06. 2019 20:06

#	Program:	/corina/corina34_cracker 3.40 0067  02.08.2006

@<TRIPOS>MOLECULE
ASD01915843
  35   37    0    0    0
SMALL
NO_CHARGES


@<TRIPOS>ATOM
   1 C1            -0.0166     1.3727     0.0096 C.2     
   2 N2             0.0021    -0.0041     0.0020 N.pl3   
   3 C3            -1.2434    -0.7807    -0.0179 C.3     
   4 C4            -2.3411     0.0066     0.6955 C.3     
   5 N5            -2.4047     1.3987     0.2638 N.am    
   6 C6            -1.2817     2.1229     0.0393 C.2     
   7 C7             1.2842     1.7904    -0.0006 C.2     
   8 C8             2.0436     0.6125    -0.0023 C.2     
   9 N9             1.2133    -0.4043     0.0045 N.2     
  10 C10            3.5482     0.5280    -0.0106 C.3     
  11 O11            4.0993     1.8464    -0.0166 O.3     
  12 C12            5.4544     1.9487    -0.0244 C.ar    
  13 O13           -1.3176     3.3270    -0.1285 O.2     
  14 C14            6.0569     3.1983    -0.0305 C.ar    
  15 C15            6.2376     0.8036    -0.0206 C.ar    
  16 C16            7.6149     0.9102    -0.0287 C.ar    
  17 C17            8.2129     2.1568    -0.0405 C.ar    
  18 C18            7.4346     3.2996    -0.0385 C.ar    
  19 H19           -3.2710     1.8155     0.1344 H       
  20 O20           -1.6328    -1.0229    -1.3713 O.3     
  21 C21           -2.3543    -2.2420    -1.5592 C.3     
  22 H22           -1.0875    -1.7314     0.4920 H       
  23 H23           -3.3017    -0.4683     0.4957 H       
  24 H24           -2.1535    -0.0210     1.7689 H       
  25 H25            1.6482     2.8072    -0.0061 H       
  26 H26            3.8871    -0.0035     0.8786 H       
  27 H27            3.8771    -0.0073    -0.9013 H       
  28 H28            5.4494     4.0912    -0.0293 H       
  29 H29            5.7710    -0.1704    -0.0110 H       
  30 H30            8.2251     0.0191    -0.0254 H       
  31 H31            9.2899     2.2380    -0.0467 H       
  32 H32            7.9041     4.2721    -0.0481 H       
  33 H33           -2.6134    -2.3523    -2.6122 H       
  34 H34           -1.7346    -3.0827    -1.2475 H       
  35 H35           -3.2654    -2.2209    -0.9612 H       
@<TRIPOS>BOND
   1    1    2 1
   2    1    7 2
   3    1    6 1
   4    2    3 1
   5    2    9 1
   6    3    4 1
   7    3   20 1
   8    3   22 1
   9    4    5 1
  10    4   23 1
  11    4   24 1
  12    5    6 am
  13    5   19 1
  14    6   13 2
  15    7    8 1
  16    7   25 1
  17    8    9 2
  18    8   10 1
  19   10   11 1
  20   10   26 1
  21   10   27 1
  22   11   12 1
  23   12   14 ar
  24   12   15 ar
  25   14   18 ar
  26   14   28 1
  27   15   16 ar
  28   15   29 1
  29   16   17 ar
  30   16   30 1
  31   17   18 ar
  32   17   31 1
  33   18   32 1
  34   20   21 1
  35   21   33 1
  36   21   34 1
  37   21   35 1

#	End of record

