#	Name: ASD01001079
#	Creating user name:	WinNT
#	Creation time:	15. 06. 2019 18:55

#	Modifying user name:	WinNT
#	Modification time:	15. 06. 2019 18:55

#	Program:	/corina/corina34_cracker 3.40 0067  02.08.2006

@<TRIPOS>MOLECULE
ASD01001079
  36   38    0    0    0
SMALL
NO_CHARGES


@<TRIPOS>ATOM
   1 C1            -0.0167     1.3775     0.0096 C.ar    
   2 C2             0.0021    -0.0041     0.0020 C.ar    
   3 C3             1.1849     2.0894     0.0020 C.ar    
   4 C4             1.2096    -0.6832    -0.0127 C.ar    
   5 C5             2.3989     1.3992    -0.0133 C.ar    
   6 C6             1.1717     3.5643     0.0095 C.2     
   7 C7             2.4048     0.0175    -0.0199 C.ar    
   8 N8             0.1132     4.2979     0.0236 N.2     
   9 N9             0.3696     5.6675     0.0288 N.am    
  10 C10            1.8259     5.8788     0.0162 C.3     
  11 C11            2.3987     4.4477     0.0086 C.3     
  12 C12           -0.5636     6.6398     0.0430 C.2     
  13 C13            2.2424     6.6284    -1.2230 C.ar    
  14 C14            3.2352     7.5874    -1.1498 C.ar    
  15 C15            3.6172     8.2750    -2.2865 C.ar    
  16 C16            3.0067     8.0032    -3.4966 C.ar    
  17 C17            2.0144     7.0435    -3.5700 C.ar    
  18 C18            1.6355     6.3529    -2.4341 C.ar    
  19 C19           -2.0269     6.2796     0.0553 C.3     
  20 O20           -0.2257     7.8048     0.0458 O.2     
  21 F21            3.5784    -0.6515    -0.0338 F       
  22 F22           -1.1594    -0.6941     0.0094 F       
  23 H23           -0.9586     1.9059     0.0169 H       
  24 H24            1.2193    -1.7631    -0.0182 H       
  25 H25            3.3312     1.9444    -0.0193 H       
  26 H26            2.1440     6.4110     0.9127 H       
  27 H27            3.0026     4.2728     0.8990 H       
  28 H28            2.9867     4.2760    -0.8931 H       
  29 H29            3.7122     7.7998    -0.2044 H       
  30 H30            4.3924     9.0248    -2.2292 H       
  31 H31            3.3046     8.5409    -4.3846 H       
  32 H32            1.5372     6.8314    -4.5153 H       
  33 H33            0.8603     5.6031    -2.4914 H       
  34 H34           -2.1341     5.1949     0.0506 H       
  35 H35           -2.4938     6.6870     0.9520 H       
  36 H36           -2.5111     6.6964    -0.8278 H       
@<TRIPOS>BOND
   1    1    2 ar
   2    1    3 ar
   3    1   23 1
   4    2    4 ar
   5    2   22 1
   6    3    6 1
   7    3    5 ar
   8    4    7 ar
   9    4   24 1
  10    5    7 ar
  11    5   25 1
  12    6    8 2
  13    6   11 1
  14    7   21 1
  15    8    9 1
  16    9   10 1
  17    9   12 am
  18   10   11 1
  19   10   13 1
  20   10   26 1
  21   11   27 1
  22   11   28 1
  23   12   19 1
  24   12   20 2
  25   13   14 ar
  26   13   18 ar
  27   14   15 ar
  28   14   29 1
  29   15   16 ar
  30   15   30 1
  31   16   17 ar
  32   16   31 1
  33   17   18 ar
  34   17   32 1
  35   18   33 1
  36   19   34 1
  37   19   35 1
  38   19   36 1

#	End of record

