#	Name: ASD06610081
#	Creating user name:	WinNT
#	Creation time:	15. 06. 2019 21:07

#	Modifying user name:	WinNT
#	Modification time:	15. 06. 2019 21:07

#	Program:	/corina/corina34_cracker 3.40 0067  02.08.2006

@<TRIPOS>MOLECULE
ASD06610081
 429  430    0    0    0
SMALL
NO_CHARGES


@<TRIPOS>ATOM
   1 C1           -16.1165    -9.3644    12.2392 C.2     
   2 O2           -16.0571   -10.5742    12.1769 O.2     
   3 N3           -13.8884    -9.5025    13.1908 N.am    
   4 C4           -14.9471    -8.5792    12.7750 C.3     
   5 C5           -14.4134    -7.6499    11.6829 C.3     
   6 C6           -13.8301    -8.4860    10.5420 C.3     
   7 C7           -14.9609    -9.2164     9.8151 C.3     
   8 C8           -13.3214    -6.7513    12.2667 C.3     
   9 C9           -19.1102    -8.5555    10.3036 C.2     
  10 O10          -18.7961    -7.3886    10.2004 O.2     
  11 N11          -17.2261    -8.7219    11.8240 N.am    
  12 C12          -18.3164    -9.4733    11.1972 C.3     
  13 C13          -19.2311   -10.0454    12.2821 C.3     
  14 C14          -22.0623    -8.9122     8.1055 C.2     
  15 O15          -22.2032   -10.0921     8.3479 O.2     
  16 N16          -20.1691    -9.0314     9.6190 N.am    
  17 C17          -20.9408    -8.1392     8.7503 C.3     
  18 C18          -24.3939    -8.3735     5.3421 C.2     
  19 O19          -23.8209    -7.3673     4.9812 O.2     
  20 N20          -22.9088    -8.2922     7.2596 N.am    
  21 C21          -23.9991    -9.0436     6.6329 C.3     
  22 C22          -25.2023    -9.0800     7.5774 C.3     
  23 C23          -24.8439    -9.8573     8.8177 C.2     
  24 C24          -24.9466    -9.4155    10.0857 C.2     
  25 N25          -24.5199   -10.4333    10.8955 N.pl3   
  26 C26          -24.1710   -11.4623    10.0935 C.2     
  27 N27          -24.3722   -11.1124     8.8525 N.2     
  28 C28          -27.1972    -8.5859     3.0056 C.2     
  29 O29          -27.8331    -9.3051     3.7468 O.2     
  30 N30          -25.3837    -8.8923     4.5887 N.am    
  31 C31          -25.7675    -8.2409     3.3339 C.3     
  32 C32          -24.8539    -8.7268     2.2068 C.3     
  33 C33          -23.4415    -8.2748     2.4749 C.ar    
  34 C34          -22.5849    -9.0791     3.2032 C.ar    
  35 C35          -21.2894    -8.6645     3.4492 C.ar    
  36 C36          -20.8502    -7.4458     2.9665 C.ar    
  37 C37          -21.7065    -6.6420     2.2375 C.ar    
  38 C38          -23.0008    -7.0585     1.9878 C.ar    
  39 C39          -29.3752    -8.3153     0.0821 C.2     
  40 O40          -28.4583    -7.9854    -0.6400 O.2     
  41 N41          -27.7694    -8.0952     1.8883 N.am    
  42 C42          -29.1593    -8.4306     1.5691 C.3     
  43 C43          -30.0969    -7.4652     2.2970 C.3     
  44 C44          -29.9677    -7.6703     3.8076 C.3     
  45 C45          -30.9053    -6.7049     4.5355 C.3     
  46 N46          -30.7815    -6.9013     5.9820 N.pl3   
  47 C47          -31.5329    -6.1402     6.8458 C.2     
  48 N48          -32.3554    -5.2439     6.3779 N.2     
  49 N49          -31.4168    -6.3246     8.2033 N.pl3   
  50 C50          -32.2540    -8.1993    -2.1677 C.2     
  51 O51          -33.0398    -8.1111    -1.2481 O.2     
  52 N52          -30.5871    -8.5787    -0.4453 N.am    
  53 C53          -30.7970    -8.4666    -1.8909 C.3     
  54 C54          -30.3802    -9.7729    -2.5695 C.3     
  55 C55          -28.8746    -9.9811    -2.3940 C.3     
  56 C56          -28.4578   -11.2874    -3.0727 C.3     
  57 C57          -26.9522   -11.4955    -2.8972 C.3     
  58 N58          -26.5520   -12.7498    -3.5488 N.3     
  59 C59          -34.4440    -8.2764    -5.0937 C.2     
  60 O60          -33.5898    -8.7841    -5.7891 O.2     
  61 N61          -32.6839    -8.0582    -3.4373 N.am    
  62 C62          -34.1003    -7.7984    -3.7064 C.3     
  63 C63          -34.3720    -6.2963    -3.6026 C.3     
  64 C64          -34.1424    -5.8348    -2.1621 C.3     
  65 C65          -34.4100    -4.3553    -2.0599 C.2     
  66 O66          -34.7495    -3.7337    -3.0388 O.2     
  67 O67          -34.2712    -3.7280    -0.8813 O.3     
  68 C68          -37.2247    -7.8368    -7.4255 C.2     
  69 O69          -37.7429    -6.9855    -6.7343 O.2     
  70 N70          -35.7005    -8.1397    -5.5616 N.am    
  71 C71          -36.0346    -8.6043    -6.9102 C.3     
  72 C72          -36.3697   -10.0965    -6.8670 C.3     
  73 C73          -35.1239   -10.8876    -6.4634 C.3     
  74 C74          -35.4590   -12.3798    -6.4203 C.3     
  75 N75          -34.2661   -13.1373    -6.0338 N.pl3   
  76 C76          -34.3258   -14.5067    -5.9279 C.2     
  77 N77          -33.2644   -15.1807    -5.5840 N.2     
  78 N78          -35.5049   -15.1653    -6.1847 N.pl3   
  79 C79          -39.7373    -8.3842    -9.9620 C.2     
  80 O80          -39.3011    -9.4880   -10.2118 O.2     
  81 N81          -37.7133    -8.0965    -8.6544 N.am    
  82 C82          -38.9362    -7.4320    -9.1119 C.3     
  83 C83          -38.5677    -6.1977    -9.9375 C.3     
  84 C84          -37.6319    -6.6069   -11.0767 C.3     
  85 C85          -38.4163    -7.4065   -12.1189 C.3     
  86 C86          -37.8643    -5.1763    -9.0416 C.3     
  87 C87          -42.6084    -8.0799   -12.2041 C.2     
  88 O88          -42.6555    -6.8753   -12.0710 O.2     
  89 N89          -40.9384    -8.0092   -10.4448 N.am    
  90 C90          -41.6739    -8.8965   -11.3493 C.3     
  91 C91          -42.4820    -9.9043   -10.5295 C.3     
  92 C92          -41.5267   -10.8158    -9.7565 C.3     
  93 C93          -42.3227   -11.8085    -8.9490 C.2     
  94 O94          -43.5301   -11.7890    -8.9879 O.2     
  95 O95          -41.6902   -12.7144    -8.1867 O.3     
  96 C96          -45.0569    -8.8071   -14.8781 C.2     
  97 O97          -44.8569   -10.0029   -14.8498 O.2     
  98 N98          -43.3919    -8.6882   -13.1166 N.am    
  99 C99          -44.3004    -7.8943   -13.9477 C.3     
 100 C100         -47.1158    -8.3363   -17.8728 C.2     
 101 O101         -47.3816    -7.1648   -17.7060 O.2     
 102 N102         -45.9558    -8.2944   -15.7416 N.am    
 103 C103         -46.6107    -9.1658   -16.7204 C.3     
 104 C104         -47.7862    -9.8856   -16.0564 C.3     
 105 C105         -48.3641   -10.9194   -17.0249 C.3     
 106 C106         -47.3069   -11.9838   -17.3253 C.3     
 107 C107         -49.5895   -11.5820   -16.3922 C.3     
 108 C108         -48.3404    -8.9190   -21.2674 C.2     
 109 O109         -48.5004   -10.1043   -21.0662 O.2     
 110 N110         -47.2720    -8.8964   -19.0887 N.am    
 111 C111         -47.6503    -8.0657   -20.2346 C.3     
 112 C112         -46.3959    -7.4389   -20.8464 C.3     
 113 C113         -45.7640    -6.4757   -19.8395 C.3     
 114 C114         -44.5096    -5.8489   -20.4513 C.3     
 115 N115         -43.9046    -4.9266   -19.4871 N.pl3   
 116 C116         -42.7591    -4.2415   -19.8168 C.2     
 117 N117         -42.2115    -4.4124   -20.9872 N.2     
 118 N118         -42.1913    -3.3760   -18.9119 N.pl3   
 119 C119         -49.2954    -8.5621   -24.7780 C.2     
 120 O120         -48.6845    -7.5211   -24.8962 O.2     
 121 N121         -48.7798    -8.3650   -22.4148 N.am    
 122 C122         -49.4506    -9.1945   -23.4189 C.3     
 123 C123         -50.9374    -9.3079   -23.0760 C.3     
 124 C124         -51.0999   -10.0614   -21.7543 C.3     
 125 C125         -52.5866   -10.1749   -21.4114 C.3     
 126 C126         -52.7492   -10.9284   -20.0898 C.3     
 127 N127         -54.1766   -11.0373   -19.7606 N.3     
 128 C128         -50.8134    -8.9843   -28.0765 C.2     
 129 O129         -51.6606    -9.7409   -27.6514 O.2     
 130 N130         -49.8354    -9.1535   -25.8620 N.am    
 131 C131         -49.6845    -8.5387   -27.1832 C.3     
 132 C132         -48.3497    -8.9676   -27.7958 C.3     
 133 C133         -47.1998    -8.4085   -26.9555 C.3     
 134 C134         -45.8650    -8.8373   -27.5681 C.3     
 135 N135         -44.7640    -8.3020   -26.7635 N.pl3   
 136 C136         -43.4620    -8.5586   -27.1228 C.2     
 137 N137         -42.4824    -8.0823   -26.4069 N.2     
 138 N138         -43.1932    -9.3176   -28.2372 N.pl3   
 139 C139         -51.5453    -8.8852   -31.6567 C.2     
 140 O140         -50.4294    -8.4974   -31.9309 O.2     
 141 N141         -50.8816    -8.5421   -29.3478 N.am    
 142 C142         -51.9790    -8.9753   -30.2162 C.3     
 143 C143         -53.1937    -8.0724   -29.9919 C.3     
 144 C144         -53.7102    -8.2579   -28.5638 C.3     
 145 C145         -54.9249    -7.3550   -28.3395 C.3     
 146 N146         -55.4195    -7.5326   -26.9720 N.pl3   
 147 C147         -56.5120    -6.8196   -26.5381 C.2     
 148 N148         -57.1078    -5.9857   -27.3434 N.2     
 149 N149         -56.9762    -6.9863   -25.2548 N.pl3   
 150 C150         -53.1882    -8.9845   -34.9208 C.2     
 151 O151         -54.2952    -8.9449   -34.4271 O.2     
 152 N152         -52.3976    -9.2357   -32.6402 N.am    
 153 C153         -51.9760    -9.1482   -34.0405 C.3     
 154 C154         -51.2318   -10.4270   -34.4299 C.3     
 155 C155         -49.9360   -10.5289   -33.6227 C.3     
 156 C156         -49.1918   -11.8077   -34.0121 C.3     
 157 N157         -47.9511   -11.9053   -33.2392 N.pl3   
 158 C158         -47.1112   -12.9786   -33.4201 C.2     
 159 N159         -47.4188   -13.9093   -34.2792 N.2     
 160 N160         -45.9469   -13.0702   -32.6948 N.pl3   
 161 C161         -53.9091    -9.2331   -38.4959 C.2     
 162 O162         -52.8110    -9.6850   -38.7428 O.2     
 163 N163         -53.0420    -8.8822   -36.2567 N.am    
 164 C164         -54.2204    -8.7231   -37.1124 C.3     
 165 C165         -54.5998    -7.2428   -37.1879 C.3     
 166 C166         -55.0358    -6.7568   -35.8042 C.3     
 167 C167         -55.2955    -5.2498   -35.8515 C.3     
 168 C168         -56.3173    -7.4824   -35.3893 C.3     
 169 C169         -55.3857    -9.0555   -41.8223 C.2     
 170 O170         -56.3099    -8.3413   -41.4954 O.2     
 171 N171         -54.8509    -9.1871   -39.4588 N.am    
 172 C172         -54.5863    -9.7818   -40.7713 C.3     
 173 C173         -54.9895   -11.2576   -40.7532 C.3     
 174 C174         -54.5284   -11.9282   -42.0488 C.3     
 175 C175         -52.9999   -11.9901   -42.0751 C.3     
 176 C176         -55.0977   -13.3466   -42.1195 C.3     
 177 C177         -57.0692    -9.4705   -44.4797 C.2     
 178 O178         -57.1892   -10.5311   -43.9134 O.2     
 179 N179         -55.0737    -9.1996   -43.1255 N.am    
 180 C180         -55.9069    -8.5689   -44.1522 C.3     
 181 C181         -55.0724    -8.3344   -45.4130 C.3     
 182 O182         -54.6797    -9.5925   -45.9651 O.3     
 183 O183         -57.9710    -9.0953   -45.4003 O.3     
 184 C184         -13.1147    -9.2058    14.2537 C.2     
 185 O185         -13.2350    -8.1356    14.8115 O.2     
 186 C186           0.2825   -13.2337    26.7229 C.3     
 187 C187          -0.7476   -12.2204    26.2199 C.3     
 188 C188          -1.4864   -12.8008    25.0124 C.3     
 189 C189          -2.5165   -11.7875    24.5093 C.3     
 190 C190          -3.2554   -12.3680    23.3018 C.3     
 191 C191          -4.2854   -11.3547    22.7988 C.3     
 192 C192          -5.0243   -11.9352    21.5913 C.3     
 193 C193          -6.0544   -10.9219    21.0883 C.3     
 194 C194          -6.7932   -11.5024    19.8808 C.3     
 195 C195          -7.8233   -10.4891    19.3778 C.3     
 196 C196          -8.5622   -11.0695    18.1703 C.3     
 197 C197          -9.5923   -10.0562    17.6672 C.3     
 198 C198         -10.3311   -10.6367    16.4597 C.3     
 199 C199         -11.3612    -9.6234    15.9567 C.3     
 200 C200         -12.1001   -10.2039    14.7492 C.3     
 201 H201         -13.7443   -10.3273    12.7012 H       
 202 H202         -15.2692    -7.9864    13.6311 H       
 203 H203         -15.2269    -7.0325    11.3018 H       
 204 H204         -13.3104    -7.8323     9.8415 H       
 205 H205         -13.1285    -9.2149    10.9477 H       
 206 H206         -15.3523   -10.0077    10.4544 H       
 207 H207         -15.7580    -8.5107     9.5812 H       
 208 H208         -14.5781    -9.6512     8.8918 H       
 209 H209         -12.4649    -7.3607    12.5548 H       
 210 H210         -13.0128    -6.0215    11.5183 H       
 211 H211         -13.7087    -6.2314    13.1430 H       
 212 H212         -17.3028    -7.7619    11.9402 H       
 213 H213         -17.9019   -10.2886    10.6044 H       
 214 H214         -20.0423   -10.6045    11.8158 H       
 215 H215         -18.6569   -10.7092    12.9285 H       
 216 H216         -19.6456    -9.2300    12.8750 H       
 217 H217         -20.4203    -9.9647     9.7016 H       
 218 H218         -20.2892    -7.7316     7.9774 H       
 219 H219         -21.3553    -7.3239     9.3431 H       
 220 H220         -22.7962    -7.3484     7.0658 H       
 221 H221         -23.6677   -10.0614     6.4273 H       
 222 H222         -25.4784    -8.0623     7.8535 H       
 223 H223         -26.0425    -9.5614     7.0770 H       
 224 H224         -25.2978    -8.4447    10.4028 H       
 225 H225         -24.4762   -10.4183    11.8644 H       
 226 H226         -23.7922   -12.4180    10.4245 H       
 227 H227         -25.8420    -9.6971     4.8773 H       
 228 H228         -25.6697    -7.1606     3.4406 H       
 229 H229         -24.8841    -9.8153     2.1584 H       
 230 H230         -25.1945    -8.3113     1.2584 H       
 231 H231         -22.9280   -10.0312     3.5803 H       
 232 H232         -20.6204    -9.2925     4.0188 H       
 233 H233         -19.8382    -7.1216     3.1593 H       
 234 H234         -21.3635    -5.6897     1.8606 H       
 235 H235         -23.6686    -6.4322     1.4151 H       
 236 H236         -27.2609    -7.5200     1.2955 H       
 237 H237         -29.3693    -9.4513     1.8887 H       
 238 H238         -29.8286    -6.4391     2.0454 H       
 239 H239         -31.1253    -7.6573     1.9909 H       
 240 H240         -30.2360    -8.6964     4.0592 H       
 241 H241         -28.9393    -7.4782     4.1137 H       
 242 H242         -30.6370    -5.6789     4.2839 H       
 243 H243         -31.9336    -6.8971     4.2294 H       
 244 H244         -30.1694    -7.5684     6.3302 H       
 245 H245         -32.8856    -4.7069     6.9873 H       
 246 H246         -30.8047    -6.9916     8.5515 H       
 247 H247         -31.9469    -5.7875     8.8128 H       
 248 H248         -31.3205    -8.8425     0.1322 H       
 249 H249         -30.1962    -7.6458    -2.2826 H       
 250 H250         -30.9174   -10.6057    -2.1157 H       
 251 H251         -30.6186    -9.7226    -3.6320 H       
 252 H252         -28.3373    -9.1483    -2.8479 H       
 253 H253         -28.6362   -10.0314    -1.3316 H       
 254 H254         -28.9950   -12.1202    -2.6188 H       
 255 H255         -28.6962   -11.2371    -4.1351 H       
 256 H256         -26.4149   -10.6628    -3.3511 H       
 257 H257         -26.7138   -11.5459    -1.8348 H       
 258 H258         -26.8208   -12.7538    -4.5214 H       
 259 H259         -25.5611   -12.9101    -3.4469 H       
 260 H260         -32.0554    -8.1288    -4.1728 H       
 261 H261         -34.7121    -8.3295    -2.9772 H       
 262 H262         -33.6972    -5.7582    -4.2684 H       
 263 H263         -35.4038    -6.0930    -3.8892 H       
 264 H264         -34.8172    -6.3729    -1.4963 H       
 265 H265         -33.1106    -6.0381    -1.8755 H       
 266 H266         -34.4539    -2.7786    -0.8651 H       
 267 H267         -36.3836    -7.7336    -5.0054 H       
 268 H268         -35.1835    -8.4420    -7.5716 H       
 269 H269         -37.1620   -10.2700    -6.1388 H       
 270 H270         -36.7038   -10.4225    -7.8520 H       
 271 H271         -34.3316   -10.7141    -7.1916 H       
 272 H272         -34.7898   -10.5616    -5.4784 H       
 273 H273         -36.2513   -12.5533    -5.6921 H       
 274 H274         -35.7931   -12.7058    -7.4053 H       
 275 H275         -33.4341   -12.6726    -5.8526 H       
 276 H276         -33.3065   -16.1469    -5.5093 H       
 277 H277         -36.2948   -14.6638    -6.4406 H       
 278 H278         -35.5470   -16.1315    -6.1099 H       
 279 H279         -37.2553    -8.7232    -9.2360 H       
 280 H280         -39.5292    -7.1283    -8.2492 H       
 281 H281         -39.4730    -5.7546   -10.3524 H       
 282 H282         -37.2144    -5.7142   -11.5424 H       
 283 H283         -36.8237    -7.2215   -10.6800 H       
 284 H284         -39.3021    -6.8453   -12.4161 H       
 285 H285         -37.7871    -7.5813   -12.9917 H       
 286 H286         -38.7184    -8.3626   -11.6914 H       
 287 H287         -36.9020    -5.5756    -8.7214 H       
 288 H288         -37.7073    -4.2522    -9.5979 H       
 289 H289         -38.4826    -4.9733    -8.1671 H       
 290 H290         -41.3160    -7.1518   -10.1934 H       
 291 H291         -40.9693    -9.4293   -11.9879 H       
 292 H292         -43.1230    -9.3710    -9.8276 H       
 293 H293         -43.0973   -10.5064   -11.1981 H       
 294 H294         -40.8857   -11.3492   -10.4584 H       
 295 H295         -40.9114   -10.2137    -9.0879 H       
 296 H296         -42.2433   -13.3303    -7.6868 H       
 297 H297         -43.3542    -9.6516   -13.2231 H       
 298 H298         -43.7247    -7.1763   -14.5317 H       
 299 H299         -45.0049    -7.3615   -13.3090 H       
 300 H300         -46.1691    -7.3485   -15.7151 H       
 301 H301         -45.8953    -9.9013   -17.0882 H       
 302 H302         -47.4412   -10.3876   -15.1525 H       
 303 H303         -48.5571    -9.1598   -15.7972 H       
 304 H304         -48.6561   -10.4256   -17.9518 H       
 305 H305         -46.4745   -11.5280   -17.8614 H       
 306 H306         -46.9459   -12.4115   -16.3899 H       
 307 H307         -47.7470   -12.7702   -17.9384 H       
 308 H308         -50.3427   -10.8237   -16.1782 H       
 309 H309         -50.0012   -12.3185   -17.0822 H       
 310 H310         -49.2975   -12.0758   -15.4653 H       
 311 H311         -47.1338    -9.8494   -19.2051 H       
 312 H312         -48.3264    -7.2772   -19.9042 H       
 313 H313         -45.6820    -8.2239   -21.0956 H       
 314 H314         -46.6663    -6.8934   -21.7506 H       
 315 H315         -46.4780    -5.6907   -19.5903 H       
 316 H316         -45.4936    -7.0212   -18.9354 H       
 317 H317         -43.7957    -6.6339   -20.7005 H       
 318 H318         -44.7800    -5.3034   -21.3554 H       
 319 H319         -44.3121    -4.7994   -18.6162 H       
 320 H320         -41.4033    -3.9290   -21.2197 H       
 321 H321         -42.5989    -3.2488   -18.0410 H       
 322 H322         -41.3832    -2.8926   -19.1445 H       
 323 H323         -48.6518    -7.4170   -22.5758 H       
 324 H324         -49.0028   -10.1882   -23.4272 H       
 325 H325         -51.3653    -8.3100   -22.9803 H       
 326 H326         -51.4528    -9.8498   -23.8689 H       
 327 H327         -50.6719   -11.0593   -21.8500 H       
 328 H328         -50.5844    -9.5195   -20.9614 H       
 329 H329         -53.0146    -9.1770   -21.3157 H       
 330 H330         -53.1021   -10.7168   -22.2044 H       
 331 H331         -52.3212   -11.9262   -20.1855 H       
 332 H332         -52.2337   -10.3865   -19.2968 H       
 333 H333         -54.6879   -11.4790   -20.5099 H       
 334 H334         -54.3105   -11.5314   -18.8911 H       
 335 H335         -50.3239    -9.9861   -25.7675 H       
 336 H336         -49.7066    -7.4535   -27.0837 H       
 337 H337         -48.2910   -10.0559   -27.8136 H       
 338 H338         -48.2766    -8.5832   -28.8132 H       
 339 H339         -47.2585    -7.3202   -26.9378 H       
 340 H340         -47.2729    -8.7929   -25.9382 H       
 341 H341         -45.8063    -9.9256   -27.5859 H       
 342 H342         -45.7919    -8.4529   -28.5854 H       
 343 H343         -44.9536    -7.7665   -25.9773 H       
 344 H344         -41.5638    -8.2634   -26.6604 H       
 345 H345         -43.9222    -9.6721   -28.7699 H       
 346 H346         -42.2746    -9.4987   -28.4907 H       
 347 H347         -50.2040    -7.9370   -29.6878 H       
 348 H348         -52.2439   -10.0059   -29.9803 H       
 349 H349         -52.9056    -7.0319   -30.1418 H       
 350 H350         -53.9791    -8.3375   -30.6997 H       
 351 H351         -53.9983    -9.2984   -28.4139 H       
 352 H352         -52.9248    -7.9927   -27.8560 H       
 353 H353         -54.6368    -6.3145   -28.4894 H       
 354 H354         -55.7103    -7.6201   -29.0472 H       
 355 H355         -54.9761    -8.1532   -26.3726 H       
 356 H356         -57.8786    -5.4827   -27.0373 H       
 357 H357         -56.5328    -7.6069   -24.6554 H       
 358 H358         -57.7470    -6.4833   -24.9487 H       
 359 H359         -53.2901    -9.5459   -32.4209 H       
 360 H360         -51.3157    -8.2903   -34.1682 H       
 361 H361         -51.8605   -11.2919   -34.2186 H       
 362 H362         -50.9960   -10.4005   -35.4938 H       
 363 H363         -49.3073    -9.6640   -33.8341 H       
 364 H364         -50.1719   -10.5554   -32.5589 H       
 365 H365         -49.8206   -12.6727   -33.8008 H       
 366 H366         -48.9560   -11.7812   -35.0760 H       
 367 H367         -47.7223   -11.2127   -32.5999 H       
 368 H368         -46.8261   -14.6666   -34.4068 H       
 369 H369         -45.7180   -12.3776   -32.0554 H       
 370 H370         -45.3543   -13.8275   -32.8224 H       
 371 H371         -52.1566    -8.9139   -36.6515 H       
 372 H372         -55.0521    -9.2905   -36.6946 H       
 373 H373         -53.7388    -6.6637   -37.5218 H       
 374 H374         -55.4204    -7.1136   -37.8937 H       
 375 H375         -54.2484    -6.9673   -35.0805 H       
 376 H376         -56.0828    -5.0393   -36.5753 H       
 377 H377         -55.6061    -4.9035   -34.8657 H       
 378 H378         -54.3825    -4.7328   -36.1471 H       
 379 H379         -56.6279    -7.1362   -34.4035 H       
 380 H380         -57.1046    -7.2719   -36.1131 H       
 381 H381         -56.1323    -8.5561   -35.3556 H       
 382 H382         -55.7040    -8.7602   -39.2829 H       
 383 H383         -53.5240    -9.6981   -41.0006 H       
 384 H384         -54.5214   -11.7517   -39.9018 H       
 385 H385         -56.0733   -11.3371   -40.6686 H       
 386 H386         -54.8834   -11.3512   -42.9028 H       
 387 H387         -52.6740   -12.5505   -42.9513 H       
 388 H388         -52.5960   -10.9787   -42.1197 H       
 389 H389         -52.6408   -12.4853   -41.1729 H       
 390 H390         -56.1866   -13.3024   -42.1008 H       
 391 H391         -54.7692   -13.8243   -43.0425 H       
 392 H392         -54.7427   -13.9235   -41.2655 H       
 393 H393         -54.2975    -9.7209   -43.3836 H       
 394 H394         -56.2806    -7.6146   -43.7812 H       
 395 H395         -55.6657    -7.7858   -46.1446 H       
 396 H396         -54.1842    -7.7561   -45.1585 H       
 397 H397         -54.1464    -9.5202   -46.7685 H       
 398 H398         -58.6991    -9.7069   -45.5764 H       
 399 H399          -0.2249   -14.1531    27.0150 H       
 400 H400           0.9974   -13.4497    25.9289 H       
 401 H401           0.8089   -12.8201    27.5831 H       
 402 H402          -1.4624   -12.0043    27.0138 H       
 403 H403          -0.2401   -11.3010    25.9278 H       
 404 H404          -0.7715   -13.0169    24.2184 H       
 405 H405          -1.9938   -13.7203    25.3045 H       
 406 H406          -3.2314   -11.5715    25.3033 H       
 407 H407          -2.0091   -10.8681    24.2172 H       
 408 H408          -2.5405   -12.5840    22.5079 H       
 409 H409          -3.7628   -13.2874    23.5939 H       
 410 H410          -5.0003   -11.1387    23.5928 H       
 411 H411          -3.7780   -10.4353    22.5067 H       
 412 H412          -4.3094   -12.1512    20.7974 H       
 413 H413          -5.5317   -12.8546    21.8834 H       
 414 H414          -6.7693   -10.7059    21.8822 H       
 415 H415          -5.5470   -10.0025    20.7962 H       
 416 H416          -6.0784   -11.7184    19.0868 H       
 417 H417          -7.3007   -12.4218    20.1729 H       
 418 H418          -8.5382   -10.2730    20.1717 H       
 419 H419          -7.3159    -9.5696    19.0857 H       
 420 H420          -7.8473   -11.2856    17.3763 H       
 421 H421          -9.0696   -11.9889    18.4624 H       
 422 H422         -10.3072    -9.8402    18.4612 H       
 423 H423          -9.0849    -9.1368    17.3751 H       
 424 H424          -9.6162   -10.8527    15.6658 H       
 425 H425         -10.8385   -11.5561    16.7518 H       
 426 H426         -12.0761    -9.4074    16.7507 H       
 427 H427         -10.8538    -8.7040    15.6646 H       
 428 H428         -12.6075   -11.1233    15.0413 H       
 429 H429         -11.3852   -10.4199    13.9553 H       
@<TRIPOS>BOND
   1    1    2 2
   2    1    4 1
   3    1   11 am
   4    3  184 am
   5    3    4 1
   6    3  201 1
   7    4    5 1
   8    4  202 1
   9    5    6 1
  10    5    8 1
  11    5  203 1
  12    6    7 1
  13    6  204 1
  14    6  205 1
  15    7  206 1
  16    7  207 1
  17    7  208 1
  18    8  209 1
  19    8  210 1
  20    8  211 1
  21    9   10 2
  22    9   12 1
  23    9   16 am
  24   11   12 1
  25   11  212 1
  26   12   13 1
  27   12  213 1
  28   13  214 1
  29   13  215 1
  30   13  216 1
  31   14   15 2
  32   14   17 1
  33   14   20 am
  34   16   17 1
  35   16  217 1
  36   17  218 1
  37   17  219 1
  38   18   19 2
  39   18   21 1
  40   18   30 am
  41   20   21 1
  42   20  220 1
  43   21   22 1
  44   21  221 1
  45   22   23 1
  46   22  222 1
  47   22  223 1
  48   23   24 2
  49   23   27 1
  50   24   25 1
  51   24  224 1
  52   25   26 1
  53   25  225 1
  54   26   27 2
  55   26  226 1
  56   28   29 2
  57   28   31 1
  58   28   41 am
  59   30   31 1
  60   30  227 1
  61   31   32 1
  62   31  228 1
  63   32   33 1
  64   32  229 1
  65   32  230 1
  66   33   34 ar
  67   33   38 ar
  68   34   35 ar
  69   34  231 1
  70   35   36 ar
  71   35  232 1
  72   36   37 ar
  73   36  233 1
  74   37   38 ar
  75   37  234 1
  76   38  235 1
  77   39   40 2
  78   39   42 1
  79   39   52 am
  80   41   42 1
  81   41  236 1
  82   42   43 1
  83   42  237 1
  84   43   44 1
  85   43  238 1
  86   43  239 1
  87   44   45 1
  88   44  240 1
  89   44  241 1
  90   45   46 1
  91   45  242 1
  92   45  243 1
  93   46   47 1
  94   46  244 1
  95   47   48 2
  96   47   49 1
  97   48  245 1
  98   49  246 1
  99   49  247 1
 100   50   51 2
 101   50   53 1
 102   50   61 am
 103   52   53 1
 104   52  248 1
 105   53   54 1
 106   53  249 1
 107   54   55 1
 108   54  250 1
 109   54  251 1
 110   55   56 1
 111   55  252 1
 112   55  253 1
 113   56   57 1
 114   56  254 1
 115   56  255 1
 116   57   58 1
 117   57  256 1
 118   57  257 1
 119   58  258 1
 120   58  259 1
 121   59   60 2
 122   59   62 1
 123   59   70 am
 124   61   62 1
 125   61  260 1
 126   62   63 1
 127   62  261 1
 128   63   64 1
 129   63  262 1
 130   63  263 1
 131   64   65 1
 132   64  264 1
 133   64  265 1
 134   65   66 2
 135   65   67 1
 136   67  266 1
 137   68   69 2
 138   68   71 1
 139   68   81 am
 140   70   71 1
 141   70  267 1
 142   71   72 1
 143   71  268 1
 144   72   73 1
 145   72  269 1
 146   72  270 1
 147   73   74 1
 148   73  271 1
 149   73  272 1
 150   74   75 1
 151   74  273 1
 152   74  274 1
 153   75   76 1
 154   75  275 1
 155   76   77 2
 156   76   78 1
 157   77  276 1
 158   78  277 1
 159   78  278 1
 160   79   80 2
 161   79   82 1
 162   79   89 am
 163   81   82 1
 164   81  279 1
 165   82   83 1
 166   82  280 1
 167   83   84 1
 168   83   86 1
 169   83  281 1
 170   84   85 1
 171   84  282 1
 172   84  283 1
 173   85  284 1
 174   85  285 1
 175   85  286 1
 176   86  287 1
 177   86  288 1
 178   86  289 1
 179   87   88 2
 180   87   90 1
 181   87   98 am
 182   89   90 1
 183   89  290 1
 184   90   91 1
 185   90  291 1
 186   91   92 1
 187   91  292 1
 188   91  293 1
 189   92   93 1
 190   92  294 1
 191   92  295 1
 192   93   94 2
 193   93   95 1
 194   95  296 1
 195   96   97 2
 196   96   99 1
 197   96  102 am
 198   98   99 1
 199   98  297 1
 200   99  298 1
 201   99  299 1
 202  100  101 2
 203  100  103 1
 204  100  110 am
 205  102  103 1
 206  102  300 1
 207  103  104 1
 208  103  301 1
 209  104  105 1
 210  104  302 1
 211  104  303 1
 212  105  106 1
 213  105  107 1
 214  105  304 1
 215  106  305 1
 216  106  306 1
 217  106  307 1
 218  107  308 1
 219  107  309 1
 220  107  310 1
 221  108  109 2
 222  108  111 1
 223  108  121 am
 224  110  111 1
 225  110  311 1
 226  111  112 1
 227  111  312 1
 228  112  113 1
 229  112  313 1
 230  112  314 1
 231  113  114 1
 232  113  315 1
 233  113  316 1
 234  114  115 1
 235  114  317 1
 236  114  318 1
 237  115  116 1
 238  115  319 1
 239  116  117 2
 240  116  118 1
 241  117  320 1
 242  118  321 1
 243  118  322 1
 244  119  120 2
 245  119  122 1
 246  119  130 am
 247  121  122 1
 248  121  323 1
 249  122  123 1
 250  122  324 1
 251  123  124 1
 252  123  325 1
 253  123  326 1
 254  124  125 1
 255  124  327 1
 256  124  328 1
 257  125  126 1
 258  125  329 1
 259  125  330 1
 260  126  127 1
 261  126  331 1
 262  126  332 1
 263  127  333 1
 264  127  334 1
 265  128  129 2
 266  128  131 1
 267  128  141 am
 268  130  131 1
 269  130  335 1
 270  131  132 1
 271  131  336 1
 272  132  133 1
 273  132  337 1
 274  132  338 1
 275  133  134 1
 276  133  339 1
 277  133  340 1
 278  134  135 1
 279  134  341 1
 280  134  342 1
 281  135  136 1
 282  135  343 1
 283  136  137 2
 284  136  138 1
 285  137  344 1
 286  138  345 1
 287  138  346 1
 288  139  140 2
 289  139  142 1
 290  139  152 am
 291  141  142 1
 292  141  347 1
 293  142  143 1
 294  142  348 1
 295  143  144 1
 296  143  349 1
 297  143  350 1
 298  144  145 1
 299  144  351 1
 300  144  352 1
 301  145  146 1
 302  145  353 1
 303  145  354 1
 304  146  147 1
 305  146  355 1
 306  147  148 2
 307  147  149 1
 308  148  356 1
 309  149  357 1
 310  149  358 1
 311  150  151 2
 312  150  153 1
 313  150  163 am
 314  152  153 1
 315  152  359 1
 316  153  154 1
 317  153  360 1
 318  154  155 1
 319  154  361 1
 320  154  362 1
 321  155  156 1
 322  155  363 1
 323  155  364 1
 324  156  157 1
 325  156  365 1
 326  156  366 1
 327  157  158 1
 328  157  367 1
 329  158  159 2
 330  158  160 1
 331  159  368 1
 332  160  369 1
 333  160  370 1
 334  161  162 2
 335  161  164 1
 336  161  171 am
 337  163  164 1
 338  163  371 1
 339  164  165 1
 340  164  372 1
 341  165  166 1
 342  165  373 1
 343  165  374 1
 344  166  167 1
 345  166  168 1
 346  166  375 1
 347  167  376 1
 348  167  377 1
 349  167  378 1
 350  168  379 1
 351  168  380 1
 352  168  381 1
 353  169  170 2
 354  169  172 1
 355  169  179 am
 356  171  172 1
 357  171  382 1
 358  172  173 1
 359  172  383 1
 360  173  174 1
 361  173  384 1
 362  173  385 1
 363  174  175 1
 364  174  176 1
 365  174  386 1
 366  175  387 1
 367  175  388 1
 368  175  389 1
 369  176  390 1
 370  176  391 1
 371  176  392 1
 372  177  178 2
 373  177  180 1
 374  177  183 1
 375  179  180 1
 376  179  393 1
 377  180  181 1
 378  180  394 1
 379  181  182 1
 380  181  395 1
 381  181  396 1
 382  182  397 1
 383  183  398 1
 384  184  185 2
 385  184  200 1
 386  186  187 1
 387  186  399 1
 388  186  400 1
 389  186  401 1
 390  187  188 1
 391  187  402 1
 392  187  403 1
 393  188  189 1
 394  188  404 1
 395  188  405 1
 396  189  190 1
 397  189  406 1
 398  189  407 1
 399  190  191 1
 400  190  408 1
 401  190  409 1
 402  191  192 1
 403  191  410 1
 404  191  411 1
 405  192  193 1
 406  192  412 1
 407  192  413 1
 408  193  194 1
 409  193  414 1
 410  193  415 1
 411  194  195 1
 412  194  416 1
 413  194  417 1
 414  195  196 1
 415  195  418 1
 416  195  419 1
 417  196  197 1
 418  196  420 1
 419  196  421 1
 420  197  198 1
 421  197  422 1
 422  197  423 1
 423  198  199 1
 424  198  424 1
 425  198  425 1
 426  199  200 1
 427  199  426 1
 428  199  427 1
 429  200  428 1
 430  200  429 1

#	End of record

