#	Name: ASD01870389
#	Creating user name:	WinNT
#	Creation time:	15. 06. 2019 19:39

#	Modifying user name:	WinNT
#	Modification time:	15. 06. 2019 19:39

#	Program:	/corina/corina34_cracker 3.40 0067  02.08.2006

@<TRIPOS>MOLECULE
ASD01870389
  27   29    0    0    0
SMALL
NO_CHARGES


@<TRIPOS>ATOM
   1 C1            -0.0162     1.3436     0.0094 C.2     
   2 N2             0.0021    -0.0041     0.0082 N.am    
   3 O3             1.0280     1.9656    -0.0028 O.2     
   4 C4             1.2108    -0.6802    -0.0070 C.2     
   5 O5             1.3622    -2.0137    -0.0098 O.3     
   6 C6             2.6863    -2.2773    -0.0260 C.2     
   7 C7             3.3270    -1.0982    -0.0329 C.2     
   8 N8             2.3970    -0.1250    -0.0266 N.2     
   9 C9            -1.3067     2.0654     0.0195 C.ar    
  10 C10           -1.3316     3.4744     0.1338 C.ar    
  11 C11           -2.5900     4.1313     0.1399 C.ar    
  12 C12           -3.7508     3.3465     0.0316 C.ar    
  13 C13           -3.6223     1.9899    -0.0745 C.ar    
  14 N14           -2.4428     1.3968    -0.0839 N.ar    
  15 C15           -0.1591     4.2334     0.2398 C.ar    
  16 C16           -0.2438     5.5891     0.3472 C.ar    
  17 C17           -1.4791     6.2347     0.3532 C.ar    
  18 C18           -2.6397     5.5292     0.2519 C.ar    
  19 H19           -0.8312    -0.5005     0.0180 H       
  20 H20            3.1447    -3.2553    -0.0318 H       
  21 H21            4.3974    -0.9555    -0.0458 H       
  22 H22           -4.7275     3.8074     0.0326 H       
  23 H23           -4.5130     1.3848    -0.1579 H       
  24 H24            0.8054     3.7473     0.2369 H       
  25 H25            0.6611     6.1730     0.4292 H       
  26 H26           -1.5165     7.3105     0.4399 H       
  27 H27           -3.5905     6.0414     0.2575 H       
@<TRIPOS>BOND
   1    1    2 am
   2    1    3 2
   3    1    9 1
   4    2    4 1
   5    2   19 1
   6    4    5 1
   7    4    8 2
   8    5    6 1
   9    6    7 2
  10    6   20 1
  11    7    8 1
  12    7   21 1
  13    9   10 ar
  14    9   14 ar
  15   10   15 ar
  16   10   11 ar
  17   11   12 ar
  18   11   18 ar
  19   12   13 ar
  20   12   22 1
  21   13   14 ar
  22   13   23 1
  23   15   16 ar
  24   15   24 1
  25   16   17 ar
  26   16   25 1
  27   17   18 ar
  28   17   26 1
  29   18   27 1

#	End of record

