#	Name: ASD03092342
#	Creating user name:	WinNT
#	Creation time:	15. 06. 2019 20:32

#	Modifying user name:	WinNT
#	Modification time:	15. 06. 2019 20:32

#	Program:	/corina/corina34_cracker 3.40 0067  02.08.2006

@<TRIPOS>MOLECULE
ASD03092342
  56   59    0    0    0
SMALL
NO_CHARGES


@<TRIPOS>ATOM
   1 C1            -0.0279     1.2766    -0.7465 C.3     
   2 C2            -0.0453    -0.2394    -0.9519 C.3     
   3 C3             1.2854     0.5155    -0.9387 C.3     
   4 C4            -0.5057     2.1388    -1.8864 C.2     
   5 O5            -0.8849     1.6252    -2.9176 O.2     
   6 N6            -0.5117     3.4806    -1.7599 N.am    
   7 C7            -0.9762     4.3187    -2.8680 C.3     
   8 S8            -1.3861     8.1062    -1.6493 S.3     
   9 C9             0.1784     7.7145    -2.2158 C.2     
  10 N10            0.2241     6.4713    -2.5901 N.2     
  11 C11           -0.8827     5.7702    -2.4735 C.2     
  12 C12           -1.9274     6.4607    -1.9706 C.2     
  13 C13           -5.6651     6.0984    -1.9220 C.ar    
  14 C14           -4.4177     6.6307    -2.1659 C.ar    
  15 C15           -3.2840     5.9308    -1.7315 C.ar    
  16 C16           -3.4745     4.7135    -1.0641 C.ar    
  17 C17           -4.7588     4.2562    -0.8629 C.ar    
  18 N18           -5.7996     4.9476    -1.2893 N.ar    
  19 C19           -4.9783     2.9485    -0.1467 C.3     
  20 C20           -6.8931     6.8435    -2.3781 C.3     
  21 N21            1.2434     8.5953    -2.2686 N.3     
  22 C22            0.8544     9.9227    -1.7704 C.3     
  23 C23            2.0423    10.8794    -1.9019 C.3     
  24 O24            3.1619    10.3417    -1.1929 O.3     
  25 C25            3.5680     9.0498    -1.6527 C.3     
  26 C26            2.3956     8.0745    -1.5186 C.3     
  27 C27            4.7442     8.5538    -0.8092 C.3     
  28 C28            1.6697    12.2408    -1.3115 C.3     
  29 H29           -0.2505     1.6518     0.2524 H       
  30 H30           -0.2795    -0.8617    -0.0881 H       
  31 H31           -0.4025    -0.6132    -1.9115 H       
  32 H32            1.8037     0.6384    -1.8897 H       
  33 H33            1.9267     0.3899    -0.0663 H       
  34 H34           -0.2085     3.8914    -0.9351 H       
  35 H35           -0.3538     4.1397    -3.7447 H       
  36 H36           -2.0120     4.0716    -3.1011 H       
  37 H37           -4.3152     7.5725    -2.6844 H       
  38 H38           -2.6278     4.1422    -0.7132 H       
  39 H39           -5.0679     3.1314     0.9242 H       
  40 H40           -5.8929     2.4825    -0.5134 H       
  41 H41           -4.1330     2.2860    -0.3327 H       
  42 H42           -7.1544     6.5293    -3.3886 H       
  43 H43           -7.7215     6.6255    -1.7041 H       
  44 H44           -6.6915     7.9147    -2.3715 H       
  45 H45            0.0164    10.3002    -2.3563 H       
  46 H46            0.5623     9.8470    -0.7230 H       
  47 H47            2.3003    10.9968    -2.9545 H       
  48 H48            3.8704     9.1139    -2.6980 H       
  49 H49            2.1280     7.9693    -0.4672 H       
  50 H50            2.6825     7.1029    -1.9208 H       
  51 H51            4.4401     8.4882     0.2354 H       
  52 H52            5.0533     7.5692    -1.1601 H       
  53 H53            5.5773     9.2506    -0.9021 H       
  54 H54            1.4138    12.1225    -0.2586 H       
  55 H55            2.5158    12.9215    -1.4055 H       
  56 H56            0.8140    12.6484    -1.8498 H       
@<TRIPOS>BOND
   1    1    2 1
   2    1    3 1
   3    1    4 1
   4    1   29 1
   5    2    3 1
   6    2   30 1
   7    2   31 1
   8    3   32 1
   9    3   33 1
  10    4    5 2
  11    4    6 am
  12    6    7 1
  13    6   34 1
  14    7   11 1
  15    7   35 1
  16    7   36 1
  17    8    9 1
  18    8   12 1
  19    9   10 2
  20    9   21 1
  21   10   11 1
  22   11   12 2
  23   12   15 1
  24   13   14 ar
  25   13   18 ar
  26   13   20 1
  27   14   15 ar
  28   14   37 1
  29   15   16 ar
  30   16   17 ar
  31   16   38 1
  32   17   18 ar
  33   17   19 1
  34   19   39 1
  35   19   40 1
  36   19   41 1
  37   20   42 1
  38   20   43 1
  39   20   44 1
  40   21   22 1
  41   21   26 1
  42   22   23 1
  43   22   45 1
  44   22   46 1
  45   23   24 1
  46   23   28 1
  47   23   47 1
  48   24   25 1
  49   25   26 1
  50   25   27 1
  51   25   48 1
  52   26   49 1
  53   26   50 1
  54   27   51 1
  55   27   52 1
  56   27   53 1
  57   28   54 1
  58   28   55 1
  59   28   56 1

#	End of record

