#	Name: ASD01885722
#	Creating user name:	WinNT
#	Creation time:	15. 06. 2019 19:50

#	Modifying user name:	WinNT
#	Modification time:	15. 06. 2019 19:50

#	Program:	/corina/corina34_cracker 3.40 0067  02.08.2006

@<TRIPOS>MOLECULE
ASD01885722
  52   55    0    0    0
SMALL
NO_CHARGES


@<TRIPOS>ATOM
   1 C1            -0.0170     1.4037     0.0098 C.ar    
   2 C2            -1.2666     2.0741     0.0193 C.ar    
   3 C3            -1.2876     3.4919     0.0272 C.ar    
   4 C4            -0.0705     4.1595     0.0250 C.ar    
   5 C5             1.1196     3.4233     0.0154 C.ar    
   6 N6             1.1177     2.1038     0.0027 N.ar    
   7 C7             0.0021    -0.0041     0.0020 C.ar    
   8 C8            -1.1700    -0.6951     0.0090 C.ar    
   9 C9            -2.3952    -0.0320     0.0237 C.ar    
  10 C10           -2.4531     1.3297     0.0204 C.ar    
  11 C11           -2.5672     4.2367     0.0368 C.ar    
  12 C12           -2.7778     5.2542     0.9679 C.ar    
  13 C13           -3.9714     5.9450     0.9728 C.ar    
  14 C14           -3.5642     3.9272    -0.8888 C.ar    
  15 C15            2.4154     4.1443     0.0065 C.2     
  16 N16            3.5716     3.4520    -0.0142 N.am    
  17 O17            2.4348     5.3591     0.0180 O.2     
  18 C18           -1.1423    -2.2019     0.0132 C.3     
  19 C19           -4.9609     5.6299     0.0550 C.ar    
  20 C20           -4.7544     4.6238    -0.8757 C.ar    
  21 F21           -6.1287     6.3091     0.0641 F       
  22 N22           -1.1523    -2.6957    -1.3703 N.3     
  23 C23           -0.8852    -4.1563    -1.4161 C.3     
  24 C24           -1.4458    -4.6116    -2.7806 C.3     
  25 C25           -2.5085    -3.5562    -3.1497 C.3     
  26 C26           -2.5006    -2.5519    -1.9772 C.3     
  27 C27            0.5962    -4.4224    -1.3414 C.2     
  28 O28            1.3722    -3.5000    -1.2576 O.2     
  29 O29            1.0537    -5.6840    -1.3678 O.3     
  30 C30            2.4923    -5.8653    -1.2919 C.3     
  31 H31           -0.0423     5.2392     0.0305 H       
  32 H32            0.9434    -0.5334    -0.0098 H       
  33 H33           -3.3110    -0.6044     0.0376 H       
  34 H34           -3.4090     1.8322     0.0280 H       
  35 H35           -2.0075     5.5002     1.6838 H       
  36 H36           -4.1355     6.7325     1.6934 H       
  37 H37           -3.4040     3.1436    -1.6146 H       
  38 H38            3.5561     2.4822    -0.0234 H       
  39 H39            4.4192     3.9236    -0.0200 H       
  40 H40           -0.2389    -2.5472     0.5158 H       
  41 H41           -2.0184    -2.5799     0.5402 H       
  42 H42           -5.5283     4.3821    -1.5891 H       
  43 H43           -1.4050    -4.6635    -0.6033 H       
  44 H44           -0.6534    -4.6287    -3.5288 H       
  45 H45           -1.9050    -5.5962    -2.6917 H       
  46 H46           -2.2377    -3.0552    -4.0791 H       
  47 H47           -3.4893    -4.0226    -3.2420 H       
  48 H48           -3.2731    -2.8080    -1.2521 H       
  49 H49           -2.6454    -1.5363    -2.3455 H       
  50 H50            2.7266    -6.9294    -1.3230 H       
  51 H51            2.9667    -5.3640    -2.1356 H       
  52 H52            2.8637    -5.4386    -0.3602 H       
@<TRIPOS>BOND
   1    1    7 ar
   2    1    6 ar
   3    1    2 ar
   4    2    3 ar
   5    2   10 ar
   6    3   11 1
   7    3    4 ar
   8    4    5 ar
   9    4   31 1
  10    5   15 1
  11    5    6 ar
  12    7    8 ar
  13    7   32 1
  14    8    9 ar
  15    8   18 1
  16    9   10 ar
  17    9   33 1
  18   10   34 1
  19   11   12 ar
  20   11   14 ar
  21   12   13 ar
  22   12   35 1
  23   13   19 ar
  24   13   36 1
  25   14   20 ar
  26   14   37 1
  27   15   16 am
  28   15   17 2
  29   16   38 1
  30   16   39 1
  31   18   22 1
  32   18   40 1
  33   18   41 1
  34   19   20 ar
  35   19   21 1
  36   20   42 1
  37   22   23 1
  38   22   26 1
  39   23   24 1
  40   23   27 1
  41   23   43 1
  42   24   25 1
  43   24   44 1
  44   24   45 1
  45   25   26 1
  46   25   46 1
  47   25   47 1
  48   26   48 1
  49   26   49 1
  50   27   28 2
  51   27   29 1
  52   29   30 1
  53   30   50 1
  54   30   51 1
  55   30   52 1

#	End of record

