#	Name: ASD07301377
#	Creating user name:	WinNT
#	Creation time:	15. 06. 2019 21:11

#	Modifying user name:	WinNT
#	Modification time:	15. 06. 2019 21:11

#	Program:	/corina/corina34_cracker 3.40 0067  02.08.2006

@<TRIPOS>MOLECULE
ASD07301377
  39   40    0    0    0
SMALL
NO_CHARGES


@<TRIPOS>ATOM
   1 C1            -0.0179     1.4669     0.0101 C.2     
   2 C2             0.0021    -0.0041     0.0020 C.2     
   3 C3             1.2725    -0.6350    -0.0135 C.2     
   4 C4             2.3717     0.1566    -0.0197 C.2     
   5 N5             2.2553     1.5067    -0.0114 N.pl3   
   6 N6             1.1275     2.1158     0.0027 N.2     
   7 O7            -1.0315    -0.6546     0.0088 O.2     
   8 C8             3.4247     2.2743    -0.0184 C.ar    
   9 C9             3.6391     3.2311     0.9728 C.ar    
  10 C10            4.7999     3.9879     0.9604 C.ar    
  11 C11            5.7414     3.7937    -0.0329 C.ar    
  12 C12            5.5295     2.8449    -1.0165 C.ar    
  13 C13            4.3778     2.0818    -1.0090 C.ar    
  14 O14            2.7121     3.4213     1.9482 O.3     
  15 C15            2.9992     4.4187     2.9305 C.3     
  16 C16           -1.2999     2.2024     0.0202 C.2     
  17 C17           -1.3038     3.6150     0.0279 C.2     
  18 C18           -2.4765     4.2879     0.0372 C.2     
  19 O19           -2.3534     1.5904     0.0219 O.2     
  20 N20           -2.4802     5.6531     0.0446 N.pl3   
  21 C21           -1.2134     6.3891     0.0426 C.3     
  22 C22           -3.7508     6.3822     0.0546 C.3     
  23 H23            1.3605    -1.7114    -0.0198 H       
  24 H24            3.3531    -0.2939    -0.0312 H       
  25 H25            4.9689     4.7298     1.7269 H       
  26 H26            6.6451     4.3851    -0.0411 H       
  27 H27            6.2681     2.6975    -1.7905 H       
  28 H28            4.2171     1.3388    -1.7761 H       
  29 H29            2.1802     4.4683     3.6481 H       
  30 H30            3.9224     4.1620     3.4499 H       
  31 H31            3.1139     5.3867     2.4426 H       
  32 H32           -0.3699     4.1576     0.0264 H       
  33 H33           -3.4103     3.7453     0.0387 H       
  34 H34           -0.9042     6.5772    -0.9856 H       
  35 H35           -1.3439     7.3383     0.5622 H       
  36 H36           -0.4497     5.7993     0.5496 H       
  37 H37           -4.0611     6.5574     1.0848 H       
  38 H38           -3.6255     7.3377    -0.4546 H       
  39 H39           -4.5113     5.7938    -0.4588 H       
@<TRIPOS>BOND
   1    1    2 1
   2    1    6 2
   3    1   16 1
   4    2    3 1
   5    2    7 2
   6    3    4 2
   7    3   23 1
   8    4    5 1
   9    4   24 1
  10    5    6 1
  11    5    8 1
  12    8    9 ar
  13    8   13 ar
  14    9   10 ar
  15    9   14 1
  16   10   11 ar
  17   10   25 1
  18   11   12 ar
  19   11   26 1
  20   12   13 ar
  21   12   27 1
  22   13   28 1
  23   14   15 1
  24   15   29 1
  25   15   30 1
  26   15   31 1
  27   16   17 1
  28   16   19 2
  29   17   18 2
  30   17   32 1
  31   18   20 1
  32   18   33 1
  33   20   21 1
  34   20   22 1
  35   21   34 1
  36   21   35 1
  37   21   36 1
  38   22   37 1
  39   22   38 1
  40   22   39 1

#	End of record

