#	Name: ASD01885445
#	Creating user name:	WinNT
#	Creation time:	15. 06. 2019 19:49

#	Modifying user name:	WinNT
#	Modification time:	15. 06. 2019 19:49

#	Program:	/corina/corina34_cracker 3.40 0067  02.08.2006

@<TRIPOS>MOLECULE
ASD01885445
  48   50    0    0    0
SMALL
NO_CHARGES


@<TRIPOS>ATOM
   1 C1            -0.0169     1.3919     0.0097 C.ar    
   2 C2             0.0021    -0.0041     0.0020 C.ar    
   3 N3            -1.1141    -0.7731     0.0202 N.2     
   4 C4            -2.1908    -0.5679    -0.6467 C.2     
   5 C5            -2.3520     0.6322    -1.5424 C.3     
   6 C6            -2.2799     1.8710    -0.6856 C.2     
   7 N7            -1.1827     2.1467     0.0191 N.am    
   8 C8             1.1874     2.0914     0.0020 C.ar    
   9 C9             2.4012     1.4088    -0.0183 C.ar    
  10 C10            2.4112     0.0106    -0.0314 C.ar    
  11 C11            1.2376    -0.6788    -0.0216 C.ar    
  12 C12           -3.2993    -1.5325    -0.5336 C.ar    
  13 O13           -3.2294     2.6242    -0.6385 O.2     
  14 C14           -4.4923    -1.3460    -1.2447 C.ar    
  15 C15           -5.5038    -2.2748    -1.1084 C.ar    
  16 N16           -5.3588    -3.3244    -0.3231 N.ar    
  17 C17           -4.2534    -3.5388     0.3640 C.ar    
  18 C18           -3.1881    -2.6657     0.2838 C.ar    
  19 C19            3.6732     2.1591    -0.0263 C.2     
  20 O20            3.6620     3.3747    -0.0153 O.2     
  21 N21            4.8464     1.4961    -0.0459 N.am    
  22 C22            6.1083     2.2404    -0.0539 C.3     
  23 C23           -4.1506    -4.7575     1.2445 C.3     
  24 C24            7.2802     1.2571    -0.0763 C.3     
  25 C25            8.5980     2.0343    -0.0847 C.3     
  26 C26            9.7700     1.0510    -0.1071 C.3     
  27 H27           -1.5517     0.6494    -2.2821 H       
  28 H28           -3.3180     0.5887    -2.0456 H       
  29 H29           -1.1999     2.9347     0.5846 H       
  30 H30            1.1800     3.1714     0.0113 H       
  31 H31            3.3503    -0.5224    -0.0493 H       
  32 H32            1.2543    -1.7586    -0.0319 H       
  33 H33           -4.6183    -0.4885    -1.8891 H       
  34 H34           -6.4272    -2.1402    -1.6521 H       
  35 H35           -2.2862    -2.8477     0.8493 H       
  36 H36            4.8554     0.5262    -0.0547 H       
  37 H37            6.1499     2.8755    -0.9388 H       
  38 H38            6.1706     2.8595     0.8410 H       
  39 H39           -3.7403    -5.5876     0.6694 H       
  40 H40           -3.4957    -4.5416     2.0887 H       
  41 H41           -5.1412    -5.0247     1.6122 H       
  42 H42            7.2386     0.6219     0.8085 H       
  43 H43            7.2179     0.6379    -0.9712 H       
  44 H44            8.6397     2.6695    -0.9695 H       
  45 H45            8.6603     2.6535     0.8102 H       
  46 H46            9.7284     0.4159     0.7778 H       
  47 H47            9.7077     0.4319    -1.0020 H       
  48 H48           10.7088     1.6048    -0.1130 H       
@<TRIPOS>BOND
   1    1    2 ar
   2    1    8 ar
   3    1    7 1
   4    2    3 1
   5    2   11 ar
   6    3    4 2
   7    4    5 1
   8    4   12 1
   9    5    6 1
  10    5   27 1
  11    5   28 1
  12    6    7 am
  13    6   13 2
  14    7   29 1
  15    8    9 ar
  16    8   30 1
  17    9   10 ar
  18    9   19 1
  19   10   11 ar
  20   10   31 1
  21   11   32 1
  22   12   14 ar
  23   12   18 ar
  24   14   15 ar
  25   14   33 1
  26   15   16 ar
  27   15   34 1
  28   16   17 ar
  29   17   18 ar
  30   17   23 1
  31   18   35 1
  32   19   20 2
  33   19   21 am
  34   21   22 1
  35   21   36 1
  36   22   24 1
  37   22   37 1
  38   22   38 1
  39   23   39 1
  40   23   40 1
  41   23   41 1
  42   24   25 1
  43   24   42 1
  44   24   43 1
  45   25   26 1
  46   25   44 1
  47   25   45 1
  48   26   46 1
  49   26   47 1
  50   26   48 1

#	End of record

