#	Name: ASD01001042
#	Creating user name:	WinNT
#	Creation time:	15. 06. 2019 18:55

#	Modifying user name:	WinNT
#	Modification time:	15. 06. 2019 18:55

#	Program:	/corina/corina34_cracker 3.40 0067  02.08.2006

@<TRIPOS>MOLECULE
ASD01001042
  53   55    0    0    0
SMALL
NO_CHARGES


@<TRIPOS>ATOM
   1 C1             0.5539     0.5277    -1.0391 C.ar    
   2 C2             1.0158    -0.7711    -0.9324 C.ar    
   3 C3             1.3907     1.5857    -0.7381 C.ar    
   4 C4             2.3144    -1.0114    -0.5248 C.ar    
   5 C5             2.6897     1.3453    -0.3303 C.ar    
   6 C6             3.1516     0.0469    -0.2241 C.ar    
   7 C7             3.6025     2.4989    -0.0029 C.3     
   8 C8             2.8344     3.7915    -0.1043 C.ar    
   9 C9             4.1325     2.3381     1.3986 C.ar    
  10 S10            4.9876     2.5251    -1.1740 S.3     
  11 C11            1.7514     4.0188     0.7241 C.ar    
  12 C12            3.2164     4.7523    -1.0218 C.ar    
  13 C13            3.3900     1.6561     2.3443 C.ar    
  14 C14            5.3637     2.8677     1.7369 C.ar    
  15 C15            4.1586     2.4987    -2.7872 C.3     
  16 C16            1.0503     5.2068     0.6350 C.ar    
  17 C17            2.5118     5.9380    -1.1149 C.ar    
  18 C18            3.8787     1.5037     3.6284 C.ar    
  19 C19            5.8499     2.7203     3.0225 C.ar    
  20 C20            5.1993     2.6538    -3.8980 C.3     
  21 C21            1.4326     6.1678    -0.2822 C.ar    
  22 C22            5.1102     2.0329     3.9666 C.ar    
  23 N23            4.5280     2.6324    -5.2045 N.3     
  24 H24            5.7239     3.6013    -3.7746 H       
  25 C25            2.8176    -2.4271    -0.4075 C.3     
  26 C26            1.9642    -3.1892     0.6083 C.3     
  27 C27            2.7246    -3.1159    -1.7705 C.3     
  28 H28           -0.4594     0.7156    -1.3620 H       
  29 H29            0.3618    -1.5978    -1.1673 H       
  30 H30            1.0300     2.6002    -0.8217 H       
  31 H31            4.1661    -0.1409     0.0952 H       
  32 H32            1.4528     3.2680     1.4407 H       
  33 H33            4.0654     4.5768    -1.6658 H       
  34 H34            2.4279     1.2426     2.0801 H       
  35 H35            5.9460     3.3964     0.9967 H       
  36 H36            3.6340     1.5512    -2.9107 H       
  37 H37            3.4437     3.3196    -2.8419 H       
  38 H38            0.2038     5.3841     1.2818 H       
  39 H39            2.8104     6.6888    -1.8315 H       
  40 H40            3.2983     0.9715     4.3675 H       
  41 H41            6.8120     3.1338     3.2867 H       
  42 H42            5.9142     1.8328    -3.8434 H       
  43 H43            0.8846     7.0959    -0.3520 H       
  44 H44            5.4900     1.9177     4.9710 H       
  45 H45            5.1945     2.7333    -5.9552 H       
  46 H46            3.9817     1.7915    -5.3165 H       
  47 H47            3.8557    -2.4174    -0.0754 H       
  48 H48            0.9261    -3.1989     0.2762 H       
  49 H49            2.3282    -4.2131     0.6931 H       
  50 H50            2.0305    -2.6984     1.5793 H       
  51 H51            1.6865    -3.1256    -2.1026 H       
  52 H52            3.3325    -2.5730    -2.4942 H       
  53 H53            3.0885    -4.1399    -1.6857 H       
@<TRIPOS>BOND
   1    1    2 ar
   2    1    3 ar
   3    1   28 1
   4    2    4 ar
   5    2   29 1
   6    3    5 ar
   7    3   30 1
   8    4    6 ar
   9    4   25 1
  10    5    6 ar
  11    5    7 1
  12    6   31 1
  13    7   10 1
  14    7    8 1
  15    7    9 1
  16    8   12 ar
  17    8   11 ar
  18    9   14 ar
  19    9   13 ar
  20   10   15 1
  21   11   16 ar
  22   11   32 1
  23   12   17 ar
  24   12   33 1
  25   13   18 ar
  26   13   34 1
  27   14   19 ar
  28   14   35 1
  29   15   20 1
  30   15   36 1
  31   15   37 1
  32   16   21 ar
  33   16   38 1
  34   17   21 ar
  35   17   39 1
  36   18   22 ar
  37   18   40 1
  38   19   22 ar
  39   19   41 1
  40   20   23 1
  41   20   24 1
  42   20   42 1
  43   21   43 1
  44   22   44 1
  45   23   45 1
  46   23   46 1
  47   25   26 1
  48   25   27 1
  49   25   47 1
  50   26   48 1
  51   26   49 1
  52   26   50 1
  53   27   51 1
  54   27   52 1
  55   27   53 1

#	End of record

