#	Name: ASD01810764
#	Creating user name:	WinNT
#	Creation time:	15. 06. 2019 19:25

#	Modifying user name:	WinNT
#	Modification time:	15. 06. 2019 19:25

#	Program:	/corina/corina34_cracker 3.40 0067  02.08.2006

@<TRIPOS>MOLECULE
ASD01810764
  15   14    0    0    0
SMALL
NO_CHARGES


@<TRIPOS>ATOM
   1 C1            -0.0182     1.4903     0.0102 C.2     
   2 C2             0.0021    -0.0041     0.0020 C.2     
   3 O3             1.0244     2.1113     0.0036 O.2     
   4 N4            -1.1944     2.1482     0.0194 N.am    
   5 O5            -1.0405    -0.6251     0.0086 O.2     
   6 C6            -1.2143     3.6131     0.0274 C.3     
   7 N7             1.1783    -0.6620    -0.0127 N.am    
   8 N8             1.1968    -2.0278    -0.0203 N.3     
   9 H9            -2.0278     1.6519     0.0206 H       
  10 H10           -2.2468     3.9624     0.0342 H       
  11 H11           -0.7012     3.9785     0.9170 H       
  12 H12           -0.7097     3.9882    -0.8629 H       
  13 H13            2.0116    -0.1656    -0.0180 H       
  14 H14            2.1435    -2.3766    -0.0312 H       
  15 H15            0.6831    -2.4008     0.7641 H       
@<TRIPOS>BOND
   1    1    2 1
   2    1    3 2
   3    1    4 am
   4    2    5 2
   5    2    7 am
   6    4    6 1
   7    4    9 1
   8    6   10 1
   9    6   11 1
  10    6   12 1
  11    7    8 1
  12    7   13 1
  13    8   14 1
  14    8   15 1

#	End of record

