#	Name: ASD03731857
#	Creating user name:	WinNT
#	Creation time:	15. 06. 2019 20:46

#	Modifying user name:	WinNT
#	Modification time:	15. 06. 2019 20:46

#	Program:	/corina/corina34_cracker 3.40 0067  02.08.2006

@<TRIPOS>MOLECULE
ASD03731857
  36   37    0    0    0
SMALL
NO_CHARGES


@<TRIPOS>ATOM
   1 C1             0.3753     1.0911     1.9806 C.2     
   2 C2             0.2918    -0.2835     1.4536 C.ar    
   3 C3             1.3765    -0.8381     0.7634 C.ar    
   4 C4             1.2923    -2.1261     0.2722 C.ar    
   5 C5             0.1331    -2.8689     0.4627 C.ar    
   6 C6            -0.9453    -2.3197     1.1474 C.ar    
   7 C7            -0.8682    -1.0391     1.6465 C.ar    
   8 O8             1.3873     1.7450     1.8160 O.2     
   9 N9            -0.6721     1.6248     2.6398 N.am    
  10 S10           -0.5784     3.1686     3.2316 S.o2    
  11 O11           -1.8298     3.3747     3.8726 O.2     
  12 O12            0.6352     3.1876     3.9706 O.2     
  13 C13           -0.4405     4.2121     1.7542 C.3     
  14 F14            2.5025    -0.1149     0.5780 F       
  15 O15            0.0534    -4.1342    -0.0217 O.3     
  16 C16           -1.1337    -4.7864     0.0898 C.ar    
  17 C17           -2.0875    -4.6693    -0.9114 C.ar    
  18 C18           -3.2933    -5.3329    -0.7962 C.ar    
  19 C19           -3.5508    -6.1138     0.3170 C.ar    
  20 C20           -2.6014    -6.2315     1.3165 C.ar    
  21 C21           -1.3914    -5.5747     1.2019 C.ar    
  22 C22           -4.3294    -5.2061    -1.8831 C.3     
  23 F23           -3.8438    -4.3712    -2.8952 F       
  24 F24           -4.6055    -6.4707    -2.4140 F       
  25 F25           -5.5009    -4.6587    -1.3490 F       
  26 Cl26          -5.0674    -6.9465     0.4597 Cl      
  27 Cl27           2.6348    -2.8175    -0.5841 Cl      
  28 H28           -1.8439    -2.9010     1.2921 H       
  29 H29           -1.7053    -0.6168     2.1826 H       
  30 H30           -1.4808     1.1047     2.7676 H       
  31 H31           -1.3195     4.0700     1.1256 H       
  32 H32           -0.3729     5.2581     2.0533 H       
  33 H33            0.4539     3.9353     1.1961 H       
  34 H34           -1.8872    -4.0594    -1.7799 H       
  35 H35           -2.8044    -6.8412     2.1845 H       
  36 H36           -0.6485    -5.6709     1.9799 H       
@<TRIPOS>BOND
   1    1    2 1
   2    1    8 2
   3    1    9 am
   4    2    3 ar
   5    2    7 ar
   6    3    4 ar
   7    3   14 1
   8    4    5 ar
   9    4   27 1
  10    5    6 ar
  11    5   15 1
  12    6    7 ar
  13    6   28 1
  14    7   29 1
  15    9   10 am
  16    9   30 1
  17   10   11 2
  18   10   12 2
  19   10   13 1
  20   13   31 1
  21   13   32 1
  22   13   33 1
  23   15   16 1
  24   16   17 ar
  25   16   21 ar
  26   17   18 ar
  27   17   34 1
  28   18   19 ar
  29   18   22 1
  30   19   20 ar
  31   19   26 1
  32   20   21 ar
  33   20   35 1
  34   21   36 1
  35   22   23 1
  36   22   24 1
  37   22   25 1

#	End of record

