#	Name: ASD08070478
#	Creating user name:	WinNT
#	Creation time:	15. 06. 2019 21:14

#	Modifying user name:	WinNT
#	Modification time:	15. 06. 2019 21:14

#	Program:	/corina/corina34_cracker 3.40 0067  02.08.2006

@<TRIPOS>MOLECULE
ASD08070478
  51   53    0    0    0
SMALL
NO_CHARGES


@<TRIPOS>ATOM
   1 C1             0.0205     1.5003    -0.0082 C.2     
   2 C2             0.1188    -0.0021    -0.0748 C.3     
   3 C3            -0.7241    -0.5171    -1.2431 C.3     
   4 O4             1.0163     2.1762    -0.1150 O.2     
   5 O5            -1.1741     2.0876     0.1640 O.3     
   6 C6             2.3391    -0.5139     0.7887 C.2     
   7 O7             1.9198    -0.3008     1.9107 O.2     
   8 N8             1.5172    -0.3916    -0.2724 N.am    
   9 O9             4.3143    -1.1645    -0.6036 O.3     
  10 C10            3.7420    -0.9047     0.5904 C.2     
  11 C11            4.6581    -1.0580     1.5813 C.2     
  12 C12            5.9049    -1.4482     0.9238 C.ar    
  13 C13            5.6126    -1.4951    -0.4520 C.ar    
  14 C14            7.1913    -1.7478     1.3783 C.ar    
  15 C15            8.1724    -2.0899     0.4689 C.ar    
  16 C16            7.8807    -2.1351    -0.8919 C.ar    
  17 C17            6.6149    -1.8421    -1.3498 C.ar    
  18 O18            9.4271    -2.3830     0.9034 O.3     
  19 C19           10.3937    -2.7288    -0.0907 C.3     
  20 C20           -0.7033    -2.0470    -1.2515 C.3     
  21 C21           -1.4056    -2.5734     0.0017 C.3     
  22 C22           -1.3849    -4.1033    -0.0068 C.3     
  23 C23           -2.1111    -4.6163    -1.2519 C.3     
  24 C24           -1.4088    -4.0898    -2.5051 C.3     
  25 C25           -1.4295    -2.5600    -2.4967 C.3     
  26 C26           -1.1935     3.5385     0.2187 C.3     
  27 H27           -0.2499    -0.4319     0.8566 H       
  28 H28           -1.7508    -0.1683    -1.1320 H       
  29 H29           -0.3127    -0.1430    -2.1806 H       
  30 H30            1.8515    -0.5615    -1.1670 H       
  31 H31            4.4983    -0.9193     2.6404 H       
  32 H32            7.4171    -1.7119     2.4338 H       
  33 H33            8.6548    -2.4030    -1.5957 H       
  34 H34            6.4016    -1.8812    -2.4078 H       
  35 H35           11.3495    -2.9386     0.3893 H       
  36 H36           10.0574    -3.6129    -0.6324 H       
  37 H37           10.5114    -1.8988    -0.7873 H       
  38 H38            0.3291    -2.3963    -1.2633 H       
  39 H39           -0.8883    -2.2079     0.8887 H       
  40 H40           -2.4381    -2.2241     0.0134 H       
  41 H41           -0.3524    -4.4526    -0.0185 H       
  42 H42           -1.8852    -4.4783     0.8860 H       
  43 H43           -2.0963    -5.7062    -1.2579 H       
  44 H44           -3.1435    -4.2670    -1.2402 H       
  45 H45           -0.3763    -4.4392    -2.5168 H       
  46 H46           -1.9261    -4.4554    -3.3921 H       
  47 H47           -2.4619    -2.2107    -2.4849 H       
  48 H48           -0.9292    -2.1849    -3.3895 H       
  49 H49           -0.5770     3.8790     1.0506 H       
  50 H50           -0.8003     3.9425    -0.7141 H       
  51 H51           -2.2179     3.8830     0.3607 H       
@<TRIPOS>BOND
   1    1    2 1
   2    1    4 2
   3    1    5 1
   4    2    3 1
   5    2    8 1
   6    2   27 1
   7    3   20 1
   8    3   28 1
   9    3   29 1
  10    5   26 1
  11    6    7 2
  12    6    8 am
  13    6   10 1
  14    8   30 1
  15    9   10 1
  16    9   13 1
  17   10   11 2
  18   11   12 1
  19   11   31 1
  20   12   13 ar
  21   12   14 ar
  22   13   17 ar
  23   14   15 ar
  24   14   32 1
  25   15   16 ar
  26   15   18 1
  27   16   17 ar
  28   16   33 1
  29   17   34 1
  30   18   19 1
  31   19   35 1
  32   19   36 1
  33   19   37 1
  34   20   21 1
  35   20   25 1
  36   20   38 1
  37   21   22 1
  38   21   39 1
  39   21   40 1
  40   22   23 1
  41   22   41 1
  42   22   42 1
  43   23   24 1
  44   23   43 1
  45   23   44 1
  46   24   25 1
  47   24   45 1
  48   24   46 1
  49   25   47 1
  50   25   48 1
  51   26   49 1
  52   26   50 1
  53   26   51 1

#	End of record

