#	Name: ASD03092502
#	Creating user name:	WinNT
#	Creation time:	15. 06. 2019 20:32

#	Modifying user name:	WinNT
#	Modification time:	15. 06. 2019 20:32

#	Program:	/corina/corina34_cracker 3.40 0067  02.08.2006

@<TRIPOS>MOLECULE
ASD03092502
  60   64    0    0    0
SMALL
NO_CHARGES


@<TRIPOS>ATOM
   1 C1            -0.1268     1.4451     0.0218 C.2     
   2 C2            -0.1636    -0.0317     0.0285 C.ar    
   3 C3             1.0114    -0.7629    -0.1602 C.ar    
   4 C4             0.9715    -2.1404    -0.1526 C.ar    
   5 C5            -0.2325    -2.8006     0.0415 C.ar    
   6 C6            -1.4017    -2.0798     0.2292 C.ar    
   7 C7            -1.3722    -0.7015     0.2292 C.ar    
   8 O8             0.9388     2.0262    -0.0459 O.2     
   9 N9            -1.2749     2.1481     0.0852 N.am    
  10 C10            2.3203    -0.0468    -0.3722 C.3     
  11 F11           -0.2663    -4.1512     0.0471 F       
  12 C12           -1.2384     3.6126     0.0786 C.3     
  13 S13           -4.9301     5.0778    -0.3940 S.3     
  14 C14           -4.4916     4.7856     1.2322 C.2     
  15 N15           -3.2832     4.3126     1.2952 N.2     
  16 C16           -2.6440     4.1505     0.1571 C.2     
  17 C17           -3.3531     4.5073    -0.9342 C.2     
  18 C18           -7.4900     5.7552     3.1487 C.3     
  19 C19           -6.6097     5.5561     1.9048 C.3     
  20 N20           -5.3066     5.0197     2.3248 N.3     
  21 C21           -5.4673     3.8017     3.1329 C.3     
  22 C22           -6.4145     4.1038     4.3048 C.3     
  23 C23           -5.9287     5.4067     4.9833 C.3     
  24 C24           -6.6563     6.5237     4.2014 C.3     
  25 O25           -7.6999     4.4518     3.7399 O.3     
  26 C26           -2.5932     5.4084    -4.4999 C.ar    
  27 C27           -3.0409     5.5220    -3.2016 C.ar    
  28 C28           -2.8896     4.4325    -2.3334 C.ar    
  29 C29           -2.2855     3.2701    -2.8309 C.ar    
  30 C30           -1.8673     3.2443    -4.1437 C.ar    
  31 N31           -2.0293     4.2940    -4.9278 N.ar    
  32 C32           -1.2157     2.0009    -4.6917 C.3     
  33 C33           -2.7551     6.5701    -5.4461 C.3     
  34 H34            1.8794    -2.7068    -0.2984 H       
  35 H35           -2.3367    -2.5989     0.3800 H       
  36 H36           -2.2829    -0.1408     0.3800 H       
  37 H37           -2.1254     1.6843     0.1351 H       
  38 H38            2.7401     0.2363     0.5930 H       
  39 H39            3.0155    -0.7066    -0.8914 H       
  40 H40            2.1521     0.8479    -0.9717 H       
  41 H41           -0.6658     3.9657     0.9362 H       
  42 H42           -0.7673     3.9602    -0.8408 H       
  43 H43           -8.4241     6.2647     2.9122 H       
  44 H44           -7.0918     4.8535     1.2251 H       
  45 H45           -6.4660     6.5126     1.4024 H       
  46 H46           -5.8901     3.0080     2.5170 H       
  47 H47           -4.4971     3.4890     3.5190 H       
  48 H48           -6.4753     3.2725     5.0071 H       
  49 H49           -6.2199     5.4227     6.0336 H       
  50 H50           -4.8483     5.5106     4.8830 H       
  51 H51           -5.9363     7.1810     3.7138 H       
  52 H52           -7.3079     7.0929     4.8643 H       
  53 H53           -3.5009     6.4369    -2.8583 H       
  54 H54           -2.1494     2.4077    -2.1951 H       
  55 H55           -1.9790     1.3449    -5.1101 H       
  56 H56           -0.5060     2.2764    -5.4719 H       
  57 H57           -0.6906     1.4822    -3.8896 H       
  58 H58           -1.8751     7.2107    -5.3889 H       
  59 H59           -2.8672     6.1967    -6.4640 H       
  60 H60           -3.6402     7.1431    -5.1698 H       
@<TRIPOS>BOND
   1    1    2 1
   2    1    8 2
   3    1    9 am
   4    2    3 ar
   5    2    7 ar
   6    3    4 ar
   7    3   10 1
   8    4    5 ar
   9    4   34 1
  10    5    6 ar
  11    5   11 1
  12    6    7 ar
  13    6   35 1
  14    7   36 1
  15    9   12 1
  16    9   37 1
  17   10   38 1
  18   10   39 1
  19   10   40 1
  20   12   16 1
  21   12   41 1
  22   12   42 1
  23   13   14 1
  24   13   17 1
  25   14   15 2
  26   14   20 1
  27   15   16 1
  28   16   17 2
  29   17   28 1
  30   18   19 1
  31   18   24 1
  32   18   25 1
  33   18   43 1
  34   19   20 1
  35   19   44 1
  36   19   45 1
  37   20   21 1
  38   21   22 1
  39   21   46 1
  40   21   47 1
  41   22   23 1
  42   22   25 1
  43   22   48 1
  44   23   24 1
  45   23   49 1
  46   23   50 1
  47   24   51 1
  48   24   52 1
  49   26   27 ar
  50   26   31 ar
  51   26   33 1
  52   27   28 ar
  53   27   53 1
  54   28   29 ar
  55   29   30 ar
  56   29   54 1
  57   30   31 ar
  58   30   32 1
  59   32   55 1
  60   32   56 1
  61   32   57 1
  62   33   58 1
  63   33   59 1
  64   33   60 1

#	End of record

