#	Name: ASD03092686
#	Creating user name:	WinNT
#	Creation time:	15. 06. 2019 20:33

#	Modifying user name:	WinNT
#	Modification time:	15. 06. 2019 20:33

#	Program:	/corina/corina34_cracker 3.40 0067  02.08.2006

@<TRIPOS>MOLECULE
ASD03092686
  40   42    0    0    0
SMALL
NO_CHARGES


@<TRIPOS>ATOM
   1 C1            -0.0187     1.5258     0.0104 C.3     
   2 C2             0.0021    -0.0041     0.0020 C.3     
   3 C3             1.3165     0.7789    -0.0063 C.3     
   4 C4            -0.4176     2.2092     1.2929 C.2     
   5 O5            -0.7068     1.5482     2.2678 O.2     
   6 N6            -0.4530     3.5550     1.3566 N.am    
   7 C7            -0.8408     4.2194     2.6034 C.3     
   8 C8             0.3833     4.3550     3.5112 C.3     
   9 O9             1.3361     5.2264     2.8990 O.3     
  10 C10           -1.3904     5.5879     2.2934 C.ar    
  11 C11           -2.2720     6.1834     3.1779 C.ar    
  12 C12           -2.7744     7.4400     2.8907 C.ar    
  13 C13           -2.3655     8.0631     1.7047 C.ar    
  14 C14           -1.4726     7.3946     0.8654 C.ar    
  15 N15           -1.0187     6.2006     1.1858 N.ar    
  16 C16           -2.8554     9.3635     1.3590 C.1     
  17 N17           -3.2440    10.3951     1.0847 N.1     
  18 C18           -0.4023    -0.6984    -1.2729 C.ar    
  19 C19           -1.4808    -1.5632    -1.2768 C.ar    
  20 C20           -1.8517    -2.2002    -2.4462 C.ar    
  21 C21           -1.1445    -1.9720    -3.6118 C.ar    
  22 C22           -0.0666    -1.1066    -3.6081 C.ar    
  23 C23            0.3016    -0.4663    -2.4397 C.ar    
  24 H24           -0.3248     2.0300    -0.9061 H       
  25 H25           -0.2728    -0.5162     0.9241 H       
  26 H26            1.8888     0.7918    -0.9339 H       
  27 H27            1.9064     0.7818     0.9103 H       
  28 H28           -0.2217     4.0837     0.5769 H       
  29 H29           -1.6040     3.6273     3.1085 H       
  30 H30            0.0785     4.7679     4.4728 H       
  31 H31            0.8333     3.3739     3.6632 H       
  32 H32            2.1398     5.3588     3.4202 H       
  33 H33           -2.5653     5.6724     4.0830 H       
  34 H34           -3.4643     7.9278     3.5633 H       
  35 H35           -1.1482     7.8622    -0.0525 H       
  36 H36           -2.0333    -1.7415    -0.3661 H       
  37 H37           -2.6938    -2.8764    -2.4491 H       
  38 H38           -1.4339    -2.4702    -4.5253 H       
  39 H39            0.4861    -0.9286    -4.5187 H       
  40 H40            1.1415     0.2128    -2.4376 H       
@<TRIPOS>BOND
   1    1    2 1
   2    1    3 1
   3    1    4 1
   4    1   24 1
   5    2    3 1
   6    2   18 1
   7    2   25 1
   8    3   26 1
   9    3   27 1
  10    4    5 2
  11    4    6 am
  12    6    7 1
  13    6   28 1
  14    7    8 1
  15    7   10 1
  16    7   29 1
  17    8    9 1
  18    8   30 1
  19    8   31 1
  20    9   32 1
  21   10   11 ar
  22   10   15 ar
  23   11   12 ar
  24   11   33 1
  25   12   13 ar
  26   12   34 1
  27   13   14 ar
  28   13   16 1
  29   14   15 ar
  30   14   35 1
  31   16   17 3
  32   18   19 ar
  33   18   23 ar
  34   19   20 ar
  35   19   36 1
  36   20   21 ar
  37   20   37 1
  38   21   22 ar
  39   21   38 1
  40   22   23 ar
  41   22   39 1
  42   23   40 1

#	End of record

