#	Name: ASD01148868
#	Creating user name:	WinNT
#	Creation time:	15. 06. 2019 19:03

#	Modifying user name:	WinNT
#	Modification time:	15. 06. 2019 19:03

#	Program:	/corina/corina34_cracker 3.40 0067  02.08.2006

@<TRIPOS>MOLECULE
ASD01148868
  37   37    0    0    0
SMALL
NO_CHARGES


@<TRIPOS>ATOM
   1 C1            -0.0184     1.5028     0.0103 C.2     
   2 C2             0.0021    -0.0041     0.0020 C.3     
   3 C3            -0.7132    -0.5094    -1.2244 C.2     
   4 C4            -2.2111    -0.6738    -1.2090 C.3     
   5 C5            -2.6808    -1.1971    -2.5678 C.3     
   6 O6             1.0197     2.1211     0.0037 O.2     
   7 O7            -1.1898     2.1580     0.0194 O.3     
   8 O8            -0.0860    -0.7827    -2.2195 O.2     
   9 C9             1.4513    -0.4944    -0.0145 C.3     
  10 C10            1.4746    -1.9968     0.1011 C.2     
  11 O11            0.4347    -2.6144     0.1880 O.2     
  12 C12            2.7588    -2.7139     0.1084 C.ar    
  13 C13            2.7843    -4.1086     0.2155 C.ar    
  14 C14            3.9912    -4.7739     0.2212 C.ar    
  15 C15            5.1776    -4.0648     0.1217 C.ar    
  16 C16            5.1600    -2.6833     0.0157 C.ar    
  17 C17            3.9603    -2.0051     0.0024 C.ar    
  18 Cl18           6.6932    -4.9112     0.1303 Cl      
  19 C19           -1.1335     3.6089     0.0270 C.3     
  20 C20           -2.5551     4.1744     0.0369 C.3     
  21 H21           -0.4983    -0.3791     0.8948 H       
  22 H22           -2.4908    -1.3831    -0.4300 H       
  23 H23           -2.6803     0.2895    -1.0087 H       
  24 H24           -3.7642    -1.3160    -2.5567 H       
  25 H25           -2.4011    -0.4878    -3.3468 H       
  26 H26           -2.2116    -2.1604    -2.7681 H       
  27 H27            1.9257    -0.1944    -0.9488 H       
  28 H28            1.9924    -0.0570     0.8246 H       
  29 H29            1.8605    -4.6625     0.2939 H       
  30 H30            4.0125    -5.8505     0.3039 H       
  31 H31            6.0885    -2.1371    -0.0611 H       
  32 H32            3.9479    -0.9287    -0.0847 H       
  33 H33           -0.6017     3.9472     0.9164 H       
  34 H34           -0.6102     3.9569    -0.8636 H       
  35 H35           -2.5128     5.2636     0.0426 H       
  36 H36           -3.0869     3.8361    -0.8525 H       
  37 H37           -3.0784     3.8265     0.9275 H       
@<TRIPOS>BOND
   1    1    2 1
   2    1    6 2
   3    1    7 1
   4    2    3 1
   5    2    9 1
   6    2   21 1
   7    3    4 1
   8    3    8 2
   9    4    5 1
  10    4   22 1
  11    4   23 1
  12    5   24 1
  13    5   25 1
  14    5   26 1
  15    7   19 1
  16    9   10 1
  17    9   27 1
  18    9   28 1
  19   10   11 2
  20   10   12 1
  21   12   13 ar
  22   12   17 ar
  23   13   14 ar
  24   13   29 1
  25   14   15 ar
  26   14   30 1
  27   15   16 ar
  28   15   18 1
  29   16   17 ar
  30   16   31 1
  31   17   32 1
  32   19   20 1
  33   19   33 1
  34   19   34 1
  35   20   35 1
  36   20   36 1
  37   20   37 1

#	End of record

