#	Name: ASD01028740
#	Creating user name:	WinNT
#	Creation time:	15. 06. 2019 18:58

#	Modifying user name:	WinNT
#	Modification time:	15. 06. 2019 18:58

#	Program:	/corina/corina34_cracker 3.40 0067  02.08.2006

@<TRIPOS>MOLECULE
ASD01028740
  30   32    0    0    0
SMALL
NO_CHARGES


@<TRIPOS>ATOM
   1 C1            -0.0184     1.5028     0.0103 C.2     
   2 C2             0.0021    -0.0041     0.0020 C.3     
   3 O3             1.0197     2.1211     0.0037 O.2     
   4 O4            -1.1898     2.1580     0.0194 O.3     
   5 C5             2.3077    -0.6786     1.1464 C.ar    
   6 C6             3.5272    -1.1377     0.6168 C.ar    
   7 C7             4.5768    -1.4188     1.4858 C.ar    
   8 C8             4.3770    -1.2344     2.8405 C.ar    
   9 C9             3.1405    -0.7756     3.2993 C.ar    
  10 N10            2.1551    -0.5142     2.4539 N.ar    
  11 O11            3.3863    -1.2056    -0.7214 O.3     
  12 C12            1.4295    -0.4870    -0.0142 C.2     
  13 C13            2.1539    -0.8200    -1.0923 C.2     
  14 C14            2.9275    -0.5785     4.7542 C.ar    
  15 C15            1.6984    -0.1212     5.2248 C.ar    
  16 C16            1.5044     0.0610     6.5815 C.ar    
  17 C17            2.5298    -0.2099     7.4723 C.ar    
  18 C18            3.7532    -0.6647     7.0090 C.ar    
  19 C19            3.9541    -0.8557     5.6545 C.ar    
  20 F20            4.7499    -0.9274     7.8824 F       
  21 F21            0.3131     0.5044     7.0389 F       
  22 H22           -0.4983    -0.3791     0.8948 H       
  23 H23           -0.5153    -0.3696    -0.8850 H       
  24 H24           -1.1523     3.1243     0.0245 H       
  25 H25            5.5254    -1.7732     1.1103 H       
  26 H26            5.1723    -1.4441     3.5404 H       
  27 H27            1.7970    -0.7867    -2.1111 H       
  28 H28            0.8986     0.0910     4.5308 H       
  29 H29            2.3750    -0.0658     8.5314 H       
  30 H30            4.9069    -1.2150     5.2945 H       
@<TRIPOS>BOND
   1    1    2 1
   2    1    3 2
   3    1    4 1
   4    2   12 1
   5    2   22 1
   6    2   23 1
   7    4   24 1
   8    5    6 ar
   9    5   10 ar
  10    5   12 1
  11    6    7 ar
  12    6   11 1
  13    7    8 ar
  14    7   25 1
  15    8    9 ar
  16    8   26 1
  17    9   10 ar
  18    9   14 1
  19   11   13 1
  20   12   13 2
  21   13   27 1
  22   14   15 ar
  23   14   19 ar
  24   15   16 ar
  25   15   28 1
  26   16   17 ar
  27   16   21 1
  28   17   18 ar
  29   17   29 1
  30   18   19 ar
  31   18   20 1
  32   19   30 1

#	End of record

