#	Name: ASD02038983
#	Creating user name:	WinNT
#	Creation time:	15. 06. 2019 20:17

#	Modifying user name:	WinNT
#	Modification time:	15. 06. 2019 20:17

#	Program:	/corina/corina34_cracker 3.40 0067  02.08.2006

@<TRIPOS>MOLECULE
ASD02038983
  41   44    0    0    0
SMALL
NO_CHARGES


@<TRIPOS>ATOM
   1 N1             0.0233     1.2846    -0.3599 N.2     
   2 N2             0.0395    -0.0018    -0.3609 N.2     
   3 C3             1.2243     1.7332    -0.0872 C.2     
   4 O4             2.0202     0.6621     0.0887 O.3     
   5 C5             1.2408    -0.4221    -0.0911 C.2     
   6 N6             1.6034     3.0607     0.0032 N.pl3   
   7 C7             0.6405     4.0704    -0.0872 C.ar    
   8 C8             1.6805    -1.8604     0.0035 C.3     
   9 O9             2.1166    -2.3106    -1.2807 O.3     
  10 C10            2.5493    -3.5965    -1.3699 C.ar    
  11 C11            2.9867    -4.0982    -2.5874 C.ar    
  12 C12            2.5584    -4.4045    -0.2426 C.ar    
  13 C13            2.9978    -5.7109    -0.3320 C.ar    
  14 C14            3.4301    -6.2151    -1.5508 C.ar    
  15 C15            3.4257    -5.4036    -2.6780 C.ar    
  16 N16            3.8759    -7.5392    -1.6457 N.am    
  17 C17            4.6284    -7.9320    -2.6897 C.2     
  18 C18            5.0219    -6.9558    -3.7654 C.3     
  19 C19            3.8948    -5.9541    -3.9997 C.3     
  20 O20            4.9941    -9.0860    -2.7645 O.2     
  21 C21           -0.6622     3.8292     0.3306 C.ar    
  22 C22            0.9859     5.3185    -0.5897 C.ar    
  23 C23            0.0327     6.3138    -0.6779 C.ar    
  24 C24           -1.2653     6.0690    -0.2658 C.ar    
  25 C25           -1.6111     4.8284     0.2401 C.ar    
  26 Br26          -2.5673     7.4350    -0.3870 Br      
  27 H27            2.5372     3.2909     0.1292 H       
  28 H28            2.5015    -1.9432     0.7156 H       
  29 H29            0.8449    -2.4744     0.3393 H       
  30 H30            2.9834    -3.4674    -3.4640 H       
  31 H31            2.2222    -4.0119     0.7057 H       
  32 H32            3.0053    -6.3397     0.5461 H       
  33 H33            3.6409    -8.1773    -0.9540 H       
  34 H34            5.9197    -6.4201    -3.4573 H       
  35 H35            5.2244    -7.4975    -4.6894 H       
  36 H36            3.0638    -6.4526    -4.4987 H       
  37 H37            4.2578    -5.1390    -4.6258 H       
  38 H38           -0.9326     2.8611     0.7255 H       
  39 H39            1.9991     5.5104    -0.9108 H       
  40 H40            0.3007     7.2844    -1.0685 H       
  41 H41           -2.6250     4.6402     0.5609 H       
@<TRIPOS>BOND
   1    1    2 1
   2    1    3 2
   3    2    5 2
   4    3    4 1
   5    3    6 1
   6    4    5 1
   7    5    8 1
   8    6    7 1
   9    6   27 1
  10    7   21 ar
  11    7   22 ar
  12    8    9 1
  13    8   28 1
  14    8   29 1
  15    9   10 1
  16   10   11 ar
  17   10   12 ar
  18   11   15 ar
  19   11   30 1
  20   12   13 ar
  21   12   31 1
  22   13   14 ar
  23   13   32 1
  24   14   15 ar
  25   14   16 1
  26   15   19 1
  27   16   17 am
  28   16   33 1
  29   17   18 1
  30   17   20 2
  31   18   19 1
  32   18   34 1
  33   18   35 1
  34   19   36 1
  35   19   37 1
  36   21   25 ar
  37   21   38 1
  38   22   23 ar
  39   22   39 1
  40   23   24 ar
  41   23   40 1
  42   24   25 ar
  43   24   26 1
  44   25   41 1

#	End of record

