#	Name: ASD04590117
#	Creating user name:	WinNT
#	Creation time:	15. 06. 2019 20:50

#	Modifying user name:	WinNT
#	Modification time:	15. 06. 2019 20:50

#	Program:	/corina/corina34_cracker 3.40 0067  02.08.2006

@<TRIPOS>MOLECULE
ASD04590117
  36   38    0    0    0
SMALL
NO_CHARGES


@<TRIPOS>ATOM
   1 N1            -0.0715     1.2693    -0.0449 N.pl3   
   2 N2            -0.0332    -0.0137     0.0019 N.2     
   3 C3             1.1984    -0.4416    -0.1989 C.2     
   4 C4             2.0113     0.7056    -0.3910 C.2     
   5 C5             1.1686     1.7674    -0.2858 C.2     
   6 C6             1.6460    -1.8466    -0.2189 C.2     
   7 N7             0.7572    -2.8399    -0.0194 N.am    
   8 O8             2.8171    -2.1089    -0.4155 O.2     
   9 N9             3.3920     0.7374    -0.6375 N.am    
  10 C10            4.0208     1.9186    -0.7984 C.2     
  11 C11            6.3763     2.0177     0.0087 C.ar    
  12 C12            5.4727     1.9521    -1.0575 C.ar    
  13 C13            1.1616    -4.1740    -0.1353 C.ar    
  14 C14            2.4410    -4.5610     0.2553 C.ar    
  15 C15            2.7949    -5.8938     0.1217 C.ar    
  16 C16            1.8744    -6.7888    -0.3906 C.ar    
  17 N17            0.6702    -6.3902    -0.7520 N.ar    
  18 C18            0.2910    -5.1334    -0.6364 C.ar    
  19 C19            7.7350     2.0483    -0.2432 C.ar    
  20 C20            8.2020     2.0146    -1.5446 C.ar    
  21 C21            7.3158     1.9492    -2.6044 C.ar    
  22 C22            5.9539     1.9180    -2.3708 C.ar    
  23 F23            5.9219     2.0568     1.2804 F       
  24 F24            5.0899     1.8550    -3.4075 F       
  25 O25            3.3912     2.9568    -0.7300 O.2     
  26 H26           -0.8717     1.8051     0.0711 H       
  27 H27            1.4351     2.8100    -0.3766 H       
  28 H28           -0.1628    -2.6297     0.2045 H       
  29 H29            3.8941    -0.0907    -0.6920 H       
  30 H30            3.1402    -3.8400     0.6523 H       
  31 H31            3.7788    -6.2296     0.4142 H       
  32 H32            2.1452    -7.8288    -0.4968 H       
  33 H33           -0.7035    -4.8447    -0.9431 H       
  34 H34            8.4339     2.0989     0.5786 H       
  35 H35            9.2650     2.0391    -1.7343 H       
  36 H36            7.6891     1.9240    -3.6176 H       
@<TRIPOS>BOND
   1    1    2 1
   2    1    5 1
   3    1   26 1
   4    2    3 2
   5    3    4 1
   6    3    6 1
   7    4    5 2
   8    4    9 1
   9    5   27 1
  10    6    7 am
  11    6    8 2
  12    7   13 1
  13    7   28 1
  14    9   10 am
  15    9   29 1
  16   10   25 2
  17   10   12 1
  18   11   12 ar
  19   11   19 ar
  20   11   23 1
  21   12   22 ar
  22   13   14 ar
  23   13   18 ar
  24   14   15 ar
  25   14   30 1
  26   15   16 ar
  27   15   31 1
  28   16   17 ar
  29   16   32 1
  30   17   18 ar
  31   18   33 1
  32   19   20 ar
  33   19   34 1
  34   20   21 ar
  35   20   35 1
  36   21   22 ar
  37   21   36 1
  38   22   24 1

#	End of record

