#	Name: ASD00241035
#	Creating user name:	WinNT
#	Creation time:	15. 06. 2019 18:33

#	Modifying user name:	WinNT
#	Modification time:	15. 06. 2019 18:33

#	Program:	/corina/corina34_cracker 3.40 0067  02.08.2006

@<TRIPOS>MOLECULE
ASD00241035
  45   47    0    0    0
SMALL
NO_CHARGES


@<TRIPOS>ATOM
   1 N1             0.5488     1.7583    -1.7675 N.ar    
   2 C2             0.4877     0.4400    -1.6970 C.ar    
   3 N3             1.5552    -0.3074    -1.5016 N.ar    
   4 C4             2.7550     0.2480    -1.3661 C.ar    
   5 C5             2.8722     1.6465    -1.4340 C.ar    
   6 C6             1.7054     2.4011    -1.6434 C.ar    
   7 N7             4.0248    -0.2283    -1.1585 N.pl3   
   8 C8             4.8612     0.8472    -1.1056 C.2     
   9 N9             4.1831     1.9460    -1.2674 N.2     
  10 C10            4.4110    -1.6345    -1.0186 C.3     
  11 O11            5.6532    -1.7446    -0.2900 O.3     
  12 C12            6.1807    -3.0449    -0.6317 C.3     
  13 C13            5.9008    -3.1998    -2.1430 C.3     
  14 C14            4.7097    -2.2506    -2.4034 C.3     
  15 N15            7.6256    -3.0951    -0.3715 N.3     
  16 O16            3.5796    -2.9842    -2.8794 O.3     
  17 O17            5.5425    -4.5486    -2.4502 O.3     
  18 N18            1.7596     3.7817    -1.7195 N.pl3   
  19 C19            7.9207    -2.7574     1.0274 C.3     
  20 C20            9.4072    -2.5784     1.1982 C.2     
  21 C21            9.8763    -1.4880     1.7523 C.2     
  22 C22            8.9343    -0.3844     2.1593 C.3     
  23 N23            9.1782    -0.0251     3.5627 N.3     
  24 C24            8.1787    -4.4096    -0.7237 C.3     
  25 Cl25          -1.0560    -0.3356    -1.8677 Cl      
  26 H26            5.9288     0.7949    -0.9514 H       
  27 H27            3.6241    -2.1950    -0.5138 H       
  28 H28            5.6657    -3.8233    -0.0687 H       
  29 H29            6.7690    -2.8920    -2.7258 H       
  30 H30            4.9891    -1.4735    -3.1148 H       
  31 H31            3.7323    -3.4418    -3.7175 H       
  32 H32            5.3559    -4.7024    -3.3865 H       
  33 H33            2.6098     4.2395    -1.6280 H       
  34 H34            0.9473     4.2917    -1.8643 H       
  35 H35            7.4104    -1.8316     1.2931 H       
  36 H36            7.5747    -3.5621     1.6761 H       
  37 H37           10.0859    -3.3491     0.8637 H       
  38 H38           10.9381    -1.3799     1.9174 H       
  39 H39            9.1011     0.4875     1.5268 H       
  40 H40            7.9050    -0.7246     2.0451 H       
  41 H41           10.1430     0.2323     3.7075 H       
  42 H42            8.5584     0.7136     3.8598 H       
  43 H43            8.0072    -4.6042    -1.7824 H       
  44 H44            9.2497    -4.4193    -0.5212 H       
  45 H45            7.6895    -5.1808    -0.1287 H       
@<TRIPOS>BOND
   1    1    2 ar
   2    1    6 ar
   3    2    3 ar
   4    2   25 1
   5    3    4 ar
   6    4    5 ar
   7    4    7 1
   8    5    6 ar
   9    5    9 1
  10    6   18 1
  11    7    8 1
  12    7   10 1
  13    8    9 2
  14    8   26 1
  15   10   11 1
  16   10   14 1
  17   10   27 1
  18   11   12 1
  19   12   13 1
  20   12   15 1
  21   12   28 1
  22   13   14 1
  23   13   17 1
  24   13   29 1
  25   14   16 1
  26   14   30 1
  27   15   19 1
  28   15   24 1
  29   16   31 1
  30   17   32 1
  31   18   33 1
  32   18   34 1
  33   19   20 1
  34   19   35 1
  35   19   36 1
  36   20   21 2
  37   20   37 1
  38   21   22 1
  39   21   38 1
  40   22   23 1
  41   22   39 1
  42   22   40 1
  43   23   41 1
  44   23   42 1
  45   24   43 1
  46   24   44 1
  47   24   45 1

#	End of record

