#	Name: ASD04910050
#	Creating user name:	WinNT
#	Creation time:	15. 06. 2019 20:55

#	Modifying user name:	WinNT
#	Modification time:	15. 06. 2019 20:55

#	Program:	/corina/corina34_cracker 3.40 0067  02.08.2006

@<TRIPOS>MOLECULE
ASD04910050
  62   65    0    0    0
SMALL
NO_CHARGES


@<TRIPOS>ATOM
   1 C1             0.5972     1.5074     1.3214 C.2     
   2 C2             0.5263     0.0150     1.1244 C.3     
   3 C3             1.9424    -0.5511     1.0021 C.3     
   4 O4             1.6703     2.0613     1.3601 O.2     
   5 O5            -0.5319     2.2220     1.4484 O.3     
   6 C6             3.0070    -2.7187     0.6774 C.2     
   7 C7             2.9374    -4.1829     0.4841 C.ar    
   8 C8             4.1094    -4.9281     0.3459 C.ar    
   9 C9             4.0375    -6.2940     0.1663 C.ar    
  10 C10            2.8070    -6.9253     0.1226 C.ar    
  11 C11            1.6414    -6.1924     0.2589 C.ar    
  12 C12            1.6996    -4.8266     0.4448 C.ar    
  13 O13            4.0866    -2.1615     0.7163 O.2     
  14 N14            1.8734    -2.0019     0.8105 N.am    
  15 C15            2.7361    -8.4176    -0.0749 C.3     
  16 N16            1.6859    -8.9741     0.7816 N.pl3   
  17 C17            3.2203    -9.0352     2.6502 C.ar    
  18 C18            1.9493    -9.2373     2.1297 C.ar    
  19 C19            0.9393    -9.7053     2.9678 C.ar    
  20 C20            1.2458    -9.9516     4.2946 C.ar    
  21 C21            2.5405    -9.7258     4.7439 C.ar    
  22 N22            3.4752    -9.2809     3.9203 N.ar    
  23 C23            2.0422   -10.5156     7.0234 C.2     
  24 N24            2.6938   -10.5854     8.1519 N.2     
  25 C25            3.9316   -10.0975     7.9816 C.2     
  26 C26            4.0576    -9.7084     6.6988 C.2     
  27 N27            2.8601    -9.9716     6.0846 N.pl3   
  28 C28            4.9971   -10.0009     9.0430 C.3     
  29 F29            4.5401   -10.6056    10.2189 F       
  30 F30            6.1542   -10.6525     8.6028 F       
  31 F31            5.2861    -8.6550     9.2925 F       
  32 C32            2.4154    -8.7235    -1.5393 C.3     
  33 C33            2.4093   -10.2447    -1.7709 C.3     
  34 C34            0.9899   -10.6118    -2.2509 C.3     
  35 C35            0.4393    -9.2943    -2.8509 C.3     
  36 C36            0.9994    -8.2193    -1.8867 C.3     
  37 H37            0.0253    -0.4408     1.9784 H       
  38 H38           -0.0328    -0.2052     0.2150 H       
  39 H39            2.4435    -0.0953     0.1481 H       
  40 H40            2.5016    -0.3309     1.9114 H       
  41 H41           -0.4359     3.1762     1.5730 H       
  42 H42            5.0705    -4.4365     0.3792 H       
  43 H43            4.9436    -6.8719     0.0593 H       
  44 H44            0.6842    -6.6911     0.2238 H       
  45 H45            0.7892    -4.2562     0.5556 H       
  46 H46            1.0119    -2.4466     0.7795 H       
  47 H47            3.6946    -8.8649     0.1882 H       
  48 H48            0.8078    -9.1601     0.4137 H       
  49 H49            4.0102    -8.6769     2.0066 H       
  50 H50           -0.0590    -9.8715     2.5910 H       
  51 H51            0.4875   -10.3145     4.9725 H       
  52 H52            1.0249   -10.8401     6.8616 H       
  53 H53            4.9336    -9.2728     6.2414 H       
  54 H54            3.1511    -8.2498    -2.1893 H       
  55 H55            3.1415   -10.5092    -2.5338 H       
  56 H56            2.6349   -10.7650    -0.8400 H       
  57 H57            1.0343   -11.3891    -3.0137 H       
  58 H58            0.3749   -10.9349    -1.4110 H       
  59 H59            0.8183    -9.1420    -3.8614 H       
  60 H60           -0.6507    -9.2914    -2.8414 H       
  61 H61            0.3859    -8.1560    -0.9880 H       
  62 H62            1.0507    -7.2506    -2.3837 H       
@<TRIPOS>BOND
   1    1    2 1
   2    1    4 2
   3    1    5 1
   4    2    3 1
   5    2   37 1
   6    2   38 1
   7    3   14 1
   8    3   39 1
   9    3   40 1
  10    5   41 1
  11    6    7 1
  12    6   13 2
  13    6   14 am
  14    7    8 ar
  15    7   12 ar
  16    8    9 ar
  17    8   42 1
  18    9   10 ar
  19    9   43 1
  20   10   11 ar
  21   10   15 1
  22   11   12 ar
  23   11   44 1
  24   12   45 1
  25   14   46 1
  26   15   16 1
  27   15   32 1
  28   15   47 1
  29   16   18 1
  30   16   48 1
  31   17   18 ar
  32   17   22 ar
  33   17   49 1
  34   18   19 ar
  35   19   20 ar
  36   19   50 1
  37   20   21 ar
  38   20   51 1
  39   21   22 ar
  40   21   27 1
  41   23   24 2
  42   23   27 1
  43   23   52 1
  44   24   25 1
  45   25   26 2
  46   25   28 1
  47   26   27 1
  48   26   53 1
  49   28   29 1
  50   28   30 1
  51   28   31 1
  52   32   33 1
  53   32   36 1
  54   32   54 1
  55   33   34 1
  56   33   55 1
  57   33   56 1
  58   34   35 1
  59   34   57 1
  60   34   58 1
  61   35   36 1
  62   35   59 1
  63   35   60 1
  64   36   61 1
  65   36   62 1

#	End of record

