#	Name: ASD03090532
#	Creating user name:	WinNT
#	Creation time:	15. 06. 2019 20:29

#	Modifying user name:	WinNT
#	Modification time:	15. 06. 2019 20:29

#	Program:	/corina/corina34_cracker 3.40 0067  02.08.2006

@<TRIPOS>MOLECULE
ASD03090532
  44   47    0    0    0
SMALL
NO_CHARGES


@<TRIPOS>ATOM
   1 C1            -0.2163     1.4969    -0.5636 C.2     
   2 C2            -0.2097    -0.0101    -0.5673 C.3     
   3 O3             0.7073     2.1086    -1.0577 O.2     
   4 N4            -1.2509     2.1650    -0.0161 N.am    
   5 N5             4.6032    -1.8614    -2.8333 N.pl3   
   6 C6             5.3843    -1.9169    -1.7113 C.2     
   7 C7             4.6764    -1.5228    -0.6410 C.2     
   8 C8             3.3321    -1.1875    -1.1165 C.ar    
   9 C9             2.1692    -0.7282    -0.4950 C.ar    
  10 C10            1.0451    -0.5053    -1.2390 C.ar    
  11 C11            1.0496    -0.7318    -2.6087 C.ar    
  12 C12            2.1857    -1.1853    -3.2420 C.ar    
  13 C13            3.3417    -1.4190    -2.5040 C.ar    
  14 C14           -1.2043     3.5609     0.0931 C.ar    
  15 C15           -2.3670     4.3075    -0.0440 C.ar    
  16 C16           -2.3204     5.6833     0.0636 C.ar    
  17 C17           -1.1121     6.3198     0.3083 C.ar    
  18 C18            0.0502     5.5743     0.4449 C.ar    
  19 C19            0.0037     4.1980     0.3440 C.ar    
  20 O20           -1.0667     7.6744     0.4138 O.3     
  21 C21           -1.6918     8.2532     1.4726 C.ar    
  22 C22           -1.7811     9.6367     1.5565 C.ar    
  23 C23           -2.4173    10.2229     2.6344 C.ar    
  24 C24           -2.9647     9.4333     3.6288 C.ar    
  25 C25           -2.8768     8.0549     3.5479 C.ar    
  26 C26           -2.2466     7.4633     2.4683 C.ar    
  27 Cl27          -3.5648     7.0670     4.7987 Cl      
  28 Cl28          -1.0936    10.6288     0.3088 Cl      
  29 H29           -0.2413    -0.3761     0.4589 H       
  30 H30           -1.0811    -0.3758    -1.1105 H       
  31 H31           -2.0278     1.6793     0.3023 H       
  32 H32            4.8959    -2.0950    -3.7281 H       
  33 H33            6.4173    -2.2315    -1.6898 H       
  34 H34            5.0308    -1.4640     0.3775 H       
  35 H35            2.1580    -0.5506     0.5703 H       
  36 H36            0.1532    -0.5510    -3.1833 H       
  37 H37            2.1790    -1.3589    -4.3080 H       
  38 H38           -3.3075     3.8122    -0.2352 H       
  39 H39           -3.2247     6.2640    -0.0430 H       
  40 H40            0.9905     6.0703     0.6350 H       
  41 H41            0.9076     3.6174     0.4552 H       
  42 H42           -2.4866    11.2986     2.7002 H       
  43 H43           -3.4614     9.8933     4.4703 H       
  44 H44           -2.1828     6.3871     2.4030 H       
@<TRIPOS>BOND
   1    1    2 1
   2    1    3 2
   3    1    4 am
   4    2   10 1
   5    2   29 1
   6    2   30 1
   7    4   14 1
   8    4   31 1
   9    5    6 1
  10    5   13 1
  11    5   32 1
  12    6    7 2
  13    6   33 1
  14    7    8 1
  15    7   34 1
  16    8    9 ar
  17    8   13 ar
  18    9   10 ar
  19    9   35 1
  20   10   11 ar
  21   11   12 ar
  22   11   36 1
  23   12   13 ar
  24   12   37 1
  25   14   15 ar
  26   14   19 ar
  27   15   16 ar
  28   15   38 1
  29   16   17 ar
  30   16   39 1
  31   17   18 ar
  32   17   20 1
  33   18   19 ar
  34   18   40 1
  35   19   41 1
  36   20   21 1
  37   21   22 ar
  38   21   26 ar
  39   22   23 ar
  40   22   28 1
  41   23   24 ar
  42   23   42 1
  43   24   25 ar
  44   24   43 1
  45   25   26 ar
  46   25   27 1
  47   26   44 1

#	End of record

