#	Name: ASD05230001
#	Creating user name:	WinNT
#	Creation time:	15. 06. 2019 20:57

#	Modifying user name:	WinNT
#	Modification time:	15. 06. 2019 20:57

#	Program:	/corina/corina34_cracker 3.40 0067  02.08.2006

@<TRIPOS>MOLECULE
ASD05230001
  61   63    0    0    0
SMALL
NO_CHARGES


@<TRIPOS>ATOM
   1 C1             0.3259     1.3634    -0.3122 C.ar    
   2 C2             0.4590    -0.0340    -0.3471 C.ar    
   3 C3            -0.6548    -0.8128    -0.4274 C.ar    
   4 C4            -1.9277    -0.2465    -0.4758 C.ar    
   5 C5            -2.0962     1.1045    -0.4446 C.ar    
   6 C6            -0.9712     1.9391    -0.3615 C.ar    
   7 C7            -1.0803     3.3393    -0.3247 C.ar    
   8 C8             0.0747     4.0883    -0.2427 C.ar    
   9 N9             1.2747     3.5148    -0.1985 N.ar    
  10 C10            1.4395     2.2134    -0.2240 C.ar    
  11 N11           -0.0170     5.4803    -0.2058 N.am    
  12 C12            1.0914     6.2240    -0.0191 C.2     
  13 O13            1.0203     7.5668    -0.0862 O.3     
  14 O14            2.1548     5.6826     0.2098 O.2     
  15 C15            2.2536     8.3036     0.1251 C.3     
  16 C16            1.9770     9.8041     0.0117 C.3     
  17 N17            1.5904    10.1268    -1.3640 N.am    
  18 C18            0.8419    10.1869     0.9635 C.3     
  19 C19            0.6488    11.7045     0.9427 C.3     
  20 C20           -0.3995    12.0996     1.9848 C.3     
  21 O21           -0.4958    13.5239     2.0473 O.3     
  22 O22            0.2077    12.1108    -0.3543 O.3     
  23 C23            2.3871    10.9053    -2.1229 C.2     
  24 C24            0.3379     9.6033    -1.9149 C.3     
  25 N25            2.0314    11.2022    -3.3885 N.am    
  26 O26            3.4266    11.3397    -1.6657 O.2     
  27 C27            2.8973    12.0483    -4.2134 C.3     
  28 C28            2.2765    12.2260    -5.5750 C.ar    
  29 C29            2.1494    11.6262    -7.8903 C.ar    
  30 C30            2.7180    11.4643    -6.6405 C.ar    
  31 C31            1.2609    13.1474    -5.7570 C.ar    
  32 C32            0.6905    13.3097    -7.0091 C.ar    
  33 C33            1.1379    12.5494    -8.0761 C.ar    
  34 Cl34           0.7012    14.0991    -4.4174 Cl      
  35 F35           -0.3018    14.2088    -7.1886 F       
  36 H36            1.4383    -0.4880    -0.3108 H       
  37 H37           -0.5505    -1.8874    -0.4545 H       
  38 H38           -2.7935    -0.8889    -0.5394 H       
  39 H39           -3.0879     1.5303    -0.4834 H       
  40 H40           -2.0475     3.8185    -0.3603 H       
  41 H41            2.4344     1.7953    -0.1810 H       
  42 H42           -0.8785     5.9127    -0.3145 H       
  43 H43            2.6447     8.0803     1.1177 H       
  44 H44            2.9852     8.0111    -0.6280 H       
  45 H45            2.8763    10.3604     0.2764 H       
  46 H46           -0.0793     9.6990     0.6451 H       
  47 H47            1.0921     9.8663     1.9748 H       
  48 H48            1.5945    12.1943     1.1749 H       
  49 H49           -1.3663    11.6820     1.7040 H       
  50 H50           -0.1059    11.7121     2.9604 H       
  51 H51           -1.1432    13.8466     2.6890 H       
  52 H52           -0.6302    11.7128    -0.6274 H       
  53 H53           -0.4483    10.3499    -1.8029 H       
  54 H54            0.4736     9.3743    -2.9719 H       
  55 H55            0.0567     8.6963    -1.3798 H       
  56 H56            1.2021    10.8555    -3.7533 H       
  57 H57            3.0140    13.0219    -3.7374 H       
  58 H58            3.8740    11.5757    -4.3183 H       
  59 H59            2.4957    11.0305    -8.7220 H       
  60 H60            3.5082    10.7423    -6.4967 H       
  61 H61            0.6945    12.6755    -9.0528 H       
@<TRIPOS>BOND
   1    1    2 ar
   2    1    6 ar
   3    1   10 ar
   4    2    3 ar
   5    2   36 1
   6    3    4 ar
   7    3   37 1
   8    4    5 ar
   9    4   38 1
  10    5    6 ar
  11    5   39 1
  12    6    7 ar
  13    7    8 ar
  14    7   40 1
  15    8    9 ar
  16    8   11 1
  17    9   10 ar
  18   10   41 1
  19   11   12 am
  20   11   42 1
  21   12   13 1
  22   12   14 2
  23   13   15 1
  24   15   16 1
  25   15   43 1
  26   15   44 1
  27   16   17 1
  28   16   18 1
  29   16   45 1
  30   17   23 am
  31   17   24 1
  32   18   19 1
  33   18   46 1
  34   18   47 1
  35   19   20 1
  36   19   22 1
  37   19   48 1
  38   20   21 1
  39   20   49 1
  40   20   50 1
  41   21   51 1
  42   22   52 1
  43   23   25 am
  44   23   26 2
  45   24   53 1
  46   24   54 1
  47   24   55 1
  48   25   27 1
  49   25   56 1
  50   27   28 1
  51   27   57 1
  52   27   58 1
  53   28   31 ar
  54   28   30 ar
  55   29   30 ar
  56   29   33 ar
  57   29   59 1
  58   30   60 1
  59   31   32 ar
  60   31   34 1
  61   32   33 ar
  62   32   35 1
  63   33   61 1

#	End of record

