#	Name: ASD03740045
#	Creating user name:	WinNT
#	Creation time:	15. 06. 2019 20:46

#	Modifying user name:	WinNT
#	Modification time:	15. 06. 2019 20:46

#	Program:	/corina/corina34_cracker 3.40 0067  02.08.2006

@<TRIPOS>MOLECULE
ASD03740045
  88   93    0    0    0
SMALL
NO_CHARGES


@<TRIPOS>ATOM
   1 C1             0.0369     1.5811    -0.1497 C.ar    
   2 C2             0.0253     0.1921    -0.1751 C.ar    
   3 C3             1.1956    -0.5561    -0.1733 C.ar    
   4 C4             2.3954     0.1503    -0.1451 C.ar    
   5 C5             2.3991     1.5696    -0.1206 C.ar    
   6 C6             1.2063     2.2993    -0.1222 C.ar    
   7 O7            -1.1697    -0.4556    -0.2021 O.3     
   8 C8            -2.3468     0.3546    -0.2024 C.3     
   9 C9             3.7910     1.9633    -0.0969 C.2     
  10 C10            4.5273     0.8284    -0.1052 C.2     
  11 C11            6.0355     0.8325    -0.0847 C.3     
  12 N12            6.5060     2.1716    -0.4679 N.3     
  13 C13            5.8673     3.2202     0.3351 C.3     
  14 C14            4.3915     3.3462    -0.0683 C.3     
  15 N15            3.6979    -0.2610    -0.1348 N.pl3   
  16 C16            6.5745    -0.1980    -1.0781 C.3     
  17 C17            8.1075    -0.1567    -1.0511 C.3     
  18 C18            8.5744     1.2588    -1.3983 C.3     
  19 C19            7.9700     2.2541    -0.4054 C.3     
  20 H20            6.3872     0.5959     0.9195 H       
  21 H21            8.2463     1.5103    -2.4069 H       
  22 C22            8.5907    -0.5229     0.3544 C.3     
  23 C23           10.1178    -0.4560     0.4058 C.3     
  24 C24           10.5766     0.9643     0.0686 C.3     
  25 C25           10.0997     1.3306    -1.3382 C.3     
  26 H26            8.5056    -0.8627    -1.7799 H       
  27 C27            8.0121     0.4469     1.3523 C.2     
  28 O28            7.3334     1.3715     0.9726 O.2     
  29 O29           10.6672    -1.3722    -0.5434 O.3     
  30 C30           11.9394    -1.9042    -0.1687 C.3     
  31 O31            8.2508     0.2834     2.6631 O.3     
  32 C32            7.6617     1.2553     3.5667 C.3     
  33 O33           10.0221     1.8814     1.0139 O.3     
  34 C34           10.7401     2.9914     1.2843 C.2     
  35 O35           11.8083     3.1744     0.7317 O.2     
  36 C36           10.2498     3.9442     2.2125 C.2     
  37 C37           10.9688     5.0556     2.4832 C.2     
  38 C38           10.4605     6.0433     3.4453 C.ar    
  39 C39           11.2039     7.1952     3.7271 C.ar    
  40 C40           10.7228     8.1216     4.6323 C.ar    
  41 C41            9.4996     7.9103     5.2641 C.ar    
  42 C42            8.7572     6.7650     4.9866 C.ar    
  43 C43            9.2290     5.8372     4.0779 C.ar    
  44 O44            7.5638     6.5625     5.6065 O.3     
  45 C45            6.8552     5.3667     5.2749 C.3     
  46 O46            9.0296     8.8237     6.1539 O.3     
  47 C47            8.2114     9.8739     5.6345 C.3     
  48 O48           11.4447     9.2410     4.9071 O.3     
  49 C49           12.6903     9.3936     4.2236 C.3     
  50 H50           -0.9033     2.1124    -0.1561 H       
  51 H51            1.1759    -1.6357    -0.1926 H       
  52 H52            1.2052     3.3792    -0.1028 H       
  53 H53           -2.3662     0.9675     0.6987 H       
  54 H54           -2.3435     0.9999    -1.0808 H       
  55 H55           -3.2286    -0.2858    -0.2253 H       
  56 H56            5.9343     2.9604     1.3916 H       
  57 H57            6.3736     4.1697     0.1617 H       
  58 H58            4.3179     3.7997    -1.0568 H       
  59 H59            3.8626     3.9616     0.6595 H       
  60 H60            3.9913    -1.1855    -0.1464 H       
  61 H61            6.2309    -1.1929    -0.7949 H       
  62 H62            6.2203     0.0412    -2.0808 H       
  63 H63            8.2889     3.2641    -0.6627 H       
  64 H64            8.3055     2.0115     0.6029 H       
  65 H65            8.2632    -1.5333     0.5990 H       
  66 H66           10.4598    -0.7205     1.4064 H       
  67 H67           11.6647     1.0141     0.1083 H       
  68 H68           10.5246     0.6317    -2.0587 H       
  69 H69           10.4252     2.3425    -1.5796 H       
  70 H70           12.6550    -1.0897    -0.0565 H       
  71 H71           11.8457    -2.4383     0.7768 H       
  72 H72           12.2880    -2.5903    -0.9406 H       
  73 H73            8.0342     2.2503     3.3231 H       
  74 H74            6.5769     1.2378     3.4621 H       
  75 H75            7.9319     1.0075     4.5932 H       
  76 H76            9.3015     3.7817     2.7031 H       
  77 H77           11.9171     5.2181     1.9926 H       
  78 H78           12.1526     7.3595     3.2379 H       
  79 H79            8.6526     4.9495     3.8629 H       
  80 H80            5.9226     5.3290     5.8378 H       
  81 H81            6.6357     5.3587     4.2072 H       
  82 H82            7.4668     4.5002     5.5266 H       
  83 H83            7.3284     9.4458     5.1602 H       
  84 H84            7.9043    10.5313     6.4479 H       
  85 H85            8.7776    10.4458     4.8993 H       
  86 H86           13.1628    10.3258     4.5333 H       
  87 H87           13.3439     8.5562     4.4681 H       
  88 H88           12.5144     9.4152     3.1481 H       
@<TRIPOS>BOND
   1    1    2 ar
   2    1    6 ar
   3    1   50 1
   4    2    3 ar
   5    2    7 1
   6    3    4 ar
   7    3   51 1
   8    4    5 ar
   9    4   15 1
  10    5    6 ar
  11    5    9 1
  12    6   52 1
  13    7    8 1
  14    8   53 1
  15    8   54 1
  16    8   55 1
  17    9   10 2
  18    9   14 1
  19   10   11 1
  20   10   15 1
  21   11   12 1
  22   11   16 1
  23   11   20 1
  24   12   13 1
  25   12   19 1
  26   13   14 1
  27   13   56 1
  28   13   57 1
  29   14   58 1
  30   14   59 1
  31   15   60 1
  32   16   17 1
  33   16   61 1
  34   16   62 1
  35   17   18 1
  36   17   26 1
  37   17   22 1
  38   18   19 1
  39   18   21 1
  40   18   25 1
  41   19   63 1
  42   19   64 1
  43   22   23 1
  44   22   27 1
  45   22   65 1
  46   23   24 1
  47   23   29 1
  48   23   66 1
  49   24   25 1
  50   24   33 1
  51   24   67 1
  52   25   68 1
  53   25   69 1
  54   27   28 2
  55   27   31 1
  56   29   30 1
  57   30   70 1
  58   30   71 1
  59   30   72 1
  60   31   32 1
  61   32   73 1
  62   32   74 1
  63   32   75 1
  64   33   34 1
  65   34   35 2
  66   34   36 1
  67   36   37 2
  68   36   76 1
  69   37   38 1
  70   37   77 1
  71   38   39 ar
  72   38   43 ar
  73   39   40 ar
  74   39   78 1
  75   40   41 ar
  76   40   48 1
  77   41   42 ar
  78   41   46 1
  79   42   43 ar
  80   42   44 1
  81   43   79 1
  82   44   45 1
  83   45   80 1
  84   45   81 1
  85   45   82 1
  86   46   47 1
  87   47   83 1
  88   47   84 1
  89   47   85 1
  90   48   49 1
  91   49   86 1
  92   49   87 1
  93   49   88 1

#	End of record

