#	Name: ASD01208684
#	Creating user name:	WinNT
#	Creation time:	15. 06. 2019 19:10

#	Modifying user name:	WinNT
#	Modification time:	15. 06. 2019 19:10

#	Program:	/corina/corina34_cracker 3.40 0067  02.08.2006

@<TRIPOS>MOLECULE
ASD01208684
  63   67    0    0    0
SMALL
NO_CHARGES


@<TRIPOS>ATOM
   1 C1            -0.5126     1.4587     1.4863 C.2     
   2 C2            -0.3529     0.1484     0.8208 C.ar    
   3 C3            -1.4370    -0.7252     0.7263 C.ar    
   4 C4            -1.2829    -1.9519     0.1020 C.ar    
   5 C5            -0.0524    -2.3128    -0.4288 C.ar    
   6 C6             1.0277    -1.4474    -0.3371 C.ar    
   7 C7             0.8807    -0.2160     0.2803 C.ar    
   8 O8             0.4329     2.2183     1.5676 O.2     
   9 N9            -1.7079     1.8134     1.9980 N.am    
  10 S10           -3.3116     3.6212     3.3143 S.3     
  11 C11           -1.8580     3.0445     2.6233 C.2     
  12 N12           -0.9161     3.9234     2.7683 N.2     
  13 C13           -1.2345     5.0434     3.3899 C.2     
  14 C14           -2.5059     5.1142     3.7891 C.2     
  15 O15            2.2306    -1.8059    -0.8581 O.3     
  16 C16            2.3099    -3.0875    -1.4854 C.3     
  17 N17            5.4942    -3.9454    -4.2045 N.3     
  18 C18            5.2543    -4.9317    -3.1433 C.3     
  19 C19            3.8503    -4.7326    -2.5678 C.3     
  20 C20            3.7304    -3.3128    -2.0073 C.3     
  21 C21            4.0322    -2.3058    -3.1206 C.3     
  22 C22            5.4309    -2.5752    -3.6801 C.3     
  23 C23            6.7779    -4.1941    -4.8740 C.3     
  24 O24           -2.3379    -2.8034     0.0094 O.3     
  25 C25           -3.1557    -2.6906    -1.0691 C.ar    
  26 C26           -2.8399    -1.8005    -2.0879 C.ar    
  27 C27           -3.6671    -1.6831    -3.1838 C.ar    
  28 C28           -4.8237    -2.4607    -3.2696 C.ar    
  29 C29           -5.1374    -3.3546    -2.2439 C.ar    
  30 C30           -4.3027    -3.4697    -1.1534 C.ar    
  31 O31           -6.8556    -3.0218    -4.6557 O.3     
  32 C32           -5.7137    -2.3376    -4.4428 C.2     
  33 N33           -5.5400    -1.5412    -5.4719 N.2     
  34 N34           -6.5112    -1.7008    -6.3005 N.2     
  35 C35           -7.3363    -2.5975    -5.8375 C.2     
  36 C36           -8.6008    -3.0724    -6.5058 C.3     
  37 H37           -2.3947    -0.4453     1.1398 H       
  38 H38            0.0646    -3.2704    -0.9144 H       
  39 H39            1.7210     0.4592     0.3470 H       
  40 H40           -2.4634     1.2088     1.9295 H       
  41 H41           -0.5237     5.8381     3.5616 H       
  42 H42           -2.9614     5.9422     4.3119 H       
  43 H43            2.0619    -3.8628    -0.7604 H       
  44 H44            1.6064    -3.1291    -2.3169 H       
  45 H45            5.3385    -5.9370    -3.5561 H       
  46 H46            5.9929    -4.8010    -2.3524 H       
  47 H47            3.1105    -4.8768    -3.3552 H       
  48 H48            3.6785    -5.4547    -1.7696 H       
  49 H49            4.4428    -3.1812    -1.1929 H       
  50 H50            3.2952    -2.4117    -3.9167 H       
  51 H51            3.9902    -1.2940    -2.7174 H       
  52 H52            6.1686    -2.4556    -2.8866 H       
  53 H53            5.6433    -1.8690    -4.4827 H       
  54 H54            6.7694    -5.1897    -5.3176 H       
  55 H55            6.9304    -3.4495    -5.6553 H       
  56 H56            7.5863    -4.1276    -4.1459 H       
  57 H57           -1.9451    -1.1994    -2.0207 H       
  58 H58           -3.4214    -0.9904    -3.9751 H       
  59 H59           -6.0314    -3.9574    -2.3065 H       
  60 H60           -4.5427    -4.1636    -0.3613 H       
  61 H61           -9.4365    -2.4497    -6.1864 H       
  62 H62           -8.4883    -3.0023    -7.5877 H       
  63 H63           -8.7922    -4.1085    -6.2268 H       
@<TRIPOS>BOND
   1    1    2 1
   2    1    8 2
   3    1    9 am
   4    2    3 ar
   5    2    7 ar
   6    3    4 ar
   7    3   37 1
   8    4    5 ar
   9    4   24 1
  10    5    6 ar
  11    5   38 1
  12    6    7 ar
  13    6   15 1
  14    7   39 1
  15    9   11 1
  16    9   40 1
  17   10   11 1
  18   10   14 1
  19   11   12 2
  20   12   13 1
  21   13   14 2
  22   13   41 1
  23   14   42 1
  24   15   16 1
  25   16   20 1
  26   16   43 1
  27   16   44 1
  28   17   18 1
  29   17   22 1
  30   17   23 1
  31   18   19 1
  32   18   45 1
  33   18   46 1
  34   19   20 1
  35   19   47 1
  36   19   48 1
  37   20   21 1
  38   20   49 1
  39   21   22 1
  40   21   50 1
  41   21   51 1
  42   22   52 1
  43   22   53 1
  44   23   54 1
  45   23   55 1
  46   23   56 1
  47   24   25 1
  48   25   26 ar
  49   25   30 ar
  50   26   27 ar
  51   26   57 1
  52   27   28 ar
  53   27   58 1
  54   28   29 ar
  55   28   32 1
  56   29   30 ar
  57   29   59 1
  58   30   60 1
  59   31   32 1
  60   31   35 1
  61   32   33 2
  62   33   34 1
  63   34   35 2
  64   35   36 1
  65   36   61 1
  66   36   62 1
  67   36   63 1

#	End of record

