#	Name: ASD00100151
#	Creating user name:	WinNT
#	Creation time:	15. 06. 2019 18:30

#	Modifying user name:	WinNT
#	Modification time:	15. 06. 2019 18:30

#	Program:	/corina/corina34_cracker 3.40 0067  02.08.2006

@<TRIPOS>MOLECULE
ASD00100151
  34   36    0    0    0
SMALL
NO_CHARGES


@<TRIPOS>ATOM
   1 C1            -0.0157     1.3060     0.0092 C.2     
   2 N2             0.0021    -0.0041     0.0020 N.2     
   3 C3             1.2916    -0.4307    -0.0126 C.2     
   4 C4             2.0928     0.6667    -0.0143 C.2     
   5 N5             1.2668     1.7625    -0.0006 N.pl3   
   6 N6            -1.1521     2.0963     0.0191 N.pl3   
   7 S7             0.6889    -3.2494    -0.0226 S.3     
   8 C8             1.7427    -1.8376    -0.0244 C.2     
   9 N9             2.9839    -2.2337    -0.0384 N.2     
  10 C10            3.1959    -3.5311    -0.0478 C.2     
  11 C11            2.1038    -4.3000    -0.0419 C.2     
  12 C12            1.6878     3.1657     0.0025 C.3     
  13 C13            1.7269     3.6753     1.4202 C.ar    
  14 C14            2.8568     3.4731     2.1998 C.ar    
  15 C15            2.8897     3.9434     3.5043 C.ar    
  16 C16            1.7978     4.6116     4.0243 C.ar    
  17 C17            0.6731     4.8114     3.2456 C.ar    
  18 C18            0.6402     4.3489     1.9428 C.ar    
  19 O19            3.9293     2.8152     1.6863 O.3     
  20 C20            5.0577     2.6435     2.5460 C.3     
  21 H21            3.1727     0.6750    -0.0243 H       
  22 H22           -2.0299     1.6836     0.0216 H       
  23 H23           -1.0706     3.0629     0.0236 H       
  24 H24            4.1916    -3.9493    -0.0600 H       
  25 H25            2.0902    -5.3799    -0.0483 H       
  26 H26            2.6802     3.2482    -0.4408 H       
  27 H27            0.9804     3.7585    -0.5773 H       
  28 H28            3.7678     3.7870     4.1133 H       
  29 H29            1.8229     4.9780     5.0399 H       
  30 H30           -0.1796     5.3333     3.6541 H       
  31 H31           -0.2377     4.5104     1.3349 H       
  32 H32            5.8413     2.1043     2.0138 H       
  33 H33            5.4326     3.6199     2.8529 H       
  34 H34            4.7599     2.0752     3.4273 H       
@<TRIPOS>BOND
   1    1    2 2
   2    1    5 1
   3    1    6 1
   4    2    3 1
   5    3    4 2
   6    3    8 1
   7    4    5 1
   8    4   21 1
   9    5   12 1
  10    6   22 1
  11    6   23 1
  12    7    8 1
  13    7   11 1
  14    8    9 2
  15    9   10 1
  16   10   11 2
  17   10   24 1
  18   11   25 1
  19   12   13 1
  20   12   26 1
  21   12   27 1
  22   13   14 ar
  23   13   18 ar
  24   14   15 ar
  25   14   19 1
  26   15   16 ar
  27   15   28 1
  28   16   17 ar
  29   16   29 1
  30   17   18 ar
  31   17   30 1
  32   18   31 1
  33   19   20 1
  34   20   32 1
  35   20   33 1
  36   20   34 1

#	End of record

