#	Name: ASD01812533
#	Creating user name:	WinNT
#	Creation time:	15. 06. 2019 19:28

#	Modifying user name:	WinNT
#	Modification time:	15. 06. 2019 19:28

#	Program:	/corina/corina34_cracker 3.40 0067  02.08.2006

@<TRIPOS>MOLECULE
ASD01812533
  55   60    0    0    0
SMALL
NO_CHARGES


@<TRIPOS>ATOM
   1 C1            -0.0177     1.4558     0.0100 C.ar    
   2 C2             0.0021    -0.0041     0.0020 C.ar    
   3 C3            -1.2308    -0.7011     0.0100 C.ar    
   4 C4            -2.4445     0.0179     0.0258 C.ar    
   5 C5            -2.4563     1.3721     0.0337 C.ar    
   6 C6            -1.2628     2.1110     0.0314 C.ar    
   7 C7            -1.2223    -2.1043     0.0024 C.ar    
   8 C8            -0.0349    -2.7735    -0.0125 C.ar    
   9 C9             1.1743    -2.0857    -0.0203 C.ar    
  10 C10            1.2025    -0.7215    -0.0128 C.ar    
  11 N11            1.1115     2.1837     0.0032 N.2     
  12 C12            1.0871     3.4846     0.0104 C.2     
  13 N13           -0.0647     4.2046     0.0256 N.am    
  14 C14           -1.2647     3.5791     0.0393 C.2     
  15 C15           -3.7504    -0.7341     0.0337 C.3     
  16 C16           -4.1106    -1.1006     1.4504 C.ar    
  17 C17           -3.6811    -2.2965     1.9929 C.ar    
  18 C18           -4.8722    -0.2381     2.2258 C.ar    
  19 C19           -5.1805    -0.6136     3.5223 C.ar    
  20 C20           -4.7197    -1.8338     4.0001 C.ar    
  21 N21           -3.9906    -2.6268     3.2314 N.ar    
  22 O22           -2.3064     4.2099     0.0572 O.2     
  23 N23           -5.0239    -2.2251     5.3075 N.pl3   
  24 C24           -0.0100     5.6040     0.0330 C.ar    
  25 C25            0.0289     6.2925     1.2386 C.ar    
  26 C26            0.0834     7.6724     1.2425 C.ar    
  27 C27            0.0992     8.3687     0.0476 C.ar    
  28 C28            0.0602     7.6862    -1.1541 C.ar    
  29 C29            0.0114     6.3057    -1.1648 C.ar    
  30 C30            0.0112     5.5346     2.5410 C.3     
  31 C31           -4.6428    -3.3838     5.9054 C.2     
  32 C32           -5.1386    -3.3772     7.1641 C.2     
  33 C33           -5.8436    -2.1817     7.3442 C.2     
  34 N34           -5.7710    -1.4894     6.2366 N.2     
  35 H35           -3.4020     1.8934     0.0454 H       
  36 H36           -2.1530    -2.6520     0.0086 H       
  37 H37           -0.0327    -3.8535    -0.0180 H       
  38 H38            2.1022    -2.6382    -0.0321 H       
  39 H39            2.1472    -0.1983    -0.0193 H       
  40 H40            2.0268     4.0170     0.0042 H       
  41 H41           -4.5341    -0.1056    -0.3894 H       
  42 H42           -3.6509    -1.6413    -0.5622 H       
  43 H43           -3.0845    -2.9695     1.3949 H       
  44 H44           -5.2164     0.7049     1.8272 H       
  45 H45           -5.7711     0.0336     4.1538 H       
  46 H46            0.1133     8.2084     2.1797 H       
  47 H47            0.1419     9.4478     0.0534 H       
  48 H48            0.0723     8.2328    -2.0855 H       
  49 H49           -0.0146     5.7730    -2.1040 H       
  50 H50            1.0337     5.3111     2.8452 H       
  51 H51           -0.4716     6.1408     3.3075 H       
  52 H52           -0.5413     4.6039     2.4123 H       
  53 H53           -4.0514    -4.1683     5.4570 H       
  54 H54           -5.0125    -4.1573     7.9003 H       
  55 H55           -6.3563    -1.8801     8.2456 H       
@<TRIPOS>BOND
   1    1    2 ar
   2    1   11 1
   3    1    6 ar
   4    2   10 ar
   5    2    3 ar
   6    3    4 ar
   7    3    7 ar
   8    4    5 ar
   9    4   15 1
  10    5    6 ar
  11    5   35 1
  12    6   14 1
  13    7    8 ar
  14    7   36 1
  15    8    9 ar
  16    8   37 1
  17    9   10 ar
  18    9   38 1
  19   10   39 1
  20   11   12 2
  21   12   13 1
  22   12   40 1
  23   13   14 am
  24   13   24 1
  25   14   22 2
  26   15   16 1
  27   15   41 1
  28   15   42 1
  29   16   18 ar
  30   16   17 ar
  31   17   21 ar
  32   17   43 1
  33   18   19 ar
  34   18   44 1
  35   19   20 ar
  36   19   45 1
  37   20   21 ar
  38   20   23 1
  39   23   31 1
  40   23   34 1
  41   24   25 ar
  42   24   29 ar
  43   25   26 ar
  44   25   30 1
  45   26   27 ar
  46   26   46 1
  47   27   28 ar
  48   27   47 1
  49   28   29 ar
  50   28   48 1
  51   29   49 1
  52   30   50 1
  53   30   51 1
  54   30   52 1
  55   31   32 2
  56   31   53 1
  57   32   33 1
  58   32   54 1
  59   33   34 2
  60   33   55 1

#	End of record

