#	Name: ASD01814146
#	Creating user name:	WinNT
#	Creation time:	15. 06. 2019 19:31

#	Modifying user name:	WinNT
#	Modification time:	15. 06. 2019 19:31

#	Program:	/corina/corina34_cracker 3.40 0067  02.08.2006

@<TRIPOS>MOLECULE
ASD01814146
  50   54    0    0    0
SMALL
NO_CHARGES


@<TRIPOS>ATOM
   1 N1            -0.8309     1.8461     1.4949 N.2     
   2 C2            -1.0044     0.5989     1.8640 C.2     
   3 C3             0.1001    -0.2014     2.1939 C.2     
   4 C4             1.3480     0.3252     2.1279 C.2     
   5 N5             1.5003     1.6261     1.7407 N.pl3   
   6 C6             0.3972     2.3768     1.4261 C.2     
   7 N7             2.6267     2.4393     1.5783 N.2     
   8 C8             2.2367     3.6342     1.1826 C.2     
   9 C9             0.8562     3.6405     1.0738 C.2     
  10 C10            2.7579     4.9989     0.8044 C.3     
  11 N11            1.6055     5.8370     0.4590 N.am    
  12 C12            0.4080     5.0063     0.6211 C.3     
  13 C13            1.6402     7.1260     0.0669 C.2     
  14 O14            0.6178     7.6821    -0.2854 O.2     
  15 C15            2.9177     7.8617     0.0652 C.ar    
  16 C16            3.2477     8.6978    -1.0109 C.ar    
  17 C17            3.8033     7.7339     1.1390 C.ar    
  18 C18            4.9948     8.4236     1.1327 C.ar    
  19 C19            5.3212     9.2471     0.0635 C.ar    
  20 C20            4.4508     9.3856    -1.0029 C.ar    
  21 O21            2.3932     8.8326    -2.0558 O.3     
  22 C22            2.7296     9.8045    -3.0478 C.3     
  23 C23            1.4658    10.2500    -3.8195 C.3     
  24 C24            2.5503    -0.5134     2.4775 C.3     
  25 Cl25          -0.1291    -1.8513     2.6828 Cl      
  26 C26           -2.3956     0.0238     1.9344 C.3     
  27 C27            3.6160     9.1921    -4.1098 C.2     
  28 N28            2.8977     8.9254    -5.2142 N.am    
  29 C29            1.4898     9.3008    -5.0380 C.3     
  30 O30            4.8024     8.9742    -3.9834 O.2     
  31 F31            6.4926     9.9201     0.0667 F       
  32 H32            3.2933     5.4364     1.6470 H       
  33 H33            3.4241     4.9149    -0.0542 H       
  34 H34           -0.1181     4.9261    -0.3301 H       
  35 H35           -0.2483     5.4473     1.3714 H       
  36 H36            3.5530     7.0949     1.9730 H       
  37 H37            5.6782     8.3239     1.9630 H       
  38 H38            4.7090    10.0307    -1.8297 H       
  39 H39            3.2210    10.6624    -2.5889 H       
  40 H40            0.5682    10.0939    -3.2211 H       
  41 H41            1.5472    11.2905    -4.1338 H       
  42 H42            2.2252    -1.5147     2.7600 H       
  43 H43            3.2128    -0.5765     1.6142 H       
  44 H44            3.0827    -0.0555     3.3113 H       
  45 H45           -3.1190     0.7862     1.6456 H       
  46 H46           -2.4724    -0.8256     1.2556 H       
  47 H47           -2.6016    -0.3053     2.9529 H       
  48 H48            3.2628     8.5347    -6.0235 H       
  49 H49            0.8855     8.4158    -4.8388 H       
  50 H50            1.1232     9.8169    -5.9254 H       
@<TRIPOS>BOND
   1    1    2 2
   2    1    6 1
   3    2    3 1
   4    2   26 1
   5    3    4 2
   6    3   25 1
   7    4    5 1
   8    4   24 1
   9    5    7 1
  10    5    6 1
  11    6    9 2
  12    7    8 2
  13    8   10 1
  14    8    9 1
  15    9   12 1
  16   10   11 1
  17   10   32 1
  18   10   33 1
  19   11   12 1
  20   11   13 am
  21   12   34 1
  22   12   35 1
  23   13   14 2
  24   13   15 1
  25   15   17 ar
  26   15   16 ar
  27   16   20 ar
  28   16   21 1
  29   17   18 ar
  30   17   36 1
  31   18   19 ar
  32   18   37 1
  33   19   20 ar
  34   19   31 1
  35   20   38 1
  36   21   22 1
  37   22   27 1
  38   22   23 1
  39   22   39 1
  40   23   29 1
  41   23   40 1
  42   23   41 1
  43   24   42 1
  44   24   43 1
  45   24   44 1
  46   26   45 1
  47   26   46 1
  48   26   47 1
  49   27   28 am
  50   27   30 2
  51   28   29 1
  52   28   48 1
  53   29   49 1
  54   29   50 1

#	End of record

