#	Name: ASD02588013
#	Creating user name:	WinNT
#	Creation time:	15. 06. 2019 20:25

#	Modifying user name:	WinNT
#	Modification time:	15. 06. 2019 20:25

#	Program:	/corina/corina34_cracker 3.40 0067  02.08.2006

@<TRIPOS>MOLECULE
ASD02588013
  53   58    0    0    0
SMALL
NO_CHARGES


@<TRIPOS>ATOM
   1 C1            -0.6100     1.8349    -0.1578 C.2     
   2 N2            -0.8464     0.6638    -0.8283 N.pl3   
   3 N3            -1.9902    -0.0786    -0.4976 N.2     
   4 C4            -2.8081     0.3549     0.4391 C.2     
   5 N5            -2.5837     1.4979     1.0978 N.2     
   6 C6            -1.5246     2.2433     0.8418 C.2     
   7 C7             0.5745     2.3967    -0.6507 C.2     
   8 C8             1.0586     1.5264    -1.6506 C.2     
   9 C9             0.1545     0.4590    -1.7381 C.2     
  10 N10           -1.3166     3.4188     1.5368 N.pl3   
  11 C11            1.1968     3.6572    -0.2094 C.2     
  12 C12            2.2833     1.7062    -2.4519 C.2     
  13 C13           -4.0076    -0.4432     0.7719 C.2     
  14 N14            3.0711     0.7053    -2.9446 N.pl3   
  15 C15            4.0970     1.3023    -3.6250 C.2     
  16 C16            3.9111     2.6361    -3.5311 C.2     
  17 N17            2.8016     2.8588    -2.8198 N.2     
  18 N18            2.4359     4.1066    -0.5680 N.pl3   
  19 C19            2.6218     5.3115     0.0601 C.2     
  20 C20            1.5067     5.5609     0.7749 C.2     
  21 N21            0.6518     4.5469     0.5940 N.2     
  22 N22           -4.9087    -0.1368     1.6788 N.2     
  23 C23           -5.8485    -1.0864     1.7043 C.2     
  24 C24           -5.5323    -2.0231     0.7846 C.2     
  25 N25           -4.3718    -1.6207     0.1859 N.pl3   
  26 C26            0.2594    -0.6447    -2.6191 C.2     
  27 O27            1.1297    -0.6638    -3.4696 O.2     
  28 O28           -0.6059    -1.6755    -2.5155 O.3     
  29 C29           -0.4417    -2.7555    -3.4368 C.3     
  30 C30           -1.4894    -3.8057    -3.1717 C.ar    
  31 C31           -2.7093    -3.7440    -3.8189 C.ar    
  32 C32           -3.6704    -4.7073    -3.5756 C.ar    
  33 C33           -3.4113    -5.7327    -2.6854 C.ar    
  34 C34           -2.1911    -5.7950    -2.0389 C.ar    
  35 C35           -1.2284    -4.8341    -2.2855 C.ar    
  36 H36           -2.0513     4.0368     1.6753 H       
  37 H37           -0.4359     3.6262     1.8864 H       
  38 H38            2.9300    -0.2479    -2.8333 H       
  39 H39            4.9033     0.8012    -4.1399 H       
  40 H40            4.5483     3.3944    -3.9616 H       
  41 H41            3.0649     3.6586    -1.1551 H       
  42 H42            3.4967     5.9413    -0.0053 H       
  43 H43            1.3310     6.4332     1.3870 H       
  44 H44           -6.7137    -1.1019     2.3505 H       
  45 H45           -6.0931    -2.9187     0.5612 H       
  46 H46           -3.8940    -2.0869    -0.5179 H       
  47 H47           -0.5499    -2.3835    -4.4557 H       
  48 H48            0.5495    -3.1915    -3.3126 H       
  49 H49           -2.9117    -2.9429    -4.5143 H       
  50 H50           -4.6237    -4.6587    -4.0807 H       
  51 H51           -4.1624    -6.4850    -2.4948 H       
  52 H52           -1.9888    -6.5959    -1.3432 H       
  53 H53           -0.2737    -4.8848    -1.7832 H       
@<TRIPOS>BOND
   1    1    2 1
   2    1    7 2
   3    1    6 1
   4    2    3 1
   5    2    9 1
   6    3    4 2
   7    4    5 1
   8    4   13 1
   9    5    6 2
  10    6   10 1
  11    7    8 1
  12    7   11 1
  13    8    9 2
  14    8   12 1
  15    9   26 1
  16   10   36 1
  17   10   37 1
  18   11   18 1
  19   11   21 2
  20   12   14 1
  21   12   17 2
  22   13   22 2
  23   13   25 1
  24   14   15 1
  25   14   38 1
  26   15   16 2
  27   15   39 1
  28   16   17 1
  29   16   40 1
  30   18   19 1
  31   18   41 1
  32   19   20 2
  33   19   42 1
  34   20   21 1
  35   20   43 1
  36   22   23 1
  37   23   24 2
  38   23   44 1
  39   24   25 1
  40   24   45 1
  41   25   46 1
  42   26   27 2
  43   26   28 1
  44   28   29 1
  45   29   30 1
  46   29   47 1
  47   29   48 1
  48   30   31 ar
  49   30   35 ar
  50   31   32 ar
  51   31   49 1
  52   32   33 ar
  53   32   50 1
  54   33   34 ar
  55   33   51 1
  56   34   35 ar
  57   34   52 1
  58   35   53 1

#	End of record

