#	Name: ASD05313068
#	Creating user name:	WinNT
#	Creation time:	15. 06. 2019 20:58

#	Modifying user name:	WinNT
#	Modification time:	15. 06. 2019 20:58

#	Program:	/corina/corina34_cracker 3.40 0067  02.08.2006

@<TRIPOS>MOLECULE
ASD05313068
  44   47    0    0    0
SMALL
NO_CHARGES


@<TRIPOS>ATOM
   1 C1            -0.0012     0.7906     1.0182 C.2     
   2 C2             0.1825    -0.6534     0.6170 C.3     
   3 N3             1.0177     1.6947     1.0729 N.pl3   
   4 N4             1.5473    -0.7770     0.0707 N.am    
   5 C5             2.6435    -0.1028     0.7826 C.3     
   6 C6             2.4142     1.4128     0.7463 C.3     
   7 N7            -0.8296     2.6356     1.6437 N.2     
   8 N8            -1.0904     1.4036     1.3695 N.2     
   9 C9             0.4570     2.8666     1.4787 C.2     
  10 C10            0.6516     5.3351     1.1589 C.ar    
  11 C11            1.1578     4.1512     1.6962 C.ar    
  12 C12            2.3389     4.1993     2.4446 C.ar    
  13 C13            2.9555     5.4261     2.6192 C.ar    
  14 C14            2.3900     6.5544     2.0538 C.ar    
  15 N15            1.2747     6.4789     1.3530 N.ar    
  16 C16           -0.6160     5.3038     0.3445 C.3     
  17 C17            1.7832    -1.4885    -1.0494 C.2     
  18 O18            2.8955    -1.4994    -1.5396 O.2     
  19 C19            0.6896    -2.2553    -1.6816 C.ar    
  20 C20            0.5065    -2.2056    -3.0660 C.ar    
  21 C21           -0.5179    -2.9250    -3.6495 C.ar    
  22 C22           -1.3610    -3.6925    -2.8665 C.ar    
  23 C23           -1.1850    -3.7452    -1.4949 C.ar    
  24 C24           -0.1619    -3.0372    -0.8993 C.ar    
  25 C25           -0.7177    -2.8734    -5.1423 C.3     
  26 F26           -1.8077    -3.6763    -5.4950 F       
  27 F27           -0.9647    -1.5533    -5.5344 F       
  28 F28            0.4338    -3.3426    -5.7835 F       
  29 Cl29           1.5635    -1.2418    -4.0497 Cl      
  30 H30            0.0706    -1.2988     1.4883 H       
  31 H31           -0.5490    -0.9241    -0.1443 H       
  32 H32            2.6680    -0.4422     1.8182 H       
  33 H33            3.5913    -0.3393     0.2990 H       
  34 H34            2.6385     1.7907    -0.2512 H       
  35 H35            3.0638     1.8976     1.4751 H       
  36 H36            2.7585     3.3022     2.8754 H       
  37 H37            3.8685     5.5015     3.1912 H       
  38 H38            2.8690     7.5130     2.1884 H       
  39 H39           -1.4736     5.4477     1.0016 H       
  40 H40           -0.5900     6.1007    -0.3988 H       
  41 H41           -0.7010     4.3406    -0.1585 H       
  42 H42           -2.1608    -4.2529    -3.3276 H       
  43 H43           -1.8476    -4.3461    -0.8897 H       
  44 H44           -0.0231    -3.0838     0.1707 H       
@<TRIPOS>BOND
   1    1    2 1
   2    1    3 1
   3    1    8 2
   4    2    4 1
   5    2   30 1
   6    2   31 1
   7    3    6 1
   8    3    9 1
   9    4    5 1
  10    4   17 am
  11    5    6 1
  12    5   32 1
  13    5   33 1
  14    6   34 1
  15    6   35 1
  16    7    8 1
  17    7    9 2
  18    9   11 1
  19   10   11 ar
  20   10   15 ar
  21   10   16 1
  22   11   12 ar
  23   12   13 ar
  24   12   36 1
  25   13   14 ar
  26   13   37 1
  27   14   15 ar
  28   14   38 1
  29   16   39 1
  30   16   40 1
  31   16   41 1
  32   17   18 2
  33   17   19 1
  34   19   20 ar
  35   19   24 ar
  36   20   21 ar
  37   20   29 1
  38   21   22 ar
  39   21   25 1
  40   22   23 ar
  41   22   42 1
  42   23   24 ar
  43   23   43 1
  44   24   44 1
  45   25   26 1
  46   25   27 1
  47   25   28 1

#	End of record

