#	Name: ASD04591017
#	Creating user name:	WinNT
#	Creation time:	15. 06. 2019 20:51

#	Modifying user name:	WinNT
#	Modification time:	15. 06. 2019 20:51

#	Program:	/corina/corina34_cracker 3.40 0067  02.08.2006

@<TRIPOS>MOLECULE
ASD04591017
  57   62    0    0    0
SMALL
NO_CHARGES


@<TRIPOS>ATOM
   1 N1            -0.0171     1.3229    -0.0118 N.ar    
   2 C2             0.0017    -0.0035    -0.0051 C.ar    
   3 N3             1.1298    -0.6952    -0.0118 N.ar    
   4 C4             2.3047    -0.0732    -0.0262 C.ar    
   5 C5             2.3181     1.3351    -0.0341 C.ar    
   6 C6             1.1080     2.0196    -0.0261 C.ar    
   7 N7             3.6045    -0.5179    -0.0358 N.pl3   
   8 C8             4.4833     0.5485    -0.0499 C.ar    
   9 C9             3.7333     1.7363    -0.0495 C.ar    
  10 N10            5.8089     0.6082    -0.0626 N.ar    
  11 C11            6.4525     1.7569    -0.0749 C.ar    
  12 C12            5.7756     2.9644    -0.0753 C.ar    
  13 C13            4.3913     2.9642    -0.0624 C.ar    
  14 N14           -1.2025    -0.6889     0.0098 N.pl3   
  15 C15           -2.4024     0.0120     0.1303 C.ar    
  16 N16           -2.3787     1.3196     0.3309 N.ar    
  17 C17           -3.4887     2.0231     0.4509 C.ar    
  18 C18           -4.7294     1.4090     0.3699 C.ar    
  19 C19           -4.7940     0.0324     0.1591 C.ar    
  20 C20           -3.6099    -0.6707     0.0326 C.ar    
  21 N21           -5.9026     2.1620     0.4986 N.3     
  22 C22           -5.5954     3.5829     0.7139 C.3     
  23 C23           -6.8999     4.3814     0.7698 C.3     
  24 N24           -7.7453     3.8584     1.8521 N.3     
  25 C25           -8.0525     2.4375     1.6367 C.3     
  26 C26           -6.7480     1.6390     1.5808 C.3     
  27 C27            4.0036    -1.9275    -0.0313 C.3     
  28 C28            4.8309    -2.2451    -1.2893 C.3     
  29 C29            6.2162    -2.7143    -0.7988 C.3     
  30 C30            5.9565    -3.2262     0.6398 C.3     
  31 C31            4.9151    -2.2147     1.1797 C.3     
  32 H32            1.0865     3.0994    -0.0315 H       
  33 H33            7.5325     1.7569    -0.0846 H       
  34 H34            6.3215     3.8962    -0.0852 H       
  35 H35            3.8365     3.8908    -0.0622 H       
  36 H36           -1.2110    -1.6561    -0.0635 H       
  37 H37           -3.4302     3.0890     0.6143 H       
  38 H38           -5.7464    -0.4724     0.0921 H       
  39 H39           -3.6228    -1.7381    -0.1317 H       
  40 H40           -5.0568     3.7000     1.6543 H       
  41 H41           -4.9791     3.9502    -0.1067 H       
  42 H42           -6.6759     5.4313     0.9584 H       
  43 H43           -7.4254     4.2863    -0.1804 H       
  44 H44           -7.3114     4.0022     2.7516 H       
  45 H45           -8.6688     2.0702     2.4573 H       
  46 H46           -8.5911     2.3204     0.6963 H       
  47 H47           -6.9721     0.5891     1.3922 H       
  48 H48           -6.2225     1.7341     2.5310 H       
  49 H49            3.1204    -2.5652     0.0056 H       
  50 H50            4.3496    -3.0376    -1.8624 H       
  51 H51            4.9354    -1.3505    -1.9031 H       
  52 H52            6.5909    -3.5209    -1.4290 H       
  53 H53            6.9188    -1.8810    -0.7863 H       
  54 H54            5.5428    -4.2344     0.6222 H       
  55 H55            6.8707    -3.1929     1.2325 H       
  56 H56            5.4075    -1.3008     1.5118 H       
  57 H57            4.3403    -2.6568     1.9935 H       
@<TRIPOS>BOND
   1    1    2 ar
   2    1    6 ar
   3    2    3 ar
   4    2   14 1
   5    3    4 ar
   6    4    5 ar
   7    4    7 1
   8    5    6 ar
   9    5    9 1
  10    6   32 1
  11    7    8 1
  12    7   27 1
  13    8    9 ar
  14    8   10 ar
  15    9   13 ar
  16   10   11 ar
  17   11   12 ar
  18   11   33 1
  19   12   13 ar
  20   12   34 1
  21   13   35 1
  22   14   15 1
  23   14   36 1
  24   15   16 ar
  25   15   20 ar
  26   16   17 ar
  27   17   18 ar
  28   17   37 1
  29   18   19 ar
  30   18   21 1
  31   19   20 ar
  32   19   38 1
  33   20   39 1
  34   21   22 1
  35   21   26 1
  36   22   23 1
  37   22   40 1
  38   22   41 1
  39   23   24 1
  40   23   42 1
  41   23   43 1
  42   24   25 1
  43   24   44 1
  44   25   26 1
  45   25   45 1
  46   25   46 1
  47   26   47 1
  48   26   48 1
  49   27   28 1
  50   27   31 1
  51   27   49 1
  52   28   29 1
  53   28   50 1
  54   28   51 1
  55   29   30 1
  56   29   52 1
  57   29   53 1
  58   30   31 1
  59   30   54 1
  60   30   55 1
  61   31   56 1
  62   31   57 1

#	End of record

