#	Name: ASD07480028
#	Creating user name:	WinNT
#	Creation time:	15. 06. 2019 21:11

#	Modifying user name:	WinNT
#	Modification time:	15. 06. 2019 21:11

#	Program:	/corina/corina34_cracker 3.40 0067  02.08.2006

@<TRIPOS>MOLECULE
ASD07480028
  47   49    0    0    0
SMALL
NO_CHARGES


@<TRIPOS>ATOM
   1 N1             0.1881     1.2565    -0.4637 N.am    
   2 C2             0.3051    -0.1448    -0.0528 C.3     
   3 C3            -0.4900    -0.3667     1.2354 C.3     
   4 C4            -0.2494    -1.0479    -1.1563 C.3     
   5 C5             1.2643     2.0661    -0.4118 C.2     
   6 N6             2.3934     1.6482     0.1938 N.am    
   7 O7             1.2166     3.1737    -0.9114 O.2     
   8 C8             3.5585     2.4243     0.1173 C.ar    
   9 C9             4.8042     1.8131     0.1687 C.ar    
  10 C10            3.4663     3.8033    -0.0157 C.ar    
  11 C11            4.6132     4.5679    -0.0920 C.ar    
  12 C12            5.8599     3.9573    -0.0353 C.ar    
  13 C13            5.9517     2.5769     0.0934 C.ar    
  14 C14           -1.0974     1.7762    -0.9367 C.3     
  15 C15           -1.8816     2.3159     0.2316 C.2     
  16 C16           -2.8771     1.6936     0.8823 C.2     
  17 C17           -1.6993     3.6165     0.8781 C.ar    
  18 C18           -2.6508     3.6775     1.9141 C.ar    
  19 N19           -3.3485     2.4938     1.8883 N.pl3   
  20 C20           -0.8379     4.6967     0.6719 C.ar    
  21 C21           -0.9591     5.7926     1.5051 C.ar    
  22 C22           -1.9192     5.7845     2.5056 C.ar    
  23 N23           -2.7213     4.7564     2.6827 N.ar    
  24 S24            7.3241     4.9326    -0.1332 S.3     
  25 C25            8.6465     3.6963    -0.0157 C.3     
  26 F26            8.5325     2.7895    -1.0750 F       
  27 F27            9.8893     4.3353    -0.0805 F       
  28 F28            8.5373     3.0107     1.1988 F       
  29 H29            1.3537    -0.3860     0.1214 H       
  30 H30           -1.5386    -0.1255     1.0612 H       
  31 H31           -0.4029    -1.4093     1.5411 H       
  32 H32           -0.0950     0.2767     2.0216 H       
  33 H33            0.3171    -0.8899    -2.0740 H       
  34 H34           -0.1623    -2.0905    -0.8506 H       
  35 H35           -1.2980    -0.8068    -1.3305 H       
  36 H36            2.4000     0.8104     0.6826 H       
  37 H37            4.8754     0.7400     0.2681 H       
  38 H38            2.4971     4.2779    -0.0599 H       
  39 H39            4.5413     5.6405    -0.1962 H       
  40 H40            6.9206     2.1019     0.1380 H       
  41 H41           -0.9233     2.5751    -1.6575 H       
  42 H42           -1.6607     0.9737    -1.4128 H       
  43 H43           -3.2508     0.7079     0.6473 H       
  44 H44           -4.0693     2.2598     2.4937 H       
  45 H45           -0.0988     4.6759    -0.1153 H       
  46 H46           -0.3116     6.6476     1.3783 H       
  47 H47           -2.0111     6.6426     3.1548 H       
@<TRIPOS>BOND
   1    1    2 1
   2    1    5 am
   3    1   14 1
   4    2    3 1
   5    2    4 1
   6    2   29 1
   7    3   30 1
   8    3   31 1
   9    3   32 1
  10    4   33 1
  11    4   34 1
  12    4   35 1
  13    5    6 am
  14    5    7 2
  15    6    8 1
  16    6   36 1
  17    8    9 ar
  18    8   10 ar
  19    9   13 ar
  20    9   37 1
  21   10   11 ar
  22   10   38 1
  23   11   12 ar
  24   11   39 1
  25   12   13 ar
  26   12   24 1
  27   13   40 1
  28   14   15 1
  29   14   41 1
  30   14   42 1
  31   15   16 2
  32   15   17 1
  33   16   19 1
  34   16   43 1
  35   17   18 ar
  36   17   20 ar
  37   18   19 1
  38   18   23 ar
  39   19   44 1
  40   20   21 ar
  41   20   45 1
  42   21   22 ar
  43   21   46 1
  44   22   23 ar
  45   22   47 1
  46   24   25 1
  47   25   26 1
  48   25   27 1
  49   25   28 1

#	End of record

