#	Name: ASD04220006
#	Creating user name:	WinNT
#	Creation time:	15. 06. 2019 20:48

#	Modifying user name:	WinNT
#	Modification time:	15. 06. 2019 20:48

#	Program:	/corina/corina34_cracker 3.40 0067  02.08.2006

@<TRIPOS>MOLECULE
ASD04220006
  29   30    0    0    0
SMALL
NO_CHARGES


@<TRIPOS>ATOM
   1 C1            -0.0178     1.4620     0.0101 C.3     
   2 N2             0.0021    -0.0041     0.0020 N.3     
   3 C3             0.8583    -0.5075     1.0879 C.3     
   4 C4             2.3163    -0.2178     0.7299 C.3     
   5 C5             2.4720     1.2289     0.3368 C.ar    
   6 C6             3.7495     1.7761     0.3174 C.ar    
   7 C7             3.9355     3.1053    -0.0431 C.ar    
   8 C8             2.8405     3.8835    -0.3832 C.ar    
   9 C9             1.5740     3.3352    -0.3607 C.ar    
  10 C10            1.3860     2.0086    -0.0004 C.ar    
  11 O11            5.1858     3.6398    -0.0615 O.3     
  12 C12            5.2991     5.0125    -0.4423 C.3     
  13 O13            4.8209     1.0082     0.6518 O.3     
  14 C14            5.4626     0.2938    -0.4065 C.3     
  15 H15           -0.5503     1.8200    -0.8711 H       
  16 H16           -0.5334     1.8104     0.9050 H       
  17 H17           -0.9319    -0.3788     0.0748 H       
  18 H18            0.6028    -0.0028     2.0197 H       
  19 H19            0.7151    -1.5823     1.1990 H       
  20 H20            2.9493    -0.4287     1.5918 H       
  21 H21            2.6176    -0.8534    -0.1027 H       
  22 H22            2.9779     4.9168    -0.6657 H       
  23 H23            0.7222     3.9440    -0.6257 H       
  24 H24            4.9100     5.1427    -1.4521 H       
  25 H25            4.7268     5.6300     0.2501 H       
  26 H26            6.3468     5.3118    -0.4152 H       
  27 H27            4.7486    -0.3862    -0.8711 H       
  28 H28            5.8295     1.0000    -1.1514 H       
  29 H29            6.2993    -0.2773    -0.0042 H       
@<TRIPOS>BOND
   1    1    2 1
   2    1   10 1
   3    1   15 1
   4    1   16 1
   5    2    3 1
   6    2   17 1
   7    3    4 1
   8    3   18 1
   9    3   19 1
  10    4    5 1
  11    4   20 1
  12    4   21 1
  13    5    6 ar
  14    5   10 ar
  15    6    7 ar
  16    6   13 1
  17    7    8 ar
  18    7   11 1
  19    8    9 ar
  20    8   22 1
  21    9   10 ar
  22    9   23 1
  23   11   12 1
  24   12   24 1
  25   12   25 1
  26   12   26 1
  27   13   14 1
  28   14   27 1
  29   14   28 1
  30   14   29 1

#	End of record

