#	Name: ASD03430687
#	Creating user name:	WinNT
#	Creation time:	15. 06. 2019 20:41

#	Modifying user name:	WinNT
#	Modification time:	15. 06. 2019 20:41

#	Program:	/corina/corina34_cracker 3.40 0067  02.08.2006

@<TRIPOS>MOLECULE
ASD03430687
  58   64    0    0    0
SMALL
NO_CHARGES


@<TRIPOS>ATOM
   1 C1             2.6569     0.3953    -0.0155 C.ar    
   2 C2             2.0895    -0.8682    -0.0504 C.ar    
   3 C3             2.8833    -1.9738    -0.2660 C.ar    
   4 C4             4.2590    -1.8387    -0.4399 C.ar    
   5 C5             4.8253    -0.5689    -0.4087 C.ar    
   6 C6             4.0318     0.5452    -0.1976 C.ar    
   7 O7             4.8558    -3.0532    -0.6101 O.3     
   8 C8             2.5784    -3.4431    -0.3818 C.3     
   9 C9             3.8614    -4.0221    -0.9939 C.3     
  10 C10            0.9897    -4.6241     0.8024 C.ar    
  11 C11            2.2590    -4.0679     0.9437 C.ar    
  12 C12            1.3793    -3.7085    -1.2463 C.2     
  13 N13            0.5034    -4.3966    -0.4873 N.am    
  14 O14            1.2285    -3.3697    -2.4011 O.2     
  15 C15            2.9384    -4.1682     2.1368 C.ar    
  16 C16            2.3627    -4.8262     3.2095 C.ar    
  17 C17            1.1033    -5.3820     3.0803 C.ar    
  18 C18            0.4179    -5.2840     1.8869 C.ar    
  19 C19           -0.8061    -4.8528    -0.9598 C.3     
  20 N20            2.1361     1.6773     0.1706 N.am    
  21 C21            3.1653     2.5449     0.1037 C.2     
  22 O22            4.3047     1.8713    -0.1188 O.3     
  23 O23            3.0750     3.7518     0.2224 O.2     
  24 C24            0.7291     2.0171     0.3965 C.3     
  25 C25           -1.8911    -4.1849    -0.1550 C.ar    
  26 C26           -3.0343    -4.8862     0.1800 C.ar    
  27 C27           -4.0296    -4.2735     0.9182 C.ar    
  28 C28           -3.8816    -2.9597     1.3217 C.ar    
  29 C29           -2.7380    -2.2587     0.9875 C.ar    
  30 C30           -1.7408    -2.8727     0.2531 C.ar    
  31 C31           -0.9676    -4.4953    -2.4148 C.ar    
  32 C32           -0.9299    -5.4860    -3.3782 C.ar    
  33 C33           -1.0780    -5.1581    -4.7129 C.ar    
  34 C34           -1.2643    -3.8396    -5.0842 C.ar    
  35 C35           -1.3029    -2.8491    -4.1207 C.ar    
  36 C36           -1.1591    -3.1775    -2.7857 C.ar    
  37 H37            1.0254    -0.9866     0.0917 H       
  38 H38            5.8896    -0.4516    -0.5498 H       
  39 H39            3.7792    -4.0831    -2.0791 H       
  40 H40            4.0876    -4.9989    -0.5663 H       
  41 H41            3.9220    -3.7332     2.2356 H       
  42 H42            2.8956    -4.9050     4.1455 H       
  43 H43            0.6541    -5.8957     3.9174 H       
  44 H44           -0.5656    -5.7204     1.7938 H       
  45 H45           -0.8788    -5.9339    -0.8410 H       
  46 H46            0.5213     2.0115     1.4665 H       
  47 H47            0.5252     3.0084    -0.0081 H       
  48 H48            0.0939     1.2840    -0.1008 H       
  49 H49           -3.1500    -5.9126    -0.1353 H       
  50 H50           -4.9231    -4.8212     1.1793 H       
  51 H51           -4.6595    -2.4808     1.8979 H       
  52 H52           -2.6224    -1.2322     1.3025 H       
  53 H53           -0.8456    -2.3262    -0.0049 H       
  54 H54           -0.7844    -6.5161    -3.0882 H       
  55 H55           -1.0478    -5.9319    -5.4657 H       
  56 H56           -1.3793    -3.5833    -6.1270 H       
  57 H57           -1.4481    -1.8190    -4.4108 H       
  58 H58           -1.1931    -2.4041    -2.0326 H       
@<TRIPOS>BOND
   1    1    2 ar
   2    1    6 ar
   3    1   20 1
   4    2    3 ar
   5    2   37 1
   6    3    4 ar
   7    3    8 1
   8    4    5 ar
   9    4    7 1
  10    5    6 ar
  11    5   38 1
  12    6   22 1
  13    7    9 1
  14    8    9 1
  15    8   11 1
  16    8   12 1
  17    9   39 1
  18    9   40 1
  19   10   11 ar
  20   10   13 1
  21   10   18 ar
  22   11   15 ar
  23   12   13 am
  24   12   14 2
  25   13   19 1
  26   15   16 ar
  27   15   41 1
  28   16   17 ar
  29   16   42 1
  30   17   18 ar
  31   17   43 1
  32   18   44 1
  33   19   25 1
  34   19   31 1
  35   19   45 1
  36   20   21 am
  37   20   24 1
  38   21   22 1
  39   21   23 2
  40   24   46 1
  41   24   47 1
  42   24   48 1
  43   25   26 ar
  44   25   30 ar
  45   26   27 ar
  46   26   49 1
  47   27   28 ar
  48   27   50 1
  49   28   29 ar
  50   28   51 1
  51   29   30 ar
  52   29   52 1
  53   30   53 1
  54   31   32 ar
  55   31   36 ar
  56   32   33 ar
  57   32   54 1
  58   33   34 ar
  59   33   55 1
  60   34   35 ar
  61   34   56 1
  62   35   36 ar
  63   35   57 1
  64   36   58 1

#	End of record

