#	Name: ASD02030658
#	Creating user name:	WinNT
#	Creation time:	15. 06. 2019 20:15

#	Modifying user name:	WinNT
#	Modification time:	15. 06. 2019 20:15

#	Program:	/corina/corina34_cracker 3.40 0067  02.08.2006

@<TRIPOS>MOLECULE
ASD02030658
  41   44    0    0    0
SMALL
NO_CHARGES


@<TRIPOS>ATOM
   1 C1             0.0307     1.3439     0.1007 C.2     
   2 N2             0.0257    -0.0052     0.0484 N.am    
   3 N3             2.3697    -0.0477     0.1619 N.2     
   4 C4             2.4222     1.2740     0.2142 C.2     
   5 C5             1.2564     2.0143     0.1861 C.2     
   6 C6             1.2071    -0.6922     0.0802 C.2     
   7 O7            -1.0173     1.9696     0.0689 O.2     
   8 C8             3.7549     1.9715     0.3069 C.3     
   9 N9             4.1740     2.0393     1.7090 N.pl3   
  10 C10            4.4209     2.7775     3.7621 C.2     
  11 N11            3.8760     3.0703     2.6093 N.2     
  12 C12            4.9108     1.1166     2.3631 C.2     
  13 C13            5.0800     1.5504     3.6352 C.2     
  14 C14            4.3485     3.6163     5.0120 C.3     
  15 Cl15           5.5298    -0.3610     1.6944 Cl      
  16 F16            3.5084     4.7127     4.7898 F       
  17 F17            3.8402     2.8447     6.0625 F       
  18 F18            5.6295     4.0700     5.3440 F       
  19 C19           -1.1588    -0.6721    -0.0348 C.2     
  20 C20           -1.1893    -2.0226    -0.0880 C.2     
  21 C21            0.0053    -2.7558    -0.0584 C.2     
  22 C22            1.1958    -2.0981     0.0268 C.2     
  23 C23           -2.5106    -2.7417    -0.1789 C.3     
  24 C24           -2.4501     0.1042    -0.0675 C.3     
  25 C25           -2.6949     1.0179    -1.2700 C.3     
  26 C26           -3.4824    -0.2861    -1.1273 C.3     
  27 C27           -1.6510     1.0716    -2.3065 C.1     
  28 N28           -0.8455     1.1129    -3.1064 N.1     
  29 F29           -2.8782    -2.8737    -1.5222 F       
  30 F30           -2.3918    -4.0103     0.3989 F       
  31 F31           -3.4882    -2.0087     0.5023 F       
  32 H32            1.2901     3.0929     0.2290 H       
  33 H33            4.4963     1.4162    -0.2676 H       
  34 H34            3.6654     2.9808    -0.0949 H       
  35 H35            5.6270     1.0393     4.4135 H       
  36 H36           -0.0179    -3.8347    -0.1009 H       
  37 H37            2.1230    -2.6514     0.0501 H       
  38 H38           -2.8237     0.4362     0.9012 H       
  39 H39           -3.2298     1.9509    -1.0925 H       
  40 H40           -3.2275    -1.1042    -1.8008 H       
  41 H41           -4.5354    -0.2109    -0.8559 H       
@<TRIPOS>BOND
   1    1    2 am
   2    1    5 1
   3    1    7 2
   4    2    6 1
   5    2   19 1
   6    3    4 1
   7    3    6 2
   8    4    5 2
   9    4    8 1
  10    5   32 1
  11    6   22 1
  12    8    9 1
  13    8   33 1
  14    8   34 1
  15    9   12 1
  16    9   11 1
  17   10   11 2
  18   10   13 1
  19   10   14 1
  20   12   13 2
  21   12   15 1
  22   13   35 1
  23   14   16 1
  24   14   17 1
  25   14   18 1
  26   19   20 2
  27   19   24 1
  28   20   21 1
  29   20   23 1
  30   21   22 2
  31   21   36 1
  32   22   37 1
  33   23   29 1
  34   23   30 1
  35   23   31 1
  36   24   25 1
  37   24   26 1
  38   24   38 1
  39   25   26 1
  40   25   27 1
  41   25   39 1
  42   26   40 1
  43   26   41 1
  44   27   28 3

#	End of record

