#	Name: ASD05490007
#	Creating user name:	WinNT
#	Creation time:	15. 06. 2019 21:00

#	Modifying user name:	WinNT
#	Modification time:	15. 06. 2019 21:00

#	Program:	/corina/corina34_cracker 3.40 0067  02.08.2006

@<TRIPOS>MOLECULE
ASD05490007
  70   74    0    0    0
SMALL
NO_CHARGES


@<TRIPOS>ATOM
   1 O1            -0.0173     1.4248     0.0099 O.3     
   2 N2             2.7241     5.3595     0.0030 N.pl3   
   3 N3             2.2883     1.3280    -0.0127 N.ar    
   4 C4             3.4877     1.9005    -0.0215 C.ar    
   5 C5             1.1818     2.0565     0.0018 C.ar    
   6 N6             1.2068     3.3779     0.0082 N.ar    
   7 C7             2.3634     4.0326     0.0003 C.ar    
   8 C8             3.5624     3.3026    -0.0151 C.ar    
   9 N9             4.6391     1.1308    -0.0361 N.pl3   
  10 C10            4.0899     5.4129    -0.0163 C.2     
  11 N11            4.5806     4.2015    -0.0210 N.2     
  12 C12            1.8119     6.5058     0.0175 C.3     
  13 C13            1.5133     6.8921     1.4432 C.ar    
  14 C14            2.3142     7.8153     2.0905 C.ar    
  15 C15            2.0458     8.1744     3.3992 C.ar    
  16 C16            0.9765     7.6123     4.0663 C.ar    
  17 C17            0.1662     6.6815     3.4189 C.ar    
  18 C18            0.4375     6.3280     2.0989 C.ar    
  19 C19           -0.9850     6.0735     4.1311 C.ar    
  20 C20           -1.2596     6.4312     5.4493 C.ar    
  21 C21           -2.3318     5.8625     6.1070 C.ar    
  22 C22           -3.1324     4.9389     5.4599 C.ar    
  23 C23           -2.8640     4.5798     4.1511 C.ar    
  24 C24           -1.7988     5.1470     3.4819 C.ar    
  25 C25            0.0021    -0.0041     0.0020 C.3     
  26 C26           -1.4333    -0.5336     0.0129 C.3     
  27 C27           -1.4126    -2.0635     0.0045 C.3     
  28 C28           -2.8479    -2.5931     0.0153 C.3     
  29 C29           -2.6301     6.2483     7.5329 C.3     
  30 N30           -3.5450     7.3975     7.5480 N.3     
  31 C31           -4.0472     7.6552     8.9101 C.3     
  32 C32           -2.8710     8.6179     7.0561 C.3     
  33 C33           -3.5019     9.7742     7.8713 C.3     
  34 C34           -3.6848     9.1131     9.2628 C.3     
  35 O35            4.8243     6.5500    -0.0203 O.3     
  36 C36            6.2458     6.4042    -0.0300 C.3     
  37 H37            4.5753     0.1629    -0.0401 H       
  38 H38            5.5091     1.5596    -0.0425 H       
  39 H39            2.2770     7.3467    -0.4969 H       
  40 H40            0.8842     6.2383    -0.4884 H       
  41 H41            3.1525     8.2572     1.5724 H       
  42 H42            2.6745     8.8959     3.8999 H       
  43 H43            0.7683     7.8928     5.0882 H       
  44 H44           -0.1874     5.6072     1.5925 H       
  45 H45           -0.6346     7.1518     5.9557 H       
  46 H46           -3.9700     4.4961     5.9783 H       
  47 H47           -3.4922     3.8578     3.6507 H       
  48 H48           -1.5901     4.8659     2.4602 H       
  49 H49            0.5123    -0.3556    -0.8948 H       
  50 H50            0.5293    -0.3651     0.8851 H       
  51 H51           -1.9435    -0.1821     0.9097 H       
  52 H52           -1.9605    -0.1726    -0.8702 H       
  53 H53           -0.9024    -2.4150    -0.8923 H       
  54 H54           -0.8854    -2.4246     0.8875 H       
  55 H55           -3.3581    -2.2415     0.9121 H       
  56 H56           -3.3751    -2.2320    -0.8677 H       
  57 H57           -2.8332    -3.6829     0.0093 H       
  58 H58           -3.0948     5.4072     8.0473 H       
  59 H59           -1.7023     6.5159     8.0386 H       
  60 H60           -5.1291     7.5251     8.9372 H       
  61 H61           -3.5718     6.9738     9.6157 H       
  62 H62           -1.7989     8.5615     7.2447 H       
  63 H63           -3.0632     8.7549     5.9919 H       
  64 H64           -2.8241    10.6259     7.9297 H       
  65 H65           -4.4627    10.0700     7.4501 H       
  66 H66           -4.4965     9.5899     9.8123 H       
  67 H67           -2.7568     9.1524     9.8331 H       
  68 H68            6.7121     7.3894    -0.0323 H       
  69 H69            6.5608     5.8553     0.8575 H       
  70 H70            6.5488     5.8567    -0.9224 H       
@<TRIPOS>BOND
   1    1   25 1
   2    1    5 1
   3    2   12 1
   4    2    7 1
   5    2   10 1
   6    3    4 ar
   7    3    5 ar
   8    4    9 1
   9    4    8 ar
  10    5    6 ar
  11    6    7 ar
  12    7    8 ar
  13    8   11 1
  14    9   37 1
  15    9   38 1
  16   10   11 2
  17   10   35 1
  18   12   13 1
  19   12   39 1
  20   12   40 1
  21   13   14 ar
  22   13   18 ar
  23   14   15 ar
  24   14   41 1
  25   15   16 ar
  26   15   42 1
  27   16   17 ar
  28   16   43 1
  29   17   18 ar
  30   17   19 1
  31   18   44 1
  32   19   20 ar
  33   19   24 ar
  34   20   21 ar
  35   20   45 1
  36   21   22 ar
  37   21   29 1
  38   22   23 ar
  39   22   46 1
  40   23   24 ar
  41   23   47 1
  42   24   48 1
  43   25   26 1
  44   25   49 1
  45   25   50 1
  46   26   27 1
  47   26   51 1
  48   26   52 1
  49   27   28 1
  50   27   53 1
  51   27   54 1
  52   28   55 1
  53   28   56 1
  54   28   57 1
  55   29   30 1
  56   29   58 1
  57   29   59 1
  58   30   31 1
  59   30   32 1
  60   31   34 1
  61   31   60 1
  62   31   61 1
  63   32   33 1
  64   32   62 1
  65   32   63 1
  66   33   34 1
  67   33   64 1
  68   33   65 1
  69   34   66 1
  70   34   67 1
  71   35   36 1
  72   36   68 1
  73   36   69 1
  74   36   70 1

#	End of record

