#	Name: ASD01810966
#	Creating user name:	WinNT
#	Creation time:	15. 06. 2019 19:25

#	Modifying user name:	WinNT
#	Modification time:	15. 06. 2019 19:25

#	Program:	/corina/corina34_cracker 3.40 0067  02.08.2006

@<TRIPOS>MOLECULE
ASD01810966
  43   44    0    0    0
SMALL
NO_CHARGES


@<TRIPOS>ATOM
   1 C1            -0.0408     1.4312    -0.4923 C.2     
   2 C2            -0.0090    -0.0246    -0.2422 C.ar    
   3 C3             1.2149    -0.6874    -0.1186 C.ar    
   4 C4             1.2458    -2.0474     0.1154 C.ar    
   5 C5             0.0691    -2.7618     0.2290 C.ar    
   6 C6            -1.1605    -2.1121     0.1076 C.ar    
   7 C7            -1.1997    -0.7392    -0.1234 C.ar    
   8 O8             0.7527     1.9325    -1.2634 O.2     
   9 O9            -0.9533     2.2018     0.1307 O.3     
  10 C10            0.1128    -4.2464     0.4841 C.3     
  11 N11           -3.7726    -4.4974     0.4978 N.2     
  12 N12           -2.5303    -4.1703     0.4511 N.2     
  13 C13           -2.4196    -2.8795     0.2296 C.2     
  14 N14           -3.6902    -2.3799     0.1336 N.pl3   
  15 C15           -4.5207    -3.4433     0.3104 C.2     
  16 C16           -6.0273    -3.4107     0.2931 C.3     
  17 O17           -6.4721    -2.0730     0.0586 O.3     
  18 C18           -7.8936    -1.9310     0.0231 C.3     
  19 C19            2.5037     0.0839    -0.2416 C.3     
  20 C20            3.3771    -0.1833     0.9859 C.3     
  21 C21            3.2464    -0.3617    -1.5028 C.3     
  22 C22           -0.9260     3.6236    -0.1627 C.3     
  23 H23            2.1942    -2.5552     0.2099 H       
  24 H24           -2.1484    -0.2311    -0.2136 H       
  25 H25            0.1156    -4.4306     1.5584 H       
  26 H26           -0.7623    -4.7178     0.0369 H       
  27 H27            1.0169    -4.6647     0.0414 H       
  28 H28           -3.9459    -1.4581    -0.0269 H       
  29 H29           -6.3956    -4.0605    -0.5008 H       
  30 H30           -6.4092    -3.7576     1.2532 H       
  31 H31           -8.3007    -2.5502    -0.7764 H       
  32 H32           -8.3143    -2.2472     0.9776 H       
  33 H33           -8.1500    -0.8874    -0.1592 H       
  34 H34            2.2845     1.1497    -0.3065 H       
  35 H35            3.5963    -1.2490     1.0508 H       
  36 H36            4.3092     0.3746     0.8970 H       
  37 H37            2.8479     0.1342     1.8844 H       
  38 H38            3.4656    -1.4274    -1.4379 H       
  39 H39            2.6242    -0.1713    -2.3773 H       
  40 H40            4.1786     0.1962    -1.5917 H       
  41 H41           -1.7103     4.1265     0.4031 H       
  42 H42            0.0441     4.0339     0.1176 H       
  43 H43           -1.0914     3.7778    -1.2290 H       
@<TRIPOS>BOND
   1    1    2 1
   2    1    8 2
   3    1    9 1
   4    2    3 ar
   5    2    7 ar
   6    3    4 ar
   7    3   19 1
   8    4    5 ar
   9    4   23 1
  10    5    6 ar
  11    5   10 1
  12    6    7 ar
  13    6   13 1
  14    7   24 1
  15    9   22 1
  16   10   25 1
  17   10   26 1
  18   10   27 1
  19   11   12 1
  20   11   15 2
  21   12   13 2
  22   13   14 1
  23   14   15 1
  24   14   28 1
  25   15   16 1
  26   16   17 1
  27   16   29 1
  28   16   30 1
  29   17   18 1
  30   18   31 1
  31   18   32 1
  32   18   33 1
  33   19   20 1
  34   19   21 1
  35   19   34 1
  36   20   35 1
  37   20   36 1
  38   20   37 1
  39   21   38 1
  40   21   39 1
  41   21   40 1
  42   22   41 1
  43   22   42 1
  44   22   43 1

#	End of record

