#	Name: ASD01840454
#	Creating user name:	WinNT
#	Creation time:	15. 06. 2019 19:37

#	Modifying user name:	WinNT
#	Modification time:	15. 06. 2019 19:37

#	Program:	/corina/corina34_cracker 3.40 0067  02.08.2006

@<TRIPOS>MOLECULE
ASD01840454
  47   50    0    0    0
SMALL
NO_CHARGES


@<TRIPOS>ATOM
   1 C1            -0.0498     1.6343    -1.2311 C.ar    
   2 C2             0.0172     0.4004    -1.8398 C.ar    
   3 N3             1.1134    -0.3319    -1.7406 N.ar    
   4 N4             2.1464     0.0557    -1.0905 N.ar    
   5 C5             1.0799     2.0810    -0.5084 C.ar    
   6 C6             1.2957     3.3150     0.2241 C.2     
   7 C7             2.1943     1.2325    -0.4618 C.ar    
   8 S8             3.4784     1.9764     0.4805 S.3     
   9 C9             2.5181     3.4066     0.8040 C.2     
  10 C10           -1.2887     2.4857    -1.3378 C.3     
  11 C11           -1.1632    -0.1167    -2.6210 C.3     
  12 N12            0.3360     4.3135     0.3220 N.pl3   
  13 C13            2.9756     4.5489     1.5938 C.2     
  14 O14            2.2397     5.5033     1.7666 O.2     
  15 N15            4.2119     4.5453     2.1306 N.am    
  16 C16            4.6702     5.6898     2.9219 C.3     
  17 C17            4.2381     5.5307     4.3942 C.3     
  18 C18            5.5561     5.4908     5.1970 C.3     
  19 N19            6.5417     6.1907     4.3335 N.3     
  20 C20            6.2129     5.7327     2.9590 C.3     
  21 C21            7.8493     5.8390     4.6792 C.ar    
  22 C22            8.6413     5.1352     3.7813 C.ar    
  23 C23            9.9332     4.7891     4.1260 C.ar    
  24 C24           10.4388     5.1418     5.3639 C.ar    
  25 C25            9.6536     5.8424     6.2609 C.ar    
  26 C26            8.3621     6.1975     5.9203 C.ar    
  27 Cl27           7.3793     7.0839     7.0438 Cl      
  28 H28           -1.9272     2.3081    -0.4724 H       
  29 H29           -1.0050     3.5376    -1.3703 H       
  30 H30           -1.8300     2.2271    -2.2479 H       
  31 H31           -1.0772     0.1988    -3.6608 H       
  32 H32           -1.1826    -1.2055    -2.5721 H       
  33 H33           -2.0838     0.2825    -2.1952 H       
  34 H34           -0.5965     4.1083     0.1514 H       
  35 H35            0.5981     5.2163     0.5611 H       
  36 H36            4.7982     3.7849     1.9929 H       
  37 H37            4.2739     6.6176     2.5093 H       
  38 H38            3.6313     6.3812     4.7047 H       
  39 H39            3.6850     4.6010     4.5281 H       
  40 H40            5.4400     6.0166     6.1447 H       
  41 H41            5.8656     4.4598     5.3687 H       
  42 H42            6.6252     4.7396     2.7805 H       
  43 H43            6.5914     6.4406     2.2217 H       
  44 H44            8.2473     4.8586     2.8145 H       
  45 H45           10.5493     4.2418     3.4279 H       
  46 H46           11.4491     4.8690     5.6309 H       
  47 H47           10.0514     6.1160     7.2270 H       
@<TRIPOS>BOND
   1    1    2 ar
   2    1    5 ar
   3    1   10 1
   4    2   11 1
   5    2    3 ar
   6    3    4 ar
   7    4    7 ar
   8    5    7 ar
   9    5    6 1
  10    6    9 2
  11    6   12 1
  12    7    8 1
  13    8    9 1
  14    9   13 1
  15   10   28 1
  16   10   29 1
  17   10   30 1
  18   11   31 1
  19   11   32 1
  20   11   33 1
  21   12   34 1
  22   12   35 1
  23   13   14 2
  24   13   15 am
  25   15   16 1
  26   15   36 1
  27   16   17 1
  28   16   20 1
  29   16   37 1
  30   17   18 1
  31   17   38 1
  32   17   39 1
  33   18   19 1
  34   18   40 1
  35   18   41 1
  36   19   20 1
  37   19   21 1
  38   20   42 1
  39   20   43 1
  40   21   22 ar
  41   21   26 ar
  42   22   23 ar
  43   22   44 1
  44   23   24 ar
  45   23   45 1
  46   24   25 ar
  47   24   46 1
  48   25   26 ar
  49   25   47 1
  50   26   27 1

#	End of record

