#	Name: ASD01000092
#	Creating user name:	WinNT
#	Creation time:	15. 06. 2019 18:54

#	Modifying user name:	WinNT
#	Modification time:	15. 06. 2019 18:54

#	Program:	/corina/corina34_cracker 3.40 0067  02.08.2006

@<TRIPOS>MOLECULE
ASD01000092
  69   72    0    0    0
SMALL
NO_CHARGES


@<TRIPOS>ATOM
   1 C1             0.1671     1.6527    -0.1086 C.2     
   2 C2             0.1010     0.1477    -0.1507 C.3     
   3 C3            -0.0531    -0.3157    -1.6006 C.3     
   4 C4             2.4254     0.8940     2.1684 C.3     
   5 C5             2.4702     0.4660     0.7002 C.3     
   6 N6             1.3326    -0.4111     0.4123 N.am    
   7 C7            -1.3993     0.1624    -2.1485 C.3     
   8 C8             3.5397     1.9071     2.4385 C.3     
   9 N9             3.4232     2.4079     3.8146 N.3     
  10 C10            1.4192    -1.7320     0.6654 C.2     
  11 C11            0.3179    -2.6346     0.2676 C.ar    
  12 O12            2.4027    -2.1813     1.2207 O.2     
  13 C13            0.4467    -4.0142     0.4361 C.ar    
  14 C14           -0.5847    -4.8509     0.0627 C.ar    
  15 C15           -1.7449    -4.3252    -0.4777 C.ar    
  16 C16           -1.8788    -2.9587    -0.6478 C.ar    
  17 C17           -0.8575    -2.1105    -0.2729 C.ar    
  18 N18           -0.7695     2.3291     0.6030 N.am    
  19 C19           -1.8158     1.5862     1.3097 C.3     
  20 C20           -1.3984     1.3696     2.7414 C.ar    
  21 C21           -1.6395     2.3485     3.6873 C.ar    
  22 C22           -0.7796     0.1898     3.1101 C.ar    
  23 C23           -0.3968    -0.0089     4.4234 C.ar    
  24 C24           -0.6323     0.9725     5.3680 C.ar    
  25 C25           -1.2566     2.1499     5.0006 C.ar    
  26 C26           -2.8675    -5.2453    -0.8832 C.3     
  27 C27           -0.7499     3.6769     0.6691 C.2     
  28 C28            0.3186     4.3898    -0.0546 C.2     
  29 C29            1.2344     3.5889    -0.7588 C.2     
  30 N30            1.1243     2.2575    -0.7524 N.2     
  31 O31           -1.5902     4.2862     1.3072 O.2     
  32 C32            0.5997     5.7538    -0.1751 C.2     
  33 N33            1.6161     6.1193    -0.8821 N.2     
  34 S34            2.3627     4.7271    -1.5001 S.3     
  35 C35           -0.2684     6.7791     0.5076 C.3     
  36 C36            1.0789     0.2706    -2.4465 C.3     
  37 H37           -0.7534    -0.1949     0.4330 H       
  38 H38           -0.0104    -1.4041    -1.6407 H       
  39 H39            1.4594     1.3502     2.3846 H       
  40 H40            2.5658     0.0210     2.8058 H       
  41 H41            2.4190     1.3486     0.0627 H       
  42 H42            3.3998    -0.0691     0.5059 H       
  43 H43           -1.5091    -0.1678    -3.1815 H       
  44 H44           -2.2059    -0.2553    -1.5459 H       
  45 H45           -1.4420     1.2508    -2.1084 H       
  46 H46            4.5085     1.4250     2.3081 H       
  47 H47            3.4511     2.7394     1.7402 H       
  48 H48            4.1485     3.0793     4.0177 H       
  49 H49            2.5091     2.8021     3.9797 H       
  50 H50            1.3519    -4.4258     0.8574 H       
  51 H51           -0.4862    -5.9185     0.1922 H       
  52 H52           -2.7869    -2.5548    -1.0705 H       
  53 H53           -0.9633    -1.0439    -0.4058 H       
  54 H54           -2.7454     2.1548     1.2842 H       
  55 H55           -1.9667     0.6215     0.8253 H       
  56 H56           -2.1266     3.2687     3.4001 H       
  57 H57           -0.5956    -0.5770     2.3721 H       
  58 H58            0.0860    -0.9310     4.7116 H       
  59 H59           -0.3335     0.8172     6.3942 H       
  60 H60           -1.4406     2.9167     5.7386 H       
  61 H61           -3.5418    -5.3897    -0.0391 H       
  62 H62           -3.4162    -4.8041    -1.7153 H       
  63 H63           -2.4563    -6.2074    -1.1886 H       
  64 H64            0.1201     6.9769     1.5066 H       
  65 H65           -0.2655     7.7019    -0.0726 H       
  66 H66           -1.2877     6.4003     0.5825 H       
  67 H67            2.0321    -0.1390    -2.1120 H       
  68 H68            0.9206     0.0136    -3.4939 H       
  69 H69            1.0908     1.3550    -2.3363 H       
@<TRIPOS>BOND
   1    1    2 1
   2    1   18 1
   3    1   30 2
   4    2    3 1
   5    2    6 1
   6    2   37 1
   7    3    7 1
   8    3   36 1
   9    3   38 1
  10    4    5 1
  11    4    8 1
  12    4   39 1
  13    4   40 1
  14    5    6 1
  15    5   41 1
  16    5   42 1
  17    6   10 am
  18    7   43 1
  19    7   44 1
  20    7   45 1
  21    8    9 1
  22    8   46 1
  23    8   47 1
  24    9   48 1
  25    9   49 1
  26   10   11 1
  27   10   12 2
  28   11   13 ar
  29   11   17 ar
  30   13   14 ar
  31   13   50 1
  32   14   15 ar
  33   14   51 1
  34   15   16 ar
  35   15   26 1
  36   16   17 ar
  37   16   52 1
  38   17   53 1
  39   18   19 1
  40   18   27 am
  41   19   20 1
  42   19   54 1
  43   19   55 1
  44   20   21 ar
  45   20   22 ar
  46   21   25 ar
  47   21   56 1
  48   22   23 ar
  49   22   57 1
  50   23   24 ar
  51   23   58 1
  52   24   25 ar
  53   24   59 1
  54   25   60 1
  55   26   61 1
  56   26   62 1
  57   26   63 1
  58   27   28 1
  59   27   31 2
  60   28   29 2
  61   28   32 1
  62   29   30 1
  63   29   34 1
  64   32   33 2
  65   32   35 1
  66   33   34 1
  67   35   64 1
  68   35   65 1
  69   35   66 1
  70   36   67 1
  71   36   68 1
  72   36   69 1

#	End of record

