#	Name: ASD01880282
#	Creating user name:	WinNT
#	Creation time:	15. 06. 2019 19:40

#	Modifying user name:	WinNT
#	Modification time:	15. 06. 2019 19:40

#	Program:	/corina/corina34_cracker 3.40 0067  02.08.2006

@<TRIPOS>MOLECULE
ASD01880282
  40   42    0    0    0
SMALL
NO_CHARGES


@<TRIPOS>ATOM
   1 C1            -0.0164     1.3606     0.0095 C.2     
   2 C2             0.0021    -0.0041     0.0020 C.2     
   3 N3            -1.1565    -0.7092     0.0093 N.am    
   4 C4            -2.3470    -0.0814     0.0241 C.2     
   5 C5            -2.4079     1.3233     0.0322 C.2     
   6 C6            -1.2519     2.0432     0.0309 C.2     
   7 O7            -3.3782    -0.7344     0.0300 O.2     
   8 C8            -1.1115    -2.1735     0.0005 C.3     
   9 C9            -1.0822    -2.6837     1.4182 C.ar    
  10 C10           -2.2542    -2.7585     2.1513 C.ar    
  11 C11           -2.2264    -3.2274     3.4538 C.ar    
  12 C12           -1.0279    -3.6204     4.0210 C.ar    
  13 C13            0.1427    -3.5449     3.2867 C.ar    
  14 C14            0.1140    -3.0822     1.9848 C.ar    
  15 Cl15          -0.9918    -4.2078     5.6541 Cl      
  16 C16            1.2565     2.1233     0.0015 C.ar    
  17 C17            1.5830     2.9253    -1.0905 C.ar    
  18 C18            2.7669     3.6330    -1.0952 C.ar    
  19 C19            3.6330     3.5467    -0.0138 C.ar    
  20 C20            3.3105     2.7487     1.0753 C.ar    
  21 C21            2.1251     2.0435     1.0883 C.ar    
  22 O22            4.7992     4.2445    -0.0216 O.3     
  23 C23            5.6434     4.1098     1.1234 C.3     
  24 C24            6.8521     4.9299     0.9411 C.1     
  25 N25            7.7849     5.5628     0.8003 N.1     
  26 F26           -3.4244    -2.3739     1.5963 F       
  27 H27            0.9471    -0.5268    -0.0102 H       
  28 H28           -3.3631     1.8270     0.0436 H       
  29 H29           -1.2801     3.1228     0.0374 H       
  30 H30           -1.9949    -2.5611    -0.5069 H       
  31 H31           -0.2158    -2.5063    -0.5240 H       
  32 H32           -3.1401    -3.2858     4.0267 H       
  33 H33            1.0785    -3.8518     3.7299 H       
  34 H34            1.0281    -3.0236     1.4126 H       
  35 H35            0.9099     2.9923    -1.9324 H       
  36 H36            3.0205     4.2547    -1.9411 H       
  37 H37            3.9865     2.6833     1.9150 H       
  38 H38            1.8748     1.4228     1.9359 H       
  39 H39            5.1075     4.4449     2.0114 H       
  40 H40            5.9283     3.0646     1.2439 H       
@<TRIPOS>BOND
   1    1    2 2
   2    1   16 1
   3    1    6 1
   4    2    3 1
   5    2   27 1
   6    3    4 am
   7    3    8 1
   8    4    5 1
   9    4    7 2
  10    5    6 2
  11    5   28 1
  12    6   29 1
  13    8    9 1
  14    8   30 1
  15    8   31 1
  16    9   10 ar
  17    9   14 ar
  18   10   11 ar
  19   10   26 1
  20   11   12 ar
  21   11   32 1
  22   12   13 ar
  23   12   15 1
  24   13   14 ar
  25   13   33 1
  26   14   34 1
  27   16   17 ar
  28   16   21 ar
  29   17   18 ar
  30   17   35 1
  31   18   19 ar
  32   18   36 1
  33   19   20 ar
  34   19   22 1
  35   20   21 ar
  36   20   37 1
  37   21   38 1
  38   22   23 1
  39   23   24 1
  40   23   39 1
  41   23   40 1
  42   24   25 3

#	End of record

