#	Name: ASD03330336
#	Creating user name:	WinNT
#	Creation time:	15. 06. 2019 20:37

#	Modifying user name:	WinNT
#	Modification time:	15. 06. 2019 20:37

#	Program:	/corina/corina34_cracker 3.40 0067  02.08.2006

@<TRIPOS>MOLECULE
ASD03330336
  57   61    0    0    0
SMALL
NO_CHARGES


@<TRIPOS>ATOM
   1 C1            -0.0179     1.4666     0.0101 C.3     
   2 N2             0.0021    -0.0041     0.0020 N.am    
   3 C3             0.5791    -0.6826    -1.1742 C.3     
   4 C4             1.8395     0.0634    -1.5376 C.2     
   5 N5             2.1950     1.2602    -1.0064 N.pl3   
   6 C6             1.4218     1.9926    -0.0008 C.3     
   7 C7             2.8088    -0.2954    -2.4175 C.2     
   8 N8             3.7410     0.6841    -2.4213 N.2     
   9 C9             3.3779     1.6226    -1.5775 C.2     
  10 C10            4.1276     2.8665    -1.2948 C.ar    
  11 C11            5.1488     3.2788    -2.1513 C.ar    
  12 C12            2.8399    -1.5294    -3.2224 C.2     
  13 O13            1.9371    -2.3390    -3.1295 O.2     
  14 C14            3.8999    -2.9876    -4.8617 C.3     
  15 N15            3.8689    -1.7608    -4.0615 N.am    
  16 C16           -0.4915    -0.7107     1.0381 C.2     
  17 O17           -0.4659    -1.9229     1.0124 O.2     
  18 C18            5.8439     4.4400    -1.8824 C.ar    
  19 C19            5.5301     5.1948    -0.7663 C.ar    
  20 C20            4.5186     4.7912     0.0869 C.ar    
  21 C21            3.8125     3.6348    -0.1738 C.ar    
  22 C22            5.3264    -3.3210    -5.2150 C.ar    
  23 C23            3.0919    -2.7805    -6.1443 C.3     
  24 C24           -1.0753     0.0056     2.2286 C.3     
  25 C25           -1.6193    -0.8526     3.3725 C.3     
  26 C26           -0.3099    -0.0815     3.5506 C.3     
  27 C27            5.7560    -4.6347    -5.1891 C.ar    
  28 C28            6.2040    -2.3138    -5.5705 C.ar    
  29 C29            7.5125    -2.6196    -5.8945 C.ar    
  30 C30            7.9437    -3.9326    -5.8628 C.ar    
  31 C31            7.0645    -4.9405    -5.5132 C.ar    
  32 H32           -0.5441     1.8282    -0.8733 H       
  33 H33           -0.5271     1.8186     0.9072 H       
  34 H34            0.8171    -1.7172    -0.9273 H       
  35 H35           -0.1254    -0.6499    -2.0053 H       
  36 H36            1.4195     3.0547    -0.2457 H       
  37 H37            1.8705     1.8456     0.9816 H       
  38 H38            5.3949     2.6903    -3.0227 H       
  39 H39            3.4668    -3.8068    -4.2877 H       
  40 H40            4.5889    -1.1151    -4.1357 H       
  41 H41            6.6348     4.7601    -2.5445 H       
  42 H42            6.0774     6.1027    -0.5599 H       
  43 H43            4.2784     5.3848     0.9566 H       
  44 H44            3.0231     3.3208     0.4930 H       
  45 H45            3.5250    -1.9613    -6.7183 H       
  46 H46            3.1149    -3.6933    -6.7397 H       
  47 H47            2.0601    -2.5393    -5.8888 H       
  48 H48           -1.5948     0.9380     2.0080 H       
  49 H49           -2.4965    -0.4846     3.9046 H       
  50 H50           -1.5550    -1.9353     3.2639 H       
  51 H51            0.6158    -0.6568     3.5592 H       
  52 H52           -0.3257     0.7939     4.1999 H       
  53 H53            5.0693    -5.4221    -4.9154 H       
  54 H54            5.8671    -1.2880    -5.5953 H       
  55 H55            8.1979    -1.8328    -6.1729 H       
  56 H56            8.9659    -4.1716    -6.1163 H       
  57 H57            7.4014    -5.9664    -5.4884 H       
@<TRIPOS>BOND
   1    1    2 1
   2    1    6 1
   3    1   32 1
   4    1   33 1
   5    2    3 1
   6    2   16 am
   7    3    4 1
   8    3   34 1
   9    3   35 1
  10    4    5 1
  11    4    7 2
  12    5    6 1
  13    5    9 1
  14    6   36 1
  15    6   37 1
  16    7    8 1
  17    7   12 1
  18    8    9 2
  19    9   10 1
  20   10   11 ar
  21   10   21 ar
  22   11   18 ar
  23   11   38 1
  24   12   13 2
  25   12   15 am
  26   14   15 1
  27   14   22 1
  28   14   23 1
  29   14   39 1
  30   15   40 1
  31   16   17 2
  32   16   24 1
  33   18   19 ar
  34   18   41 1
  35   19   20 ar
  36   19   42 1
  37   20   21 ar
  38   20   43 1
  39   21   44 1
  40   22   27 ar
  41   22   28 ar
  42   23   45 1
  43   23   46 1
  44   23   47 1
  45   24   25 1
  46   24   26 1
  47   24   48 1
  48   25   26 1
  49   25   49 1
  50   25   50 1
  51   26   51 1
  52   26   52 1
  53   27   31 ar
  54   27   53 1
  55   28   29 ar
  56   28   54 1
  57   29   30 ar
  58   29   55 1
  59   30   31 ar
  60   30   56 1
  61   31   57 1

#	End of record

