#	Name: ASD09650004
#	Creating user name:	WinNT
#	Creation time:	15. 06. 2019 21:22

#	Modifying user name:	WinNT
#	Modification time:	15. 06. 2019 21:22

#	Program:	/corina/corina34_cracker 3.40 0067  02.08.2006

@<TRIPOS>MOLECULE
ASD09650004
  47   50    0    0    0
SMALL
NO_CHARGES


@<TRIPOS>ATOM
   1 C1            -0.0185     1.5131     0.0104 C.2     
   2 C2             0.0021    -0.0041     0.0020 C.3     
   3 C3             0.8795    -0.4477    -1.1680 C.3     
   4 C4             1.2939     2.1750     0.0014 C.2     
   5 C5             2.3383     1.5290    -0.5106 C.2     
   6 C6             3.7017     2.1992    -0.4783 C.3     
   7 C7             4.6817     1.2249     0.1854 C.3     
   8 C8             4.6663    -0.1146    -0.5511 C.3     
   9 C9             5.6562    -1.0711     0.0889 C.3     
  10 C10            7.1300    -0.6541     0.0058 C.3     
  11 C11            7.8723    -2.0121     0.1357 C.3     
  12 C12            6.8885    -3.0908    -0.3065 C.2     
  13 C13            5.6605    -2.3642    -0.7705 C.3     
  14 C14            5.8054    -1.9994    -2.2493 C.3     
  15 C15            4.3299    -3.0564    -0.5492 C.3     
  16 C16            3.2360    -2.1307    -1.1053 C.3     
  17 C17            3.2729    -0.7568    -0.4430 C.3     
  18 C18            2.2570     0.1642    -1.1192 C.3     
  19 C19            2.7243     0.3058    -2.5692 C.3     
  20 O20           -1.0559     2.1421     0.0188 O.2     
  21 O21            7.0624    -4.2857    -0.2867 O.2     
  22 H22            3.0041    -0.8573     0.6086 H       
  23 H23            4.9296     0.0395    -1.5975 H       
  24 H24            5.3745    -1.2774     1.1215 H       
  25 H25            0.4200    -0.3734     0.9385 H       
  26 H26           -1.0101    -0.3870    -0.1287 H       
  27 H27            0.9746    -1.5333    -1.1459 H       
  28 H28            0.3970    -0.1566    -2.1010 H       
  29 H29            1.4086     3.1706     0.4039 H       
  30 H30            4.0298     2.4191    -1.4942 H       
  31 H31            3.6471     3.1208     0.1011 H       
  32 H32            5.6872     1.6445     0.1522 H       
  33 H33            4.3902     1.0700     1.2242 H       
  34 H34            7.3460    -0.1853    -0.9542 H       
  35 H35            7.3913     0.0101     0.8296 H       
  36 H36            8.7507    -2.0206    -0.5097 H       
  37 H37            8.1680    -2.1784     1.1716 H       
  38 H38            6.7412    -1.4614    -2.4008 H       
  39 H39            5.8081    -2.9093    -2.8494 H       
  40 H40            4.9701    -1.3674    -2.5511 H       
  41 H41            4.3146    -4.0088    -1.0791 H       
  42 H42            4.1701    -3.2210     0.5164 H       
  43 H43            3.3820    -2.0122    -2.1790 H       
  44 H44            2.2612    -2.5852    -0.9280 H       
  45 H45            2.0325     0.9493    -3.1127 H       
  46 H46            3.7213     0.7461    -2.5883 H       
  47 H47            2.7522    -0.6771    -3.0396 H       
@<TRIPOS>BOND
   1    1    2 1
   2    1    4 1
   3    1   20 2
   4    2    3 1
   5    2   25 1
   6    2   26 1
   7    3   18 1
   8    3   27 1
   9    3   28 1
  10    4    5 2
  11    4   29 1
  12    5    6 1
  13    5   18 1
  14    6    7 1
  15    6   30 1
  16    6   31 1
  17    7    8 1
  18    7   32 1
  19    7   33 1
  20    8    9 1
  21    8   23 1
  22    8   17 1
  23    9   10 1
  24    9   13 1
  25    9   24 1
  26   10   11 1
  27   10   34 1
  28   10   35 1
  29   11   12 1
  30   11   36 1
  31   11   37 1
  32   12   13 1
  33   12   21 2
  34   13   14 1
  35   13   15 1
  36   14   38 1
  37   14   39 1
  38   14   40 1
  39   15   16 1
  40   15   41 1
  41   15   42 1
  42   16   17 1
  43   16   43 1
  44   16   44 1
  45   17   22 1
  46   17   18 1
  47   18   19 1
  48   19   45 1
  49   19   46 1
  50   19   47 1

#	End of record

