#	Name: ASD01916193
#	Creating user name:	WinNT
#	Creation time:	15. 06. 2019 20:06

#	Modifying user name:	WinNT
#	Modification time:	15. 06. 2019 20:06

#	Program:	/corina/corina34_cracker 3.40 0067  02.08.2006

@<TRIPOS>MOLECULE
ASD01916193
  39   41    0    0    0
SMALL
NO_CHARGES


@<TRIPOS>ATOM
   1 C1            -0.3851     1.7154     0.1130 C.ar    
   2 C2            -0.5114     0.3648     0.3826 C.ar    
   3 N3             0.5356    -0.3607     0.7138 N.ar    
   4 C4             1.7515     0.1660     0.8037 C.ar    
   5 C5             1.9586     1.5176     0.5473 C.ar    
   6 C6             0.8705     2.3118     0.1945 C.ar    
   7 C7            -1.8680    -0.2857     0.2964 C.3     
   8 O8             1.0301     3.6347    -0.0640 O.3     
   9 C9             2.2797     4.1590     0.0398 C.ar    
  10 C10            3.2187     3.9703    -0.9692 C.ar    
  11 N11            4.4244     4.4966    -0.8307 N.ar    
  12 C12            4.7399     5.1910     0.2441 C.ar    
  13 N13            3.8785     5.3917     1.2211 N.ar    
  14 C14            2.6510     4.9030     1.1551 C.ar    
  15 C15            2.8976    -0.6935     1.1807 C.2     
  16 N16            2.7039    -2.0036     1.4308 N.am    
  17 O17            4.0125    -0.2173     1.2646 O.2     
  18 C18            3.7943    -2.8334     1.6820 C.ar    
  19 C19            3.5993    -4.2019     1.8233 C.ar    
  20 C20            4.6907    -5.0168     2.0724 C.ar    
  21 C21            5.9445    -4.4326     2.1718 C.ar    
  22 C22            6.0669    -3.0617     2.0203 C.ar    
  23 N23            5.0075    -2.3111     1.7783 N.ar    
  24 C24           -1.8023    -1.4775    -0.6608 C.3     
  25 F25            7.2852    -2.4857     2.1163 F       
  26 H26           -1.2503     2.3003    -0.1621 H       
  27 H27            2.9479     1.9445     0.6212 H       
  28 H28           -2.1692    -0.6304     1.2856 H       
  29 H29           -2.5949     0.4375    -0.0733 H       
  30 H30            2.9671     3.4021    -1.8525 H       
  31 H31            5.7330     5.6072     0.3267 H       
  32 H32            1.9487     5.0755     1.9572 H       
  33 H33            1.8052    -2.3687     1.4359 H       
  34 H34            2.6089    -4.6246     1.7404 H       
  35 H35            4.5683    -6.0837     2.1870 H       
  36 H36            6.8160    -5.0402     2.3657 H       
  37 H37           -1.5010    -1.1328    -1.6501 H       
  38 H38           -1.0754    -2.2007    -0.2912 H       
  39 H39           -2.7835    -1.9480    -0.7232 H       
@<TRIPOS>BOND
   1    1    2 ar
   2    1    6 ar
   3    1   26 1
   4    2    3 ar
   5    2    7 1
   6    3    4 ar
   7    4    5 ar
   8    4   15 1
   9    5    6 ar
  10    5   27 1
  11    6    8 1
  12    7   24 1
  13    7   28 1
  14    7   29 1
  15    8    9 1
  16    9   10 ar
  17    9   14 ar
  18   10   11 ar
  19   10   30 1
  20   11   12 ar
  21   12   13 ar
  22   12   31 1
  23   13   14 ar
  24   14   32 1
  25   15   16 am
  26   15   17 2
  27   16   18 1
  28   16   33 1
  29   18   19 ar
  30   18   23 ar
  31   19   20 ar
  32   19   34 1
  33   20   21 ar
  34   20   35 1
  35   21   22 ar
  36   21   36 1
  37   22   23 ar
  38   22   25 1
  39   24   37 1
  40   24   38 1
  41   24   39 1

#	End of record

