#	Name: ASD03570027
#	Creating user name:	WinNT
#	Creation time:	15. 06. 2019 20:43

#	Modifying user name:	WinNT
#	Modification time:	15. 06. 2019 20:43

#	Program:	/corina/corina34_cracker 3.40 0067  02.08.2006

@<TRIPOS>MOLECULE
ASD03570027
  35   37    0    0    0
SMALL
NO_CHARGES


@<TRIPOS>ATOM
   1 C1            -0.0169     1.3983     0.0097 C.ar    
   2 C2             0.0021    -0.0041     0.0020 C.ar    
   3 C3             1.2143    -0.6904    -0.0132 C.ar    
   4 C4             2.4082     0.0220    -0.0208 C.ar    
   5 C5             2.3777     1.4315    -0.0129 C.ar    
   6 C6             1.1461     2.1046     0.0024 C.ar    
   7 N7             3.7306    -0.3612    -0.0359 N.pl3   
   8 C8             4.5208     0.7732    -0.0376 C.2     
   9 C9             3.7206     1.8736    -0.0238 C.2     
  10 C10            4.1832     3.3078    -0.0211 C.3     
  11 C11            4.3257     3.8004    -1.4626 C.3     
  12 C12           -1.2686    -0.7565     0.0106 C.2     
  13 F13            1.2296    -2.0413    -0.0202 F       
  14 C14           -2.2912    -0.5488     0.8655 C.2     
  15 C15           -3.3769    -1.3784     0.6775 C.2     
  16 C16           -3.2508    -2.2588    -0.3201 C.2     
  17 S17           -1.6863    -2.0572    -1.0973 S.3     
  18 C18            5.9884     0.7882    -0.0516 C.2     
  19 O19            6.5856     1.8473    -0.0514 O.2     
  20 O20            6.6746    -0.3729    -0.0646 O.3     
  21 C21            4.7883     5.2347    -1.4600 C.2     
  22 O22            4.9839     5.8044    -0.4126 O.2     
  23 O23            4.9829     5.8792    -2.6212 O.3     
  24 H24           -0.9617     1.9215     0.0170 H       
  25 H25            1.1215     3.1843     0.0085 H       
  26 H26            4.0542    -1.2756    -0.0435 H       
  27 H27            3.4528     3.9242     0.5029 H       
  28 H28            5.1467     3.3779     0.4837 H       
  29 H29            5.0561     3.1840    -1.9867 H       
  30 H30            3.3622     3.7304    -1.9675 H       
  31 H31           -2.2619     0.2069     1.6365 H       
  32 H32           -4.2636    -1.3209     1.2914 H       
  33 H33           -3.9989    -2.9826    -0.6080 H       
  34 H34            7.6396    -0.3124    -0.0735 H       
  35 H35            5.2798     6.7980    -2.5689 H       
@<TRIPOS>BOND
   1    1    2 ar
   2    1    6 ar
   3    1   24 1
   4    2    3 ar
   5    2   12 1
   6    3    4 ar
   7    3   13 1
   8    4    5 ar
   9    4    7 1
  10    5    6 ar
  11    5    9 1
  12    6   25 1
  13    7    8 1
  14    7   26 1
  15    8    9 2
  16    8   18 1
  17    9   10 1
  18   10   11 1
  19   10   27 1
  20   10   28 1
  21   11   21 1
  22   11   29 1
  23   11   30 1
  24   12   14 2
  25   12   17 1
  26   14   15 1
  27   14   31 1
  28   15   16 2
  29   15   32 1
  30   16   17 1
  31   16   33 1
  32   18   19 2
  33   18   20 1
  34   20   34 1
  35   21   22 2
  36   21   23 1
  37   23   35 1

#	End of record

