#	Name: ASD07301393
#	Creating user name:	WinNT
#	Creation time:	15. 06. 2019 21:11

#	Modifying user name:	WinNT
#	Modification time:	15. 06. 2019 21:11

#	Program:	/corina/corina34_cracker 3.40 0067  02.08.2006

@<TRIPOS>MOLECULE
ASD07301393
  32   32    0    0    0
SMALL
NO_CHARGES


@<TRIPOS>ATOM
   1 C1            -0.0342     1.4629    -0.1359 C.2     
   2 C2            -0.0011    -0.0025    -0.0193 C.2     
   3 C3             1.2784    -0.7091    -0.0451 C.2     
   4 C4             1.3123    -2.2110     0.0744 C.3     
   5 O5             1.0027     2.0972    -0.1229 O.2     
   6 O6            -1.2141     2.1025    -0.2629 O.3     
   7 O7             2.3134    -0.0861    -0.1629 O.2     
   8 O8             2.6671    -2.6624     0.0230 O.3     
   9 C9             2.8118    -4.0801     0.1285 C.3     
  10 N10           -1.1281    -0.6809     0.1089 N.2     
  11 N11           -2.2371    -0.0557     0.3171 N.pl3   
  12 C12           -3.4430    -0.7580     0.3260 C.ar    
  13 C13           -4.6411    -0.0850     0.5505 C.ar    
  14 C14           -5.8333    -0.7850     0.5580 C.ar    
  15 C15           -5.8356    -2.1518     0.3427 C.ar    
  16 C16           -4.6464    -2.8227     0.1199 C.ar    
  17 C17           -3.4518    -2.1296     0.1053 C.ar    
  18 I18           -7.6446    -3.2083     0.3549 I       
  19 F19           -4.6386     1.2495     0.7611 F       
  20 C20           -1.1709     3.5497    -0.3731 C.3     
  21 H21            0.8654    -2.5102     1.0225 H       
  22 H22            0.7503    -2.6537    -0.7480 H       
  23 H23            3.8688    -4.3421     0.0810 H       
  24 H24            2.3960    -4.4181     1.0777 H       
  25 H25            2.2809    -4.5616    -0.6928 H       
  26 H26           -2.2328     0.9026     0.4674 H       
  27 H27           -6.7634    -0.2646     0.7323 H       
  28 H28           -4.6526    -3.8896    -0.0473 H       
  29 H29           -2.5248    -2.6542    -0.0732 H       
  30 H30           -0.5899     3.8299    -1.2517 H       
  31 H31           -2.1852     3.9371    -0.4696 H       
  32 H32           -0.7054     3.9683     0.5191 H       
@<TRIPOS>BOND
   1    1    2 1
   2    1    5 2
   3    1    6 1
   4    2    3 1
   5    2   10 2
   6    3    4 1
   7    3    7 2
   8    4    8 1
   9    4   21 1
  10    4   22 1
  11    6   20 1
  12    8    9 1
  13    9   23 1
  14    9   24 1
  15    9   25 1
  16   10   11 1
  17   11   12 1
  18   11   26 1
  19   12   13 ar
  20   12   17 ar
  21   13   14 ar
  22   13   19 1
  23   14   15 ar
  24   14   27 1
  25   15   16 ar
  26   15   18 1
  27   16   17 ar
  28   16   28 1
  29   17   29 1
  30   20   30 1
  31   20   31 1
  32   20   32 1

#	End of record

