#	Name: ASD01915487
#	Creating user name:	WinNT
#	Creation time:	15. 06. 2019 20:05

#	Modifying user name:	WinNT
#	Modification time:	15. 06. 2019 20:05

#	Program:	/corina/corina34_cracker 3.40 0067  02.08.2006

@<TRIPOS>MOLECULE
ASD01915487
  43   46    0    0    0
SMALL
NO_CHARGES


@<TRIPOS>ATOM
   1 C1            -0.0540     1.2491     0.2095 C.ar    
   2 C2             0.0038    -0.1129     0.4710 C.ar    
   3 N3             1.0397     1.9471    -0.0301 N.ar    
   4 C4             2.2323     1.3893    -0.0337 C.ar    
   5 C5             2.3749     0.0269     0.2363 C.ar    
   6 C6             1.2414    -0.7466     0.4873 C.ar    
   7 C7             3.4586     2.2068    -0.3509 C.3     
   8 C8             4.6537     1.6898     0.4454 C.3     
   9 N9             4.8025     0.2446     0.2895 N.am    
  10 C10            3.7268    -0.5660     0.2713 C.2     
  11 O11            3.8676    -1.7734     0.2839 O.2     
  12 O12           -1.1340    -0.8177     0.7084 O.3     
  13 C13           -2.3651    -0.0929     0.6742 C.3     
  14 C14           -3.5090    -1.0320     0.9580 C.ar    
  15 C15           -3.9313    -1.2337     2.2588 C.ar    
  16 C16           -4.1396    -1.6875    -0.0829 C.ar    
  17 C17           -5.1889    -2.5490     0.1774 C.ar    
  18 C18           -5.6072    -2.7553     1.4787 C.ar    
  19 C19           -4.9805    -2.0952     2.5191 C.ar    
  20 C20            6.0823    -0.3059     0.1571 C.ar    
  21 C21            6.4673    -0.8901    -1.0425 C.ar    
  22 C22            7.7307    -1.4328    -1.1710 C.ar    
  23 C23            8.6133    -1.3951    -0.1046 C.ar    
  24 C24            8.2314    -0.8134     1.0926 C.ar    
  25 C25            6.9712    -0.2636     1.2233 C.ar    
  26 F26            9.8486    -1.9270    -0.2323 F       
  27 H27           -1.0129     1.7461     0.1976 H       
  28 H28            1.3227    -1.8046     0.6883 H       
  29 H29            3.6756     2.1343    -1.4166 H       
  30 H30            3.2750     3.2494    -0.0914 H       
  31 H31            5.5593     2.1829     0.0922 H       
  32 H32            4.5086     1.9229     1.5003 H       
  33 H33           -2.3448     0.6935     1.4288 H       
  34 H34           -2.4970     0.3529    -0.3117 H       
  35 H35           -3.4412    -0.7185     3.0716 H       
  36 H36           -3.8128    -1.5263    -1.0996 H       
  37 H37           -5.6821    -3.0605    -0.6359 H       
  38 H38           -6.4272    -3.4281     1.6821 H       
  39 H39           -5.3073    -2.2564     3.5357 H       
  40 H40            5.7790    -0.9204    -1.8742 H       
  41 H41            8.0305    -1.8873    -2.1037 H       
  42 H42            8.9210    -0.7857     1.9233 H       
  43 H43            6.6738     0.1903     2.1570 H       
@<TRIPOS>BOND
   1    1    2 ar
   2    1    3 ar
   3    1   27 1
   4    2   12 1
   5    2    6 ar
   6    3    4 ar
   7    4    5 ar
   8    4    7 1
   9    5    6 ar
  10    5   10 1
  11    6   28 1
  12    7    8 1
  13    7   29 1
  14    7   30 1
  15    8    9 1
  16    8   31 1
  17    8   32 1
  18    9   10 am
  19    9   20 1
  20   10   11 2
  21   12   13 1
  22   13   14 1
  23   13   33 1
  24   13   34 1
  25   14   15 ar
  26   14   16 ar
  27   15   19 ar
  28   15   35 1
  29   16   17 ar
  30   16   36 1
  31   17   18 ar
  32   17   37 1
  33   18   19 ar
  34   18   38 1
  35   19   39 1
  36   20   21 ar
  37   20   25 ar
  38   21   22 ar
  39   21   40 1
  40   22   23 ar
  41   22   41 1
  42   23   24 ar
  43   23   26 1
  44   24   25 ar
  45   24   42 1
  46   25   43 1

#	End of record

