#	Name: ASD03470015
#	Creating user name:	WinNT
#	Creation time:	15. 06. 2019 20:42

#	Modifying user name:	WinNT
#	Modification time:	15. 06. 2019 20:42

#	Program:	/corina/corina34_cracker 3.40 0067  02.08.2006

@<TRIPOS>MOLECULE
ASD03470015
  34   36    0    0    0
SMALL
NO_CHARGES


@<TRIPOS>ATOM
   1 C1            -0.0167     1.3790     0.0096 C.ar    
   2 C2             0.0021    -0.0041     0.0020 C.ar    
   3 C3             1.1686     2.0920     0.0021 C.ar    
   4 C4             1.2050    -0.6804    -0.0131 C.ar    
   5 C5             2.3774     1.4261    -0.0130 C.ar    
   6 C6             9.7417    -1.3808    -1.9451 C.3     
   7 C7             8.9561     0.8519    -1.4339 C.3     
   8 C8             7.4866     0.5937    -1.2171 C.3     
   9 C9             2.4023     0.0328    -0.0207 C.ar    
  10 C10            3.6986    -0.6887    -0.0364 C.2     
  11 C11            5.9410    -0.7619    -0.0622 C.2     
  12 S12            5.3990    -2.3969    -0.0611 S.3     
  13 N13            3.7477    -1.9967    -0.0439 N.2     
  14 N14            4.8460    -0.0353    -0.0488 N.2     
  15 N15            9.4464    -0.1061    -2.4455 N.3     
  16 C16            8.4899    -2.0571    -1.3427 C.3     
  17 C17            8.2007    -1.4416     0.0026 C.3     
  18 N18            7.2482    -0.3105    -0.0732 N.3     
  19 H19           -0.9604     1.9042     0.0169 H       
  20 H20           -0.9264    -0.5557     0.0083 H       
  21 H21            1.1482     3.1718     0.0078 H       
  22 H22            1.2186    -1.7603    -0.0186 H       
  23 H23            3.3023     1.9838    -0.0192 H       
  24 H24           10.1267    -2.0008    -2.7548 H       
  25 H25           10.5052    -1.2919    -1.1723 H       
  26 H26            9.1019     1.8713    -1.7913 H       
  27 H27            9.4970     0.7084    -0.4985 H       
  28 H28            6.9835     1.5425    -1.0302 H       
  29 H29            7.0688     0.1439    -2.1178 H       
  30 H30           10.2313     0.2739    -2.9530 H       
  31 H31            7.6379    -1.9037    -2.0050 H       
  32 H32            8.6738    -3.1249    -1.2235 H       
  33 H33            7.7849    -2.2076     0.6571 H       
  34 H34            9.1361    -1.0846     0.4337 H       
@<TRIPOS>BOND
   1    1    2 ar
   2    1    3 ar
   3    1   19 1
   4    2    4 ar
   5    2   20 1
   6    3    5 ar
   7    3   21 1
   8    4    9 ar
   9    4   22 1
  10    5    9 ar
  11    5   23 1
  12    6   15 1
  13    6   16 1
  14    6   24 1
  15    6   25 1
  16    7    8 1
  17    7   15 1
  18    7   26 1
  19    7   27 1
  20    8   18 1
  21    8   28 1
  22    8   29 1
  23    9   10 1
  24   10   13 2
  25   10   14 1
  26   11   12 1
  27   11   14 2
  28   11   18 1
  29   12   13 1
  30   15   30 1
  31   16   17 1
  32   16   31 1
  33   16   32 1
  34   17   18 1
  35   17   33 1
  36   17   34 1

#	End of record

