#	Name: ASD00170092
#	Creating user name:	WinNT
#	Creation time:	15. 06. 2019 18:31

#	Modifying user name:	WinNT
#	Modification time:	15. 06. 2019 18:31

#	Program:	/corina/corina34_cracker 3.40 0067  02.08.2006

@<TRIPOS>MOLECULE
ASD00170092
  46   49    0    0    0
SMALL
NO_CHARGES


@<TRIPOS>ATOM
   1 C1             0.0020     1.3497    -0.0676 C.2     
   2 C2             0.0217     0.0146     0.2011 C.2     
   3 C3            -1.3120    -0.5537     0.2771 C.2     
   4 C4            -2.3022     0.3754     0.0622 C.2     
   5 S5            -1.6489     1.9223    -0.2221 S.3     
   6 N6            -3.6505     0.0925     0.0800 N.pl3   
   7 C7             1.2018     2.1975    -0.2036 C.ar    
   8 C8             2.2678     1.7818    -1.0055 C.ar    
   9 C9             3.3862     2.5795    -1.1279 C.ar    
  10 C10            3.4544     3.7887    -0.4585 C.ar    
  11 C11            2.4025     4.2068     0.3375 C.ar    
  12 C12            1.2751     3.4224     0.4644 C.ar    
  13 C13           -1.5743    -1.9649     0.5531 C.2     
  14 O14           -1.7432    -2.7442    -0.3673 O.2     
  15 C15            1.2627    -0.7685     0.3931 C.ar    
  16 C16            2.0748    -0.5335     1.5033 C.ar    
  17 C17            3.2304    -1.2669     1.6765 C.ar    
  18 C18            3.5850    -2.2334     0.7521 C.ar    
  19 C19            2.7841    -2.4712    -0.3508 C.ar    
  20 C20            1.6227    -1.7489    -0.5322 C.ar    
  21 C21           -1.6347    -2.4466     1.9506 C.ar    
  22 C22           -1.7736    -3.8095     2.2166 C.ar    
  23 C23           -1.8289    -4.2529     3.5220 C.ar    
  24 C24           -1.7474    -3.3500     4.5667 C.ar    
  25 C25           -1.6094    -1.9960     4.3102 C.ar    
  26 C26           -1.5472    -1.5403     3.0085 C.ar    
  27 C27            4.8492    -3.0301     0.9470 C.3     
  28 Cl28          -1.5086    -0.8704     5.6280 Cl      
  29 H29           -3.9567    -0.7948     0.3248 H       
  30 H30           -4.2936     0.7806    -0.1521 H       
  31 H31            2.2162     0.8380    -1.5280 H       
  32 H32            4.2110     2.2595    -1.7474 H       
  33 H33            4.3330     4.4089    -0.5574 H       
  34 H34            2.4627     5.1516     0.8574 H       
  35 H35            0.4547     3.7501     1.0856 H       
  36 H36            1.7995     0.2212     2.2251 H       
  37 H37            3.8598    -1.0860     2.5352 H       
  38 H38            3.0663    -3.2270    -1.0688 H       
  39 H39            0.9982    -1.9358    -1.3933 H       
  40 H40           -1.8381    -4.5158     1.4021 H       
  41 H41           -1.9364    -5.3075     3.7286 H       
  42 H42           -1.7919    -3.7023     5.5867 H       
  43 H43           -1.4392    -0.4844     2.8092 H       
  44 H44            4.6284    -3.9256     1.5279 H       
  45 H45            5.2512    -3.3172    -0.0246 H       
  46 H46            5.5824    -2.4237     1.4788 H       
@<TRIPOS>BOND
   1    1    2 2
   2    1    7 1
   3    1    5 1
   4    2    3 1
   5    2   15 1
   6    3    4 2
   7    3   13 1
   8    4    5 1
   9    4    6 1
  10    6   29 1
  11    6   30 1
  12    7    8 ar
  13    7   12 ar
  14    8    9 ar
  15    8   31 1
  16    9   10 ar
  17    9   32 1
  18   10   11 ar
  19   10   33 1
  20   11   12 ar
  21   11   34 1
  22   12   35 1
  23   13   14 2
  24   13   21 1
  25   15   16 ar
  26   15   20 ar
  27   16   17 ar
  28   16   36 1
  29   17   18 ar
  30   17   37 1
  31   18   19 ar
  32   18   27 1
  33   19   20 ar
  34   19   38 1
  35   20   39 1
  36   21   22 ar
  37   21   26 ar
  38   22   23 ar
  39   22   40 1
  40   23   24 ar
  41   23   41 1
  42   24   25 ar
  43   24   42 1
  44   25   26 ar
  45   25   28 1
  46   26   43 1
  47   27   44 1
  48   27   45 1
  49   27   46 1

#	End of record

