#	Name: ASD01900656
#	Creating user name:	WinNT
#	Creation time:	15. 06. 2019 19:52

#	Modifying user name:	WinNT
#	Modification time:	15. 06. 2019 19:52

#	Program:	/corina/corina34_cracker 3.40 0067  02.08.2006

@<TRIPOS>MOLECULE
ASD01900656
  40   43    0    0    0
SMALL
NO_CHARGES


@<TRIPOS>ATOM
   1 C1            -0.0157     1.4040    -0.1132 C.ar    
   2 C2             0.0116     0.0194    -0.1174 C.ar    
   3 C3            -1.1600    -0.7088    -0.0663 C.ar    
   4 C4            -2.3828    -0.0533    -0.0092 C.ar    
   5 C5            -2.4058     1.3481    -0.0091 C.ar    
   6 O6            -3.5356    -0.7532     0.0530 O.3     
   7 C7            -4.7265    -0.1776    -0.1865 C.2     
   8 C8            -4.9021     1.1647    -0.2020 C.2     
   9 C9            -3.7272     2.0240     0.0389 C.2     
  10 C10           -5.8925    -1.0462    -0.4440 C.ar    
  11 N11           -7.0829    -0.4889    -0.6836 N.ar    
  12 C12           -8.1594    -1.1961    -0.9198 C.ar    
  13 C13           -8.0963    -2.6007    -0.9292 C.ar    
  14 C14           -6.8492    -3.2326    -0.6790 C.ar    
  15 C15           -5.7278    -2.4225    -0.4376 C.ar    
  16 C16           -9.2284    -3.3912    -1.1778 C.ar    
  17 C17           -9.1143    -4.7488    -1.1754 C.ar    
  18 C18           -7.8903    -5.3680    -0.9299 C.ar    
  19 C19           -6.7694    -4.6337    -0.6849 C.ar    
  20 C20           -1.2224     2.0732    -0.0539 C.ar    
  21 C21            1.2738     2.1819    -0.1673 C.3     
  22 C22            1.6479     2.4483    -1.6267 C.3     
  23 N23           -3.8429     3.3069     0.2812 N.2     
  24 O24           -2.7044     4.0629     0.6516 O.3     
  25 H25            0.9596    -0.4962    -0.1615 H       
  26 H26           -1.1256    -1.7883    -0.0710 H       
  27 H27           -5.8756     1.5947    -0.3861 H       
  28 H28           -9.0994    -0.6986    -1.1078 H       
  29 H29           -4.7606    -2.8620    -0.2433 H       
  30 H30          -10.1843    -2.9265    -1.3695 H       
  31 H31           -9.9872    -5.3553    -1.3667 H       
  32 H32           -7.8294    -6.4463    -0.9342 H       
  33 H33           -5.8267    -5.1259    -0.4964 H       
  34 H34           -1.2458     3.1529    -0.0498 H       
  35 H35            1.1480     3.1306     0.3545 H       
  36 H36            2.0658     1.6061     0.3115 H       
  37 H37            2.5807     3.0110    -1.6658 H       
  38 H38            1.7738     1.4997    -2.1485 H       
  39 H39            0.8559     3.0241    -2.1055 H       
  40 H40           -2.8882     4.9990     0.8097 H       
@<TRIPOS>BOND
   1    1    2 ar
   2    1   21 1
   3    1   20 ar
   4    2    3 ar
   5    2   25 1
   6    3    4 ar
   7    3   26 1
   8    4    5 ar
   9    4    6 1
  10    5   20 ar
  11    5    9 1
  12    6    7 1
  13    7    8 2
  14    7   10 1
  15    8    9 1
  16    8   27 1
  17    9   23 2
  18   10   11 ar
  19   10   15 ar
  20   11   12 ar
  21   12   13 ar
  22   12   28 1
  23   13   14 ar
  24   13   16 ar
  25   14   15 ar
  26   14   19 ar
  27   15   29 1
  28   16   17 ar
  29   16   30 1
  30   17   18 ar
  31   17   31 1
  32   18   19 ar
  33   18   32 1
  34   19   33 1
  35   20   34 1
  36   21   22 1
  37   21   35 1
  38   21   36 1
  39   22   37 1
  40   22   38 1
  41   22   39 1
  42   23   24 1
  43   24   40 1

#	End of record

