#	Name: ASD01870334
#	Creating user name:	WinNT
#	Creation time:	15. 06. 2019 19:39

#	Modifying user name:	WinNT
#	Modification time:	15. 06. 2019 19:39

#	Program:	/corina/corina34_cracker 3.40 0067  02.08.2006

@<TRIPOS>MOLECULE
ASD01870334
  54   58    0    0    0
SMALL
NO_CHARGES


@<TRIPOS>ATOM
   1 N1            -0.0179     1.4666     0.0101 N.am    
   2 C2             0.0021    -0.0041     0.0020 C.3     
   3 C3            -0.8912    -0.5093     1.1400 C.3     
   4 N4            -2.2247     0.0945     1.0165 N.3     
   5 C5            -2.1640     1.5549     1.1632 C.3     
   6 C6            -1.3228     2.1447     0.0324 C.3     
   7 C7            -3.1113    -0.4625     1.9333 C.ar    
   8 C8            -4.4380    -0.0378     1.9939 C.ar    
   9 C9            -5.2855    -0.6161     2.9174 C.ar    
  10 N10           -4.8529    -1.5586     3.7356 N.ar    
  11 C11           -3.6045    -1.9867     3.7083 C.ar    
  12 C12           -2.6971    -1.4641     2.8114 C.ar    
  13 C13            1.1293     2.1740     0.0030 C.2     
  14 C14            1.0857     3.6803     0.0115 C.3     
  15 O15            2.1967     1.5983    -0.0103 O.2     
  16 C16            2.4763     4.3407     0.0017 C.3     
  17 N17            1.9076     5.2908    -0.9739 N.am    
  18 C18            0.8907     4.3026    -1.3830 C.3     
  19 S19            2.2664     6.8425    -1.4275 S.o2    
  20 C20            3.4250     6.7442    -2.7514 C.ar    
  21 C21            3.0848     7.1830    -3.9953 C.ar    
  22 C22            3.9890     7.1132    -5.0537 C.ar    
  23 C23            5.2397     6.6045    -4.8776 C.ar    
  24 C24            5.6262     6.1425    -3.6096 C.ar    
  25 C25            4.7065     6.2190    -2.5314 C.ar    
  26 C26            6.9020     5.6080    -3.3674 C.ar    
  27 N27            7.2177     5.1886    -2.1646 N.ar    
  28 C28            6.3762     5.2438    -1.1412 C.ar    
  29 C29            5.1184     5.7492    -1.2709 C.ar    
  30 O30            1.0740     7.3858    -1.9773 O.2     
  31 O31            2.9563     7.4310    -0.3334 O.2     
  32 Cl32          -6.9401    -0.0979     3.0049 Cl      
  33 H33           -0.3778    -0.3702    -0.9518 H       
  34 H34            1.0222    -0.3573     0.1529 H       
  35 H35           -0.9764    -1.5943     1.0812 H       
  36 H36           -0.4527    -0.2298     2.0980 H       
  37 H37           -3.1723     1.9669     1.1212 H       
  38 H38           -1.7078     1.8056     2.1209 H       
  39 H39           -1.1798     3.2121     0.2008 H       
  40 H40           -1.8275     1.9859    -0.9206 H       
  41 H41           -4.7973     0.7329     1.3280 H       
  42 H42           -3.2908    -2.7591     4.3949 H       
  43 H43           -1.6774    -1.8195     2.7945 H       
  44 H44            0.4145     4.0817     0.7708 H       
  45 H45            2.7518     4.7987     0.9517 H       
  46 H46            3.2612     3.7060    -0.4094 H       
  47 H47            1.2098     3.6567    -2.2009 H       
  48 H48           -0.0998     4.7302    -1.5387 H       
  49 H49            2.0992     7.5910    -4.1640 H       
  50 H50            3.6925     7.4680    -6.0297 H       
  51 H51            5.9293     6.5565    -5.7074 H       
  52 H52            7.6220     5.5418    -4.1697 H       
  53 H53            6.6990     4.8812    -0.1764 H       
  54 H54            4.4490     5.7849    -0.4241 H       
@<TRIPOS>BOND
   1    1    2 1
   2    1   13 am
   3    1    6 1
   4    2    3 1
   5    2   33 1
   6    2   34 1
   7    3    4 1
   8    3   35 1
   9    3   36 1
  10    4    5 1
  11    4    7 1
  12    5    6 1
  13    5   37 1
  14    5   38 1
  15    6   39 1
  16    6   40 1
  17    7    8 ar
  18    7   12 ar
  19    8    9 ar
  20    8   41 1
  21    9   10 ar
  22    9   32 1
  23   10   11 ar
  24   11   12 ar
  25   11   42 1
  26   12   43 1
  27   13   14 1
  28   13   15 2
  29   14   16 1
  30   14   18 1
  31   14   44 1
  32   16   17 1
  33   16   45 1
  34   16   46 1
  35   17   18 1
  36   17   19 am
  37   18   47 1
  38   18   48 1
  39   19   20 1
  40   19   30 2
  41   19   31 2
  42   20   21 ar
  43   20   25 ar
  44   21   22 ar
  45   21   49 1
  46   22   23 ar
  47   22   50 1
  48   23   24 ar
  49   23   51 1
  50   24   25 ar
  51   24   26 ar
  52   25   29 ar
  53   26   27 ar
  54   26   52 1
  55   27   28 ar
  56   28   29 ar
  57   28   53 1
  58   29   54 1

#	End of record

