#	Name: ASD01880182
#	Creating user name:	WinNT
#	Creation time:	15. 06. 2019 19:40

#	Modifying user name:	WinNT
#	Modification time:	15. 06. 2019 19:40

#	Program:	/corina/corina34_cracker 3.40 0067  02.08.2006

@<TRIPOS>MOLECULE
ASD01880182
  63   66    0    0    0
SMALL
NO_CHARGES


@<TRIPOS>ATOM
   1 C1            -0.0166     1.3765     0.0096 C.ar    
   2 C2             0.0021    -0.0041     0.0020 C.ar    
   3 C3            -1.1907    -0.7221     0.0090 C.ar    
   4 C4            -2.4029    -0.0685     0.0241 C.ar    
   5 C5            -2.4432     1.3214     0.0324 C.ar    
   6 C6            -1.2399     2.0497     0.0307 C.ar    
   7 O7             1.1904    -0.6651    -0.0128 O.3     
   8 C8             1.1383    -2.0932    -0.0200 C.3     
   9 C9             5.0632    -6.8348    -0.0828 C.ar    
  10 C10            5.0833    -8.2234    -0.0904 C.ar    
  11 C11            6.2858    -8.8968    -0.1108 C.ar    
  12 C12            7.4840    -8.1815    -0.1241 C.ar    
  13 C13            7.4599    -6.7862    -0.1169 C.ar    
  14 C14            6.2536    -6.1196    -0.0961 C.ar    
  15 C15            8.7766    -8.9006    -0.1455 C.2     
  16 N16            8.9461   -10.2063    -0.1544 N.2     
  17 N17           10.1967   -10.4971    -0.1734 N.2     
  18 N18           10.9080    -9.4223    -0.1781 N.2     
  19 N19           10.0113    -8.3396    -0.1656 N.pl3   
  20 N20           -3.4727     2.2388     0.0479 N.pl3   
  21 C21           -2.9636     3.5085     0.0509 C.2     
  22 C22           -1.6219     3.4639     0.0416 C.2     
  23 C23           -4.8988     1.9036     0.0596 C.3     
  24 C24            2.5612    -2.6553    -0.0366 C.3     
  25 C25            3.9283    -4.7464    -0.0608 C.3     
  26 O26            3.8763    -6.1745    -0.0680 O.3     
  27 C27           -5.5483     2.4813     1.3187 C.3     
  28 C28            2.5055    -4.1843    -0.0442 C.3     
  29 C29            1.2754     2.1522     0.0014 C.3     
  30 C30            1.6989     2.4224    -1.4437 C.3     
  31 C31            3.0106     3.2099    -1.4520 C.3     
  32 C32           -5.5723     2.4967    -1.1796 C.3     
  33 H33           -1.1652    -1.8018     0.0023 H       
  34 H34           -3.3221    -0.6355     0.0290 H       
  35 H35            0.6201    -2.4423     0.8731 H       
  36 H36            0.6032    -2.4328    -0.9068 H       
  37 H37            4.1557    -8.7763    -0.0801 H       
  38 H38            6.3008    -9.9767    -0.1160 H       
  39 H39            8.3852    -6.2294    -0.1268 H       
  40 H40            6.2342    -5.0398    -0.0904 H       
  41 H41           10.2290    -7.3943    -0.1658 H       
  42 H42           -3.5537     4.4130     0.0622 H       
  43 H43           -0.9512     4.3104     0.0418 H       
  44 H44           -5.0174     0.8201     0.0540 H       
  45 H45            3.0795    -2.3062    -0.9296 H       
  46 H46            3.0964    -2.3157     0.8502 H       
  47 H47            4.4635    -4.4068     0.8260 H       
  48 H48            4.4466    -4.3973    -0.9539 H       
  49 H49           -5.4296     3.5648     1.3243 H       
  50 H50           -6.6093     2.2319     1.3274 H       
  51 H51           -5.0685     2.0587     2.2015 H       
  52 H52            1.9872    -4.5334     0.8488 H       
  53 H53            1.9703    -4.5239    -0.9310 H       
  54 H54            1.1338     3.0995     0.5217 H       
  55 H55            2.0498     1.5734     0.5048 H       
  56 H56            1.8405     1.4752    -1.9640 H       
  57 H57            0.9244     3.0012    -1.9471 H       
  58 H58            3.7850     2.6312    -0.9487 H       
  59 H59            3.3123     3.4025    -2.4816 H       
  60 H60            2.8690     4.1572    -0.9317 H       
  61 H61           -5.1096     2.0851    -2.0766 H       
  62 H62           -6.6333     2.2473    -1.1709 H       
  63 H63           -5.4537     3.5802    -1.1741 H       
@<TRIPOS>BOND
   1    1    2 ar
   2    1   29 1
   3    1    6 ar
   4    2    3 ar
   5    2    7 1
   6    3    4 ar
   7    3   33 1
   8    4    5 ar
   9    4   34 1
  10    5    6 ar
  11    5   20 1
  12    6   22 1
  13    7    8 1
  14    8   24 1
  15    8   35 1
  16    8   36 1
  17    9   10 ar
  18    9   14 ar
  19    9   26 1
  20   10   11 ar
  21   10   37 1
  22   11   12 ar
  23   11   38 1
  24   12   13 ar
  25   12   15 1
  26   13   14 ar
  27   13   39 1
  28   14   40 1
  29   15   16 2
  30   15   19 1
  31   16   17 1
  32   17   18 2
  33   18   19 1
  34   19   41 1
  35   20   21 1
  36   20   23 1
  37   21   22 2
  38   21   42 1
  39   22   43 1
  40   23   27 1
  41   23   32 1
  42   23   44 1
  43   24   28 1
  44   24   45 1
  45   24   46 1
  46   25   26 1
  47   25   28 1
  48   25   47 1
  49   25   48 1
  50   27   49 1
  51   27   50 1
  52   27   51 1
  53   28   52 1
  54   28   53 1
  55   29   30 1
  56   29   54 1
  57   29   55 1
  58   30   31 1
  59   30   56 1
  60   30   57 1
  61   31   58 1
  62   31   59 1
  63   31   60 1
  64   32   61 1
  65   32   62 1
  66   32   63 1

#	End of record

