#	Name: ASD04880234
#	Creating user name:	WinNT
#	Creation time:	15. 06. 2019 20:53

#	Modifying user name:	WinNT
#	Modification time:	15. 06. 2019 20:53

#	Program:	/corina/corina34_cracker 3.40 0067  02.08.2006

@<TRIPOS>MOLECULE
ASD04880234
  30   32    0    0    0
SMALL
NO_CHARGES


@<TRIPOS>ATOM
   1 C1            -0.0112     1.3873     0.0520 C.ar    
   2 C2             1.1765     2.0951     0.0837 C.ar    
   3 C3             2.3833     1.4267     0.0554 C.ar    
   4 C4             2.4051     0.0324    -0.0053 C.ar    
   5 C5             1.2039    -0.6781    -0.0372 C.ar    
   6 C6             0.0020     0.0027    -0.0083 C.ar    
   7 C7             3.6948    -0.6888    -0.0364 C.2     
   8 N8             4.8489    -0.0014    -0.1454 N.am    
   9 O9             3.7146    -1.9026     0.0365 O.2     
  10 N10            4.9573     1.3730    -0.3478 N.2     
  11 C11            6.1736     1.8002    -0.4191 C.2     
  12 C12            7.1266     0.6379    -0.2553 C.3     
  13 C13            6.1998    -0.5789    -0.0638 C.3     
  14 C14            6.5697     3.1977    -0.6274 C.2     
  15 N15            7.8560     3.6888    -0.7091 N.pl3   
  16 C16            7.7595     5.0215    -0.9042 C.2     
  17 N17            6.4974     5.3573    -0.9442 N.2     
  18 C18            5.7378     4.2696    -0.7848 C.2     
  19 F19           -1.1621    -0.6823    -0.0390 F       
  20 H20           -0.9529     1.9154     0.0789 H       
  21 H21            1.1594     3.1740     0.1304 H       
  22 H22            3.3095     1.9815     0.0799 H       
  23 H23            1.2141    -1.7570    -0.0846 H       
  24 H24            7.7409     0.5185    -1.1479 H       
  25 H25            7.7534     0.7786     0.6252 H       
  26 H26            6.3679    -1.0394     0.9097 H       
  27 H27            6.3494    -1.3044    -0.8633 H       
  28 H28            8.6752     3.1740    -0.6395 H       
  29 H29            8.5922     5.7010    -1.0102 H       
  30 H30            4.6582     4.2436    -0.7745 H       
@<TRIPOS>BOND
   1    1    2 ar
   2    1    6 ar
   3    1   20 1
   4    2    3 ar
   5    2   21 1
   6    3    4 ar
   7    3   22 1
   8    4    5 ar
   9    4    7 1
  10    5    6 ar
  11    5   23 1
  12    6   19 1
  13    7    8 am
  14    7    9 2
  15    8   10 1
  16    8   13 1
  17   10   11 2
  18   11   12 1
  19   11   14 1
  20   12   13 1
  21   12   24 1
  22   12   25 1
  23   13   26 1
  24   13   27 1
  25   14   15 1
  26   14   18 2
  27   15   16 1
  28   15   28 1
  29   16   17 2
  30   16   29 1
  31   17   18 1
  32   18   30 1

#	End of record

