#	Name: ASD08150725
#	Creating user name:	WinNT
#	Creation time:	15. 06. 2019 21:16

#	Modifying user name:	WinNT
#	Modification time:	15. 06. 2019 21:16

#	Program:	/corina/corina34_cracker 3.40 0067  02.08.2006

@<TRIPOS>MOLECULE
ASD08150725
  34   36    0    0    0
SMALL
NO_CHARGES


@<TRIPOS>ATOM
   1 C1            -0.0738     1.1912     0.0648 C.2     
   2 N2             0.0867    -0.1197     0.1109 N.2     
   3 C3             1.2860    -0.6767     0.0449 C.2     
   4 C4             2.4052     0.1434    -0.0762 C.2     
   5 C5             2.2265     1.5389    -0.1247 C.2     
   6 N6             0.9670     2.0611    -0.0525 N.am    
   7 S7            -1.5355     2.1925     0.1235 S.3     
   8 C8             0.6231     3.3898    -0.0862 C.2     
   9 C9            -0.6531     3.7237    -0.0064 C.2     
  10 O10            3.1916     2.2775    -0.2301 O.2     
  11 C11            3.7612    -0.4431    -0.1523 C.ar    
  12 C12            4.5319    -0.2591    -1.3013 C.ar    
  13 C13            5.7973    -0.8135    -1.3571 C.ar    
  14 C14            6.2542    -1.5355    -0.2620 C.ar    
  15 C15            5.4389    -1.6791     0.8441 C.ar    
  16 N16            4.2381    -1.1362     0.8753 N.ar    
  17 C17            1.6849     4.4516    -0.2133 C.3     
  18 C18            1.4379    -2.1750     0.1004 C.3     
  19 C19            1.0282    -2.6781     1.4860 C.3     
  20 N20            0.5785    -2.7923    -0.9186 N.3     
  21 H21           -1.0705     4.7197    -0.0214 H       
  22 H22            4.1453     0.3081    -2.1351 H       
  23 H23            6.4166    -0.6882    -2.2329 H       
  24 H24            7.2380    -1.9811    -0.2753 H       
  25 H25            5.7919    -2.2403     1.6966 H       
  26 H26            1.8641     4.6618    -1.2677 H       
  27 H27            1.3512     5.3608     0.2868 H       
  28 H28            2.6073     4.1002     0.2490 H       
  29 H29            2.4772    -2.4421    -0.0905 H       
  30 H30            1.6659    -2.2200     2.2421 H       
  31 H31           -0.0111    -2.4109     1.6769 H       
  32 H32            1.1380    -3.7618     1.5262 H       
  33 H33            0.6625    -3.7977    -0.9015 H       
  34 H34           -0.3825    -2.5077    -0.8018 H       
@<TRIPOS>BOND
   1    1    2 2
   2    1    6 1
   3    1    7 1
   4    2    3 1
   5    3    4 2
   6    3   18 1
   7    4    5 1
   8    4   11 1
   9    5    6 am
  10    5   10 2
  11    6    8 1
  12    7    9 1
  13    8    9 2
  14    8   17 1
  15    9   21 1
  16   11   12 ar
  17   11   16 ar
  18   12   13 ar
  19   12   22 1
  20   13   14 ar
  21   13   23 1
  22   14   15 ar
  23   14   24 1
  24   15   16 ar
  25   15   25 1
  26   17   26 1
  27   17   27 1
  28   17   28 1
  29   18   19 1
  30   18   20 1
  31   18   29 1
  32   19   30 1
  33   19   31 1
  34   19   32 1
  35   20   33 1
  36   20   34 1

#	End of record

