#	Name: ASD01840004
#	Creating user name:	WinNT
#	Creation time:	15. 06. 2019 19:37

#	Modifying user name:	WinNT
#	Modification time:	15. 06. 2019 19:37

#	Program:	/corina/corina34_cracker 3.40 0067  02.08.2006

@<TRIPOS>MOLECULE
ASD01840004
  38   40    0    0    0
SMALL
NO_CHARGES


@<TRIPOS>ATOM
   1 C1             0.3111     1.8324    -1.1085 C.ar    
   2 C2             0.4576     0.6442    -1.7903 C.ar    
   3 C3             1.6332    -0.0805    -1.6522 C.ar    
   4 N4             2.6069     0.3477    -0.8833 N.ar    
   5 C5             1.3698     2.2782    -0.2850 C.ar    
   6 C6             1.4605     3.4808     0.5259 C.2     
   7 C7             2.5234     1.4913    -0.1978 C.ar    
   8 S8             3.6903     2.2481     0.8802 S.3     
   9 C9             2.6298     3.6058     1.2008 C.2     
  10 Cl10          -0.8173     0.0583    -2.8125 Cl      
  11 C11           -0.9513     2.6443    -1.2432 C.3     
  12 N12            0.4405     4.4189     0.6023 N.pl3   
  13 C13            2.9514     4.6907     2.0544 C.2     
  14 O14            2.1506     5.5930     2.2203 O.2     
  15 N15            4.1434     4.7237     2.6824 N.am    
  16 C16            4.4757     5.8451     3.5647 C.3     
  17 C17            5.8546     5.6419     4.1377 C.ar    
  18 C18            6.0342     4.9540     5.3281 C.ar    
  19 C19            6.9743     6.1333     3.4841 C.ar    
  20 C20            8.2229     5.9272     4.0396 C.ar    
  21 N21            8.3557     5.2721     5.1763 N.ar    
  22 C22            7.3138     4.7868     5.8228 C.ar    
  23 C23            1.7942    -1.3805    -2.3972 C.3     
  24 H24           -1.6215     2.4141    -0.4150 H       
  25 H25           -0.7041     3.7058    -1.2263 H       
  26 H26           -1.4413     2.4004    -2.1858 H       
  27 H27           -0.4722     4.1605     0.3997 H       
  28 H28            0.6403     5.3329     0.8583 H       
  29 H29            4.7813     4.0050     2.5503 H       
  30 H30            4.4521     6.7745     2.9956 H       
  31 H31            3.7493     5.8970     4.3756 H       
  32 H32            5.1849     4.5542     5.8621 H       
  33 H33            6.8721     6.6700     2.5525 H       
  34 H34            9.1001     6.3068     3.5367 H       
  35 H35            7.4622     4.2522     6.7494 H       
  36 H36            2.2388    -1.1873    -3.3734 H       
  37 H37            2.4421    -2.0474    -1.8284 H       
  38 H38            0.8179    -1.8473    -2.5286 H       
@<TRIPOS>BOND
   1    1    2 ar
   2    1    5 ar
   3    1   11 1
   4    2    3 ar
   5    2   10 1
   6    3    4 ar
   7    3   23 1
   8    4    7 ar
   9    5    7 ar
  10    5    6 1
  11    6    9 2
  12    6   12 1
  13    7    8 1
  14    8    9 1
  15    9   13 1
  16   11   24 1
  17   11   25 1
  18   11   26 1
  19   12   27 1
  20   12   28 1
  21   13   14 2
  22   13   15 am
  23   15   16 1
  24   15   29 1
  25   16   17 1
  26   16   30 1
  27   16   31 1
  28   17   19 ar
  29   17   18 ar
  30   18   22 ar
  31   18   32 1
  32   19   20 ar
  33   19   33 1
  34   20   21 ar
  35   20   34 1
  36   21   22 ar
  37   22   35 1
  38   23   36 1
  39   23   37 1
  40   23   38 1

#	End of record

