#	Name: ASD03082077
#	Creating user name:	WinNT
#	Creation time:	15. 06. 2019 20:27

#	Modifying user name:	WinNT
#	Modification time:	15. 06. 2019 20:27

#	Program:	/corina/corina34_cracker 3.40 0067  02.08.2006

@<TRIPOS>MOLECULE
ASD03082077
  73   77    0    0    0
SMALL
NO_CHARGES


@<TRIPOS>ATOM
   1 C1            -0.0176     1.4478     0.0100 C.3     
   2 O2             0.0021    -0.0041     0.0020 O.3     
   3 C3            -1.1901    -0.6321     0.0100 C.2     
   4 C4            -1.2473    -2.1054     0.0027 C.ar    
   5 O5            -2.2179     0.0157     0.0233 O.2     
   6 C6            -0.0682    -2.8542    -0.0126 C.ar    
   7 C7            -0.1286    -4.2314    -0.0190 C.ar    
   8 C8            -1.3536    -4.8776    -0.0103 C.ar    
   9 C9            -2.5275    -4.1501     0.0044 C.ar    
  10 C10           -2.4861    -2.7636     0.0168 C.ar    
  11 C11            1.4178     1.9774    -0.0009 C.3     
  12 C12            2.0960     1.5891    -1.3176 C.3     
  13 C13            3.5108     2.1738    -1.3457 C.3     
  14 C14            3.4332     3.6929    -1.1776 C.3     
  15 N15            2.7773     4.0127     0.0968 N.3     
  16 C16            1.4008     3.5022     0.1283 C.3     
  17 C17            2.8087     5.4582     0.3568 C.3     
  18 C18            1.9534     6.1825    -0.6846 C.3     
  19 O19            0.5856     5.7997    -0.5273 O.3     
  20 C20           -0.3132     6.3572    -1.3807 C.ar    
  21 C21           -1.6555     6.0299    -1.2835 C.ar    
  22 C22           -2.5735     6.6033    -2.1600 C.ar    
  23 C23           -2.1363     7.5031    -3.1299 C.ar    
  24 C24           -0.7964     7.8238    -3.2199 C.ar    
  25 C25            0.1134     7.2589    -2.3463 C.ar    
  26 N26           -3.6720    -2.0264     0.0316 N.am    
  27 C27           -4.2797    -1.6543     1.1650 C.2     
  28 C28           -5.5313    -0.8745     0.8260 C.3     
  29 C29           -5.5418    -0.8604    -0.7162 C.3     
  30 C30           -4.2919    -1.6288    -1.0864 C.2     
  31 C31           -6.7727    -1.5872     1.3664 C.3     
  32 O32           -3.8892    -1.9029     2.2854 O.2     
  33 O33           -3.9154    -1.8548    -2.2163 O.2     
  34 C34           -4.0130     6.2566    -2.0615 C.ar    
  35 C35           -4.9318     6.8300    -2.9381 C.ar    
  36 C36           -6.2694     6.5036    -2.8423 C.ar    
  37 C37           -6.6984     5.6091    -1.8784 C.ar    
  38 C38           -5.7906     5.0373    -1.0053 C.ar    
  39 C39           -4.4499     5.3522    -1.0958 C.ar    
  40 H40           -0.5448     1.8089    -0.8731 H       
  41 H41           -0.5278     1.7993     0.9068 H       
  42 H42            0.8894    -2.3549    -0.0198 H       
  43 H43            0.7837    -4.8092    -0.0311 H       
  44 H44           -1.3911    -5.9569    -0.0153 H       
  45 H45           -3.4788    -4.6614     0.0104 H       
  46 H46            1.9708     1.5470     0.8341 H       
  47 H47            2.1491     0.5030    -1.3936 H       
  48 H48            1.5211     1.9860    -2.1543 H       
  49 H49            4.0972     1.7471    -0.5319 H       
  50 H50            3.9837     1.9368    -2.2988 H       
  51 H51            4.4399     4.1108    -1.1828 H       
  52 H52            2.8584     4.1203    -1.9992 H       
  53 H53            0.8355     3.9305    -0.6994 H       
  54 H54            0.9313     3.7816     1.0715 H       
  55 H55            2.4137     5.6568     1.3531 H       
  56 H56            3.8365     5.8161     0.2955 H       
  57 H57            2.0474     7.2596    -0.5465 H       
  58 H58            2.2932     5.9133    -1.6847 H       
  59 H59           -1.9894     5.3317    -0.5302 H       
  60 H60           -2.8454     7.9494    -3.8114 H       
  61 H61           -0.4589     8.5212    -3.9724 H       
  62 H62            1.1605     7.5132    -2.4204 H       
  63 H63           -5.4691     0.1405     1.2185 H       
  64 H64           -6.4313    -1.3611    -1.0984 H       
  65 H65           -5.4847     0.1616    -1.0909 H       
  66 H66           -6.7084    -1.6557     2.4523 H       
  67 H67           -7.6641    -1.0241     1.0899 H       
  68 H68           -6.8299    -2.5895     0.9418 H       
  69 H69           -4.5980     7.5287    -3.6909 H       
  70 H70           -6.9826     6.9476    -3.5211 H       
  71 H71           -7.7460     5.3565    -1.8070 H       
  72 H72           -6.1310     4.3400    -0.2541 H       
  73 H73           -3.7419     4.9049    -0.4139 H       
@<TRIPOS>BOND
   1    1    2 1
   2    1   11 1
   3    1   40 1
   4    1   41 1
   5    2    3 1
   6    3    4 1
   7    3    5 2
   8    4    6 ar
   9    4   10 ar
  10    6    7 ar
  11    6   42 1
  12    7    8 ar
  13    7   43 1
  14    8    9 ar
  15    8   44 1
  16    9   10 ar
  17    9   45 1
  18   10   26 1
  19   11   12 1
  20   11   16 1
  21   11   46 1
  22   12   13 1
  23   12   47 1
  24   12   48 1
  25   13   14 1
  26   13   49 1
  27   13   50 1
  28   14   15 1
  29   14   51 1
  30   14   52 1
  31   15   16 1
  32   15   17 1
  33   16   53 1
  34   16   54 1
  35   17   18 1
  36   17   55 1
  37   17   56 1
  38   18   19 1
  39   18   57 1
  40   18   58 1
  41   19   20 1
  42   20   21 ar
  43   20   25 ar
  44   21   22 ar
  45   21   59 1
  46   22   23 ar
  47   22   34 1
  48   23   24 ar
  49   23   60 1
  50   24   25 ar
  51   24   61 1
  52   25   62 1
  53   26   27 am
  54   26   30 am
  55   27   28 1
  56   27   32 2
  57   28   29 1
  58   28   31 1
  59   28   63 1
  60   29   30 1
  61   29   64 1
  62   29   65 1
  63   30   33 2
  64   31   66 1
  65   31   67 1
  66   31   68 1
  67   34   35 ar
  68   34   39 ar
  69   35   36 ar
  70   35   69 1
  71   36   37 ar
  72   36   70 1
  73   37   38 ar
  74   37   71 1
  75   38   39 ar
  76   38   72 1
  77   39   73 1

#	End of record

