#	Name: ASD04170017
#	Creating user name:	WinNT
#	Creation time:	15. 06. 2019 20:48

#	Modifying user name:	WinNT
#	Modification time:	15. 06. 2019 20:48

#	Program:	/corina/corina34_cracker 3.40 0067  02.08.2006

@<TRIPOS>MOLECULE
ASD04170017
  36   38    0    0    0
SMALL
NO_CHARGES


@<TRIPOS>ATOM
   1 F1             0.0021    -0.0041     0.0020 F       
   2 C2            -0.0162     1.3468     0.0094 C.ar    
   3 C3             1.1746     2.0548     0.0019 C.ar    
   4 C4             1.1635     3.4382     0.0094 C.ar    
   5 C5            -0.0346     4.1218     0.0250 C.ar    
   6 C6            -1.2387     3.4157     0.0327 C.ar    
   7 C7            -1.2230     2.0205     0.0188 C.ar    
   8 C8            -2.5257     4.1433     0.0498 C.2     
   9 O9            -2.5367     5.3588     0.0572 O.2     
  10 N10           -3.6867     3.4589     0.0572 N.am    
  11 C11           -4.9619     4.1799     0.0742 C.3     
  12 C12           -5.3607     4.5502    -1.3561 C.3     
  13 N13           -6.6468     3.9355    -1.6933 N.4     
  14 C14           -7.7017     4.4248    -0.8026 C.3     
  15 C15           -7.3805     4.0496     0.6459 C.3     
  16 C16           -6.0518     3.2827     0.6754 C.3     
  17 C17           -6.1936     2.0357    -0.2073 C.3     
  18 C18           -6.5530     2.4751    -1.6284 C.3     
  19 H19            2.1155     1.5247    -0.0096 H       
  20 H20            2.0952     3.9844     0.0035 H       
  21 H21           -0.0409     5.2018     0.0316 H       
  22 H22           -2.1512     1.4685     0.0247 H       
  23 H23           -3.6780     2.4890     0.0513 H       
  24 H24           -4.8613     5.0860     0.6716 H       
  25 H25           -5.4450     5.6338    -1.4390 H       
  26 H26           -4.5973     4.1945    -2.0480 H       
  27 H27           -6.8844     4.1911    -2.6400 H       
  28 H28           -7.7729     5.5092    -0.8879 H       
  29 H29           -8.6535     3.9778    -1.0894 H       
  30 H30           -7.2934     4.9547     1.2470 H       
  31 H31           -8.1752     3.4190     1.0446 H       
  32 H32           -5.7952     3.0112     1.6994 H       
  33 H33           -5.2507     1.4891    -0.2214 H       
  34 H34           -6.9829     1.3962     0.1880 H       
  35 H35           -7.5109     2.0382    -1.9106 H       
  36 H36           -5.7830     2.1311    -2.3190 H       
@<TRIPOS>BOND
   1    1    2 1
   2    2    3 ar
   3    2    7 ar
   4    3    4 ar
   5    3   19 1
   6    4    5 ar
   7    4   20 1
   8    5    6 ar
   9    5   21 1
  10    6    7 ar
  11    6    8 1
  12    7   22 1
  13    8    9 2
  14    8   10 am
  15   10   11 1
  16   10   23 1
  17   11   12 1
  18   11   16 1
  19   11   24 1
  20   12   13 1
  21   12   25 1
  22   12   26 1
  23   13   14 1
  24   13   18 1
  25   13   27 1
  26   14   15 1
  27   14   28 1
  28   14   29 1
  29   15   16 1
  30   15   30 1
  31   15   31 1
  32   16   17 1
  33   16   32 1
  34   17   18 1
  35   17   33 1
  36   17   34 1
  37   18   35 1
  38   18   36 1

#	End of record

