#	Name: ASD05613001
#	Creating user name:	WinNT
#	Creation time:	15. 06. 2019 21:01

#	Modifying user name:	WinNT
#	Modification time:	15. 06. 2019 21:01

#	Program:	/corina/corina34_cracker 3.40 0067  02.08.2006

@<TRIPOS>MOLECULE
ASD05613001
  31   33    0    0    0
SMALL
NO_CHARGES


@<TRIPOS>ATOM
   1 C1            -0.0167     1.3837     0.0096 C.ar    
   2 C2             0.0021    -0.0041     0.0020 C.ar    
   3 C3             1.1967    -0.6906    -0.0126 C.ar    
   4 C4             2.3970     0.0119    -0.0203 C.ar    
   5 C5             2.3725     1.4187    -0.0129 C.ar    
   6 C6             1.1508     2.0939     0.0023 C.ar    
   7 N7             3.7195    -0.3711    -0.0350 N.pl3   
   8 C8             4.5243     0.7355    -0.0372 C.2     
   9 C9             3.7731     1.8479    -0.0243 C.2     
  10 C10            4.2753     3.2687    -0.0220 C.3     
  11 C11            4.3401     3.7844     1.4170 C.3     
  12 N12            5.3638     3.0537     2.1838 N.am    
  13 C13            6.2750     3.9635     2.5734 C.2     
  14 N14            5.9744     5.1988     2.1566 N.am    
  15 C15            4.8283     5.2191     1.4479 C.2     
  16 S16            7.6640     3.5831     3.4991 S.2     
  17 O17            4.2985     6.1841     0.9399 O.2     
  18 C18            6.7900     6.3831     2.4367 C.3     
  19 H19           -0.9617     1.9065     0.0169 H       
  20 H20           -0.9290    -0.5514     0.0080 H       
  21 H21            1.2009    -1.7706    -0.0177 H       
  22 H22            1.1284     3.1736     0.0080 H       
  23 H23            4.0338    -1.2888    -0.0423 H       
  24 H24            5.6041     0.7167    -0.0474 H       
  25 H25            5.2705     3.3031    -0.4654 H       
  26 H26            3.5973     3.8947    -0.6022 H       
  27 H27            3.3659     3.6979     1.8983 H       
  28 H28            5.3779     2.1022     2.3717 H       
  29 H29            7.6600     6.0940     3.0262 H       
  30 H30            7.1189     6.8281     1.4976 H       
  31 H31            6.1977     7.1084     2.9946 H       
@<TRIPOS>BOND
   1    1    2 ar
   2    1    6 ar
   3    1   19 1
   4    2    3 ar
   5    2   20 1
   6    3    4 ar
   7    3   21 1
   8    4    5 ar
   9    4    7 1
  10    5    6 ar
  11    5    9 1
  12    6   22 1
  13    7    8 1
  14    7   23 1
  15    8    9 2
  16    8   24 1
  17    9   10 1
  18   10   11 1
  19   10   25 1
  20   10   26 1
  21   11   12 1
  22   11   15 1
  23   11   27 1
  24   12   13 am
  25   12   28 1
  26   13   14 am
  27   13   16 2
  28   14   15 am
  29   14   18 1
  30   15   17 2
  31   18   29 1
  32   18   30 1
  33   18   31 1

#	End of record

