#	Name: ASD02508199
#	Creating user name:	WinNT
#	Creation time:	15. 06. 2019 20:23

#	Modifying user name:	WinNT
#	Modification time:	15. 06. 2019 20:23

#	Program:	/corina/corina34_cracker 3.40 0067  02.08.2006

@<TRIPOS>MOLECULE
ASD02508199
  54   57    0    0    0
SMALL
NO_CHARGES


@<TRIPOS>ATOM
   1 C1             0.3954     0.5587     0.3491 C.ar    
   2 C2             0.1334    -0.7889     0.1035 C.ar    
   3 C3            -1.1780    -1.2308     0.0243 C.ar    
   4 C4            -2.2175    -0.3363     0.1887 C.ar    
   5 C5            -1.9564     1.0010     0.4320 C.ar    
   6 C6            -0.6529     1.4497     0.5181 C.ar    
   7 S7            -3.8838    -0.9002     0.0877 S.o2    
   8 N8            -4.5762    -0.6516     1.5713 N.am    
   9 C9            -5.4250     0.5613     1.8244 C.3     
  10 N10            1.7830     0.6971     0.3728 N.am    
  11 C11            2.3154    -0.5209     0.1499 C.2     
  12 O12            1.3292    -1.4169    -0.0125 O.3     
  13 O13           -4.5483    -0.0283    -0.8164 O.2     
  14 O14           -3.8206    -2.3080    -0.0949 O.2     
  15 C15            2.5260     1.9393     0.5987 C.3     
  16 O16            3.5047    -0.7695     0.1032 O.2     
  17 C17           -3.0976     1.9693     0.6090 C.3     
  18 C18           -6.8032     0.0880     2.0024 C.3     
  19 N19           -6.9749    -0.8768     3.0872 N.3     
  20 C20           -6.8354    -2.1794     2.4881 C.3     
  21 C21           -5.4135    -2.7381     2.7432 C.3     
  22 C22           -4.3801    -1.5953     2.6360 C.3     
  23 C23           -8.2915    -0.7272     3.7213 C.3     
  24 C24           -8.5316    -1.8822     4.6590 C.ar    
  25 C25           -8.1411    -1.7912     5.9819 C.ar    
  26 C26           -9.1473    -3.0307     4.1976 C.ar    
  27 C27           -9.3675    -4.0902     5.0577 C.ar    
  28 C28           -8.9716    -4.0014     6.3792 C.ar    
  29 C29           -8.3613    -2.8507     6.8421 C.ar    
  30 H30           -1.3867    -2.2732    -0.1660 H       
  31 H31           -0.4510     2.4934     0.7084 H       
  32 H32           -5.0868     1.0706     2.7269 H       
  33 H33           -5.3710     1.2380     0.9716 H       
  34 H34            2.7114     2.0628     1.6657 H       
  35 H35            3.4767     1.8957     0.0673 H       
  36 H36            1.9427     2.7835     0.2311 H       
  37 H37           -3.4417     1.9402     1.6428 H       
  38 H38           -2.7600     2.9769     0.3666 H       
  39 H39           -3.9164     1.6910    -0.0544 H       
  40 H40           -7.4416     0.9489     2.2009 H       
  41 H41           -7.1327    -0.3752     1.0723 H       
  42 H42           -7.5721    -2.8563     2.9206 H       
  43 H43           -7.0058    -2.1029     1.4142 H       
  44 H44           -5.3696    -3.1765     3.7401 H       
  45 H45           -5.1859    -3.5031     2.0009 H       
  46 H46           -3.3930    -2.0410     2.5133 H       
  47 H47           -4.3835    -1.0455     3.5772 H       
  48 H48           -8.3211     0.2075     4.2812 H       
  49 H49           -9.0653    -0.7155     2.9537 H       
  50 H50           -7.6638    -0.8924     6.3434 H       
  51 H51           -9.4566    -3.1000     3.1651 H       
  52 H52           -9.8492    -4.9871     4.6974 H       
  53 H53           -9.1440    -4.8291     7.0513 H       
  54 H54           -8.0520    -2.7813     7.8745 H       
@<TRIPOS>BOND
   1    1    2 ar
   2    1   10 1
   3    1    6 ar
   4    2    3 ar
   5    2   12 1
   6    3    4 ar
   7    3   30 1
   8    4    5 ar
   9    4    7 1
  10    5    6 ar
  11    5   17 1
  12    6   31 1
  13    7    8 am
  14    7   13 2
  15    7   14 2
  16    8    9 1
  17    8   22 1
  18    9   18 1
  19    9   32 1
  20    9   33 1
  21   10   11 am
  22   10   15 1
  23   11   12 1
  24   11   16 2
  25   15   34 1
  26   15   35 1
  27   15   36 1
  28   17   37 1
  29   17   38 1
  30   17   39 1
  31   18   19 1
  32   18   40 1
  33   18   41 1
  34   19   20 1
  35   19   23 1
  36   20   21 1
  37   20   42 1
  38   20   43 1
  39   21   22 1
  40   21   44 1
  41   21   45 1
  42   22   46 1
  43   22   47 1
  44   23   24 1
  45   23   48 1
  46   23   49 1
  47   24   25 ar
  48   24   26 ar
  49   25   29 ar
  50   25   50 1
  51   26   27 ar
  52   26   51 1
  53   27   28 ar
  54   27   52 1
  55   28   29 ar
  56   28   53 1
  57   29   54 1

#	End of record

