#	Name: ASD00840810
#	Creating user name:	WinNT
#	Creation time:	15. 06. 2019 18:40

#	Modifying user name:	WinNT
#	Modification time:	15. 06. 2019 18:40

#	Program:	/corina/corina34_cracker 3.40 0067  02.08.2006

@<TRIPOS>MOLECULE
ASD00840810
  94   99    0    0    0
SMALL
NO_CHARGES


@<TRIPOS>ATOM
   1 F1             6.0749    -1.9626    -2.0085 F       
   2 N2             1.1032     1.4620    -0.7004 N.ar    
   3 C3             1.3544     0.1695    -0.8231 C.ar    
   4 C4             1.2593    -0.6774     0.2740 C.ar    
   5 C5             0.8972    -0.1509     1.5014 C.ar    
   6 C6             0.6419     1.2110     1.5884 C.ar    
   7 C7             0.7559     1.9931     0.4567 C.ar    
   8 C8             1.5460    -2.1497     0.1293 C.3     
   9 C9             1.2498    -2.8772     1.4232 C.2     
  10 C10            0.7273    -2.7434    -1.0188 C.3     
  11 C11           -0.7345    -2.4520    -0.7965 C.2     
  12 N12           -1.6589    -2.9678    -1.6307 N.am    
  13 O13           -1.0790    -1.7532     0.1330 O.2     
  14 C14           -3.0789    -2.6075    -1.4995 C.3     
  15 C15           -3.5959    -2.1589    -2.8705 C.3     
  16 N16           -3.3090    -3.2024    -3.8639 N.3     
  17 C17           -1.8626    -3.4061    -4.0202 C.3     
  18 C18           -1.2737    -3.9011    -2.7002 C.3     
  19 C19           -3.9389    -2.8890    -5.1535 C.3     
  20 C20           -3.5174    -3.9293    -6.1950 C.3     
  21 C21           -4.2242    -3.6330    -7.5197 C.3     
  22 N22           -5.6784    -3.6752    -7.3202 N.3     
  23 C23           -6.1124    -2.6531    -6.3593 C.3     
  24 C24           -5.4620    -2.9201    -5.0000 C.3     
  25 C25           -6.3894    -3.5324    -8.5977 C.3     
  26 O26            0.1735    -2.9509     1.9776 O.2     
  27 N27            2.4020    -3.4264     1.8424 N.am    
  28 C28            3.0232    -2.3821    -0.0944 C.ar    
  29 C29            3.4631    -3.1554     0.9751 C.ar    
  30 C30            3.8900    -1.9836    -1.0880 C.ar    
  31 C31            5.2232    -2.3516    -1.0346 C.ar    
  32 C32            5.6834    -3.1289     0.0332 C.ar    
  33 C33            4.8004    -3.5292     1.0356 C.ar    
  34 C34            2.2430    -6.0030     2.7963 C.ar    
  35 C35            0.9889    -6.3877     2.3455 C.ar    
  36 C36            3.2548    -6.9380     2.9014 C.ar    
  37 C37            3.0183    -8.2559     2.5573 C.ar    
  38 C38            1.7688    -8.6419     2.1075 C.ar    
  39 C39            0.7539    -7.7111     2.0011 C.ar    
  40 H40            1.5865    -9.6720     1.8393 H       
  41 O41           -0.0081    -5.4700     2.2417 O.3     
  42 C42           -1.2735    -5.9374     1.7703 C.3     
  43 C43           -7.8920    -3.7055    -8.3672 C.3     
  44 C44           -6.1193    -2.1432    -9.1792 C.3     
  45 C45            7.0610    -3.5143     0.0966 C.1     
  46 N46            8.1540    -3.8201     0.1470 N.1     
  47 S47            2.5476    -4.3220     3.2277 S.o2    
  48 O48            3.9136    -4.2475     3.6120 O.2     
  49 O49            1.4788    -3.9255     4.0760 O.2     
  50 O50            1.7080    -0.3345    -2.0322 O.3     
  51 C51            2.2179    -0.1458    -4.3869 C.3     
  52 C52            1.6799     0.5641    -3.1429 C.3     
  53 H53            0.8148    -0.7850     2.3718 H       
  54 H54            0.3567     1.6537     2.5314 H       
  55 H55            0.5587     3.0531     0.5190 H       
  56 H56            1.0473    -2.2988    -1.9611 H       
  57 H57            0.8813    -3.8219    -1.0551 H       
  58 H58           -3.6465    -3.4738    -1.1597 H       
  59 H59           -3.1852    -1.7926    -0.7835 H       
  60 H60           -4.6720    -1.9936    -2.8172 H       
  61 H61           -3.0993    -1.2333    -3.1615 H       
  62 H62           -1.6816    -4.1452    -4.8006 H       
  63 H63           -1.3901    -2.4631    -4.2952 H       
  64 H64           -0.1872    -3.9439    -2.7772 H       
  65 H65           -1.6668    -4.8919    -2.4725 H       
  66 H66           -3.6250    -1.8979    -5.4809 H       
  67 H67           -2.4381    -3.8825    -6.3400 H       
  68 H68           -3.7959    -4.9246    -5.8486 H       
  69 H69           -3.9345    -2.6432    -7.8725 H       
  70 H70           -3.9373    -4.3804    -8.2595 H       
  71 H71           -5.8139    -1.6679    -6.7175 H       
  72 H72           -7.1969    -2.6887    -6.2563 H       
  73 H73           -5.7711    -3.8995    -4.6348 H       
  74 H74           -5.7721    -2.1523    -4.2911 H       
  75 H75           -6.0389    -4.2928    -9.2956 H       
  76 H76            3.5288    -1.3835    -1.9100 H       
  77 H77            5.1561    -4.1295     1.8599 H       
  78 H78            4.2315    -6.6390     3.2524 H       
  79 H79            3.8107    -8.9851     2.6394 H       
  80 H80           -0.2219    -8.0132     1.6505 H       
  81 H81           -1.1566    -6.3572     0.7712 H       
  82 H82           -1.6515    -6.7054     2.4451 H       
  83 H83           -1.9777    -5.1062     1.7350 H       
  84 H84           -8.0844    -4.6952    -7.9530 H       
  85 H85           -8.2425    -2.9451    -7.6694 H       
  86 H86           -8.4196    -3.5996    -9.3152 H       
  87 H87           -5.0488    -2.0199    -9.3434 H       
  88 H88           -6.6469    -2.0373   -10.1271 H       
  89 H89           -6.4698    -1.3828    -8.4814 H       
  90 H90            3.2104    -0.5446    -4.1770 H       
  91 H91            1.5481    -0.9620    -4.6577 H       
  92 H92            2.2785     0.5636    -5.2124 H       
  93 H93            0.6544     0.8865    -3.3235 H       
  94 H94            2.3005     1.4328    -2.9234 H       
@<TRIPOS>BOND
   1    1   31 1
   2    2    3 ar
   3    2    7 ar
   4    3    4 ar
   5    3   50 1
   6    4    5 ar
   7    4    8 1
   8    5    6 ar
   9    5   53 1
  10    6    7 ar
  11    6   54 1
  12    7   55 1
  13    8    9 1
  14    8   10 1
  15    8   28 1
  16    9   26 2
  17    9   27 am
  18   10   11 1
  19   10   56 1
  20   10   57 1
  21   11   12 am
  22   11   13 2
  23   12   14 1
  24   12   18 1
  25   14   15 1
  26   14   58 1
  27   14   59 1
  28   15   16 1
  29   15   60 1
  30   15   61 1
  31   16   17 1
  32   16   19 1
  33   17   18 1
  34   17   62 1
  35   17   63 1
  36   18   64 1
  37   18   65 1
  38   19   20 1
  39   19   24 1
  40   19   66 1
  41   20   21 1
  42   20   67 1
  43   20   68 1
  44   21   22 1
  45   21   69 1
  46   21   70 1
  47   22   23 1
  48   22   25 1
  49   23   24 1
  50   23   71 1
  51   23   72 1
  52   24   73 1
  53   24   74 1
  54   25   43 1
  55   25   44 1
  56   25   75 1
  57   27   47 am
  58   27   29 1
  59   28   29 ar
  60   28   30 ar
  61   29   33 ar
  62   30   31 ar
  63   30   76 1
  64   31   32 ar
  65   32   33 ar
  66   32   45 1
  67   33   77 1
  68   34   35 ar
  69   34   36 ar
  70   34   47 1
  71   35   41 1
  72   35   39 ar
  73   36   37 ar
  74   36   78 1
  75   37   38 ar
  76   37   79 1
  77   38   39 ar
  78   38   40 1
  79   39   80 1
  80   41   42 1
  81   42   81 1
  82   42   82 1
  83   42   83 1
  84   43   84 1
  85   43   85 1
  86   43   86 1
  87   44   87 1
  88   44   88 1
  89   44   89 1
  90   45   46 3
  91   47   48 2
  92   47   49 2
  93   50   52 1
  94   51   52 1
  95   51   90 1
  96   51   91 1
  97   51   92 1
  98   52   93 1
  99   52   94 1

#	End of record

