#	Name: ASD07301015
#	Creating user name:	WinNT
#	Creation time:	15. 06. 2019 21:10

#	Modifying user name:	WinNT
#	Modification time:	15. 06. 2019 21:10

#	Program:	/corina/corina34_cracker 3.40 0067  02.08.2006

@<TRIPOS>MOLECULE
ASD07301015
  45   47    0    0    0
SMALL
NO_CHARGES


@<TRIPOS>ATOM
   1 C1            -0.0178     1.4649     0.0101 C.2     
   2 C2             0.0021    -0.0041     0.0020 C.2     
   3 C3             1.2770    -0.6367    -0.0136 C.2     
   4 C4             2.3784     0.1588    -0.0198 C.2     
   5 N5             2.2582     1.5097    -0.0114 N.pl3   
   6 N6             1.1291     2.1160     0.0026 N.2     
   7 C7            -1.2972     2.1982     0.0202 C.2     
   8 O8            -2.3476     1.5874     0.0219 O.2     
   9 O9            -1.3014     3.5458     0.0275 O.3     
  10 O10           -1.0316    -0.6549     0.0088 O.2     
  11 O11            1.3889    -1.9916    -0.0215 O.3     
  12 C12            2.7111    -2.5333    -0.0370 C.3     
  13 C13            3.4259     2.2803    -0.0179 C.ar    
  14 C14            3.6356     3.2356     0.9725 C.ar    
  15 C15            4.7897     3.9958     0.9641 C.ar    
  16 C16            5.7380     3.8062    -0.0312 C.ar    
  17 C17            5.5287     2.8537    -1.0186 C.ar    
  18 C18            4.3794     2.0890    -1.0094 C.ar    
  19 F19            2.7117     3.4198     1.9409 F       
  20 O20            6.8725     4.5543    -0.0392 O.3     
  21 C21            7.8056     4.3065    -1.0928 C.3     
  22 C22            8.9921     5.2228    -0.9389 C.ar    
  23 C23           10.0830     4.8212    -0.1909 C.ar    
  24 C24           11.1714     5.6617    -0.0496 C.ar    
  25 C25           11.1690     6.9036    -0.6568 C.ar    
  26 C26           10.0785     7.3048    -1.4055 C.ar    
  27 C27            8.9919     6.4626    -1.5504 C.ar    
  28 C28           -2.5972     4.2009     0.0373 C.3     
  29 H29            3.3608    -0.2897    -0.0312 H       
  30 H30            3.2508    -2.2000     0.8494 H       
  31 H31            2.6578    -3.6220    -0.0420 H       
  32 H32            3.2335    -2.1910    -0.9304 H       
  33 H33            4.9535     4.7375     1.7318 H       
  34 H34            6.2676     2.7077    -1.7927 H       
  35 H35            4.2197     1.3450    -1.7758 H       
  36 H36            8.1388     3.2697    -1.0468 H       
  37 H37            7.3259     4.4916    -2.0540 H       
  38 H38           10.0848     3.8510     0.2835 H       
  39 H39           12.0234     5.3482     0.5354 H       
  40 H40           12.0190     7.5605    -0.5458 H       
  41 H41           10.0765     8.2752    -1.8796 H       
  42 H42            8.1415     6.7745    -2.1384 H       
  43 H43           -3.1575     3.9111    -0.8516 H       
  44 H44           -3.1490     3.9014     0.9283 H       
  45 H45           -2.4577     5.2819     0.0425 H       
@<TRIPOS>BOND
   1    1    2 1
   2    1    6 2
   3    1    7 1
   4    2    3 1
   5    2   10 2
   6    3    4 2
   7    3   11 1
   8    4    5 1
   9    4   29 1
  10    5    6 1
  11    5   13 1
  12    7    8 2
  13    7    9 1
  14    9   28 1
  15   11   12 1
  16   12   30 1
  17   12   31 1
  18   12   32 1
  19   13   14 ar
  20   13   18 ar
  21   14   15 ar
  22   14   19 1
  23   15   16 ar
  24   15   33 1
  25   16   17 ar
  26   16   20 1
  27   17   18 ar
  28   17   34 1
  29   18   35 1
  30   20   21 1
  31   21   22 1
  32   21   36 1
  33   21   37 1
  34   22   23 ar
  35   22   27 ar
  36   23   24 ar
  37   23   38 1
  38   24   25 ar
  39   24   39 1
  40   25   26 ar
  41   25   40 1
  42   26   27 ar
  43   26   41 1
  44   27   42 1
  45   28   43 1
  46   28   44 1
  47   28   45 1

#	End of record

