#	Name: ASD01813625
#	Creating user name:	WinNT
#	Creation time:	15. 06. 2019 19:30

#	Modifying user name:	WinNT
#	Modification time:	15. 06. 2019 19:30

#	Program:	/corina/corina34_cracker 3.40 0067  02.08.2006

@<TRIPOS>MOLECULE
ASD01813625
  56   60    0    0    0
SMALL
NO_CHARGES


@<TRIPOS>ATOM
   1 C1            -0.0178     1.4608     0.0101 C.3     
   2 N2             0.0021    -0.0041     0.0020 N.pl3   
   3 C3             0.0078    -0.7885    -1.0945 C.2     
   4 C4             0.0273    -2.0862    -0.6736 C.2     
   5 C5             0.0335    -2.0759     0.7348 C.2     
   6 N6             0.0245    -0.8309     1.1317 N.2     
   7 C7             0.0393    -3.2902    -1.5423 C.ar    
   8 C8             0.0364    -3.1521    -2.9285 C.ar    
   9 C9             0.0475    -4.2747    -3.7314 C.ar    
  10 C10            0.0615    -5.5352    -3.1620 C.ar    
  11 C11            0.0736    -6.7572    -4.0438 C.3     
  12 C12            1.4984    -7.1495    -4.3391 C.ar    
  13 C13            2.1223    -6.7156    -5.4894 C.ar    
  14 C14            3.4449    -7.0982    -5.7315 C.ar    
  15 N15            4.0995    -7.8639    -4.8800 N.ar    
  16 C16            3.5383    -8.3122    -3.7476 C.ar    
  17 C17            4.1143    -9.1546    -2.7124 C.2     
  18 C18            3.3077    -9.4298    -1.7059 C.2     
  19 S19            1.7377    -8.6794    -1.9179 S.3     
  20 C20            2.2151    -7.9564    -3.4479 C.ar    
  21 C21            4.1221    -6.6365    -6.9643 C.2     
  22 O22            3.5283    -5.9309    -7.7559 O.2     
  23 N23            5.3970    -6.9987    -7.2089 N.am    
  24 C24            6.0671    -6.5418    -8.4289 C.3     
  25 H25            5.3463    -6.4950    -9.2451 H       
  26 C26            6.6667    -5.1519    -8.1944 C.3     
  27 C27            7.4314    -4.7165    -9.4472 C.3     
  28 O28            8.4419    -5.6817    -9.7462 O.3     
  29 C29            7.9363    -6.9898   -10.0211 C.3     
  30 C30            7.1905    -7.5176    -8.7926 C.3     
  31 H31            7.8838    -7.6030    -7.9559 H       
  32 O32            6.6327    -8.8003    -9.0850 O.3     
  33 C33            0.0649    -5.6780    -1.7863 C.ar    
  34 C34            0.0592    -4.5619    -0.9741 C.ar    
  35 H35            1.0048     1.8381     0.0023 H       
  36 H36           -0.5450     1.8219    -0.8730 H       
  37 H37           -0.5280     1.8123     0.9069 H       
  38 H38           -0.0020    -0.4508    -2.1203 H       
  39 H39            0.0479    -2.9455     1.3751 H       
  40 H40            0.0251    -2.1684    -3.3741 H       
  41 H41            0.0450    -4.1688    -4.8062 H       
  42 H42           -0.4310    -7.5780    -3.5341 H       
  43 H43           -0.4435    -6.5367    -4.9776 H       
  44 H44            1.5961    -6.0888    -6.1942 H       
  45 H45            5.1266    -9.5274    -2.7639 H       
  46 H46            3.5800   -10.0410    -0.8582 H       
  47 H47            5.8710    -7.5618    -6.5770 H       
  48 H48            5.8669    -4.4400    -7.9901 H       
  49 H49            7.3491    -5.1880    -7.3453 H       
  50 H50            6.7406    -4.6414   -10.2870 H       
  51 H51            7.8961    -3.7465    -9.2707 H       
  52 H52            7.2521    -6.9444   -10.8684 H       
  53 H53            8.7648    -7.6573   -10.2580 H       
  54 H54            7.2888    -9.4693    -9.3240 H       
  55 H55            0.0762    -6.6644    -1.3467 H       
  56 H56            0.0663    -4.6744     0.1000 H       
@<TRIPOS>BOND
   1    1    2 1
   2    1   35 1
   3    1   36 1
   4    1   37 1
   5    2    6 1
   6    2    3 1
   7    3    4 2
   8    3   38 1
   9    4    5 1
  10    4    7 1
  11    5    6 2
  12    5   39 1
  13    7   34 ar
  14    7    8 ar
  15    8    9 ar
  16    8   40 1
  17    9   10 ar
  18    9   41 1
  19   10   11 1
  20   10   33 ar
  21   11   12 1
  22   11   42 1
  23   11   43 1
  24   12   20 ar
  25   12   13 ar
  26   13   14 ar
  27   13   44 1
  28   14   15 ar
  29   14   21 1
  30   15   16 ar
  31   16   20 ar
  32   16   17 1
  33   17   18 2
  34   17   45 1
  35   18   19 1
  36   18   46 1
  37   19   20 1
  38   21   22 2
  39   21   23 am
  40   23   24 1
  41   23   47 1
  42   24   25 1
  43   24   30 1
  44   24   26 1
  45   26   27 1
  46   26   48 1
  47   26   49 1
  48   27   28 1
  49   27   50 1
  50   27   51 1
  51   28   29 1
  52   29   30 1
  53   29   52 1
  54   29   53 1
  55   30   31 1
  56   30   32 1
  57   32   54 1
  58   33   34 ar
  59   33   55 1
  60   34   56 1

#	End of record

