#	Name: ASD01811145
#	Creating user name:	WinNT
#	Creation time:	15. 06. 2019 19:26

#	Modifying user name:	WinNT
#	Modification time:	15. 06. 2019 19:26

#	Program:	/corina/corina34_cracker 3.40 0067  02.08.2006

@<TRIPOS>MOLECULE
ASD01811145
  59   62    0    0    0
SMALL
NO_CHARGES


@<TRIPOS>ATOM
   1 C1            -0.0167     1.3814     0.0096 C.ar    
   2 C2             0.0021    -0.0041     0.0020 C.ar    
   3 C3            -1.1833    -0.7174     0.0090 C.ar    
   4 C4            -2.3945    -0.0443     0.0242 C.ar    
   5 C5            -2.4112     1.3505     0.0323 C.ar    
   6 C6            -1.2206     2.0592     0.0305 C.ar    
   7 O7            -3.6839    -0.4624     0.0343 O.3     
   8 C8            -4.4948     0.6072     0.0483 C.2     
   9 N9            -3.7535     1.7328     0.0475 N.am    
  10 O10           -5.7101     0.5668     0.0592 O.2     
  11 C11           -4.2633     3.1061     0.0603 C.3     
  12 C12           -5.1294     3.3420    -1.1802 C.3     
  13 C13           -5.7083     4.7578    -1.1305 C.3     
  14 N14           -6.5128     4.9165     0.0877 N.3     
  15 C15           -5.6921     4.7413     1.2927 C.3     
  16 C16           -5.1127     3.3250     1.3154 C.3     
  17 C17           -8.7354     7.6988     1.3965 C.3     
  18 C18           -8.0230     6.3448     1.3825 C.3     
  19 C19           -7.1968     6.2165     0.1012 C.3     
  20 C20           -6.1590     7.3395     0.0489 C.3     
  21 C21           -6.8714     8.6934     0.0629 C.3     
  22 C22           -7.6976     8.8217     1.3442 C.3     
  23 O23           -8.3630    10.0863     1.3573 O.3     
  24 C24           -8.1210     6.3191    -1.1139 C.3     
  25 C25           -8.5825    10.6141     2.6670 C.3     
  26 C26           -9.2974    11.9626     2.5602 C.3     
  27 C27            1.2791     2.1508     0.0014 C.3     
  28 F28            1.1826    -0.6609    -0.0128 F       
  29 H29           -1.1647    -1.7972     0.0024 H       
  30 H30           -1.2336     3.1391     0.0368 H       
  31 H31           -3.4270     3.8052     0.0589 H       
  32 H32           -4.5196     3.2294    -2.0766 H       
  33 H33           -5.9429     2.6167    -1.1993 H       
  34 H34           -4.8945     5.4829    -1.1253 H       
  35 H35           -6.3371     4.9240    -2.0052 H       
  36 H36           -4.8783     5.4665     1.2865 H       
  37 H37           -6.3090     4.8955     2.1780 H       
  38 H38           -5.9259     2.5994     1.3355 H       
  39 H39           -4.4909     3.2003     2.2019 H       
  40 H40           -9.3938     7.7719     0.5309 H       
  41 H41           -9.3240     7.7902     2.3094 H       
  42 H42           -7.3647     6.2717     2.2481 H       
  43 H43           -8.7624     5.5448     1.4198 H       
  44 H44           -5.5007     7.2663     0.9145 H       
  45 H45           -5.5704     7.2480    -0.8640 H       
  46 H46           -6.1321     9.4934     0.0256 H       
  47 H47           -7.5298     8.7665    -0.8028 H       
  48 H48           -7.0392     8.7486     2.2099 H       
  49 H49           -8.6285     7.2837    -1.1039 H       
  50 H50           -7.5324     6.2277    -2.0268 H       
  51 H51           -8.8603     5.5191    -1.0767 H       
  52 H52           -9.1983     9.9207     3.2397 H       
  53 H53           -7.6247    10.7494     3.1694 H       
  54 H54           -8.6815    12.6560     1.9876 H       
  55 H55          -10.2552    11.8272     2.0578 H       
  56 H56           -9.4648    12.3651     3.5592 H       
  57 H57            1.5816     2.3418    -1.0282 H       
  58 H58            1.1420     3.0988     0.5217 H       
  59 H59            2.0507     1.5683     0.5048 H       
@<TRIPOS>BOND
   1    1    2 ar
   2    1   27 1
   3    1    6 ar
   4    2    3 ar
   5    2   28 1
   6    3    4 ar
   7    3   29 1
   8    4    5 ar
   9    4    7 1
  10    5    6 ar
  11    5    9 1
  12    6   30 1
  13    7    8 1
  14    8    9 am
  15    8   10 2
  16    9   11 1
  17   11   12 1
  18   11   16 1
  19   11   31 1
  20   12   13 1
  21   12   32 1
  22   12   33 1
  23   13   14 1
  24   13   34 1
  25   13   35 1
  26   14   15 1
  27   14   19 1
  28   15   16 1
  29   15   36 1
  30   15   37 1
  31   16   38 1
  32   16   39 1
  33   17   18 1
  34   17   22 1
  35   17   40 1
  36   17   41 1
  37   18   19 1
  38   18   42 1
  39   18   43 1
  40   19   20 1
  41   19   24 1
  42   20   21 1
  43   20   44 1
  44   20   45 1
  45   21   22 1
  46   21   46 1
  47   21   47 1
  48   22   23 1
  49   22   48 1
  50   23   25 1
  51   24   49 1
  52   24   50 1
  53   24   51 1
  54   25   26 1
  55   25   52 1
  56   25   53 1
  57   26   54 1
  58   26   55 1
  59   26   56 1
  60   27   57 1
  61   27   58 1
  62   27   59 1

#	End of record

