#	Name: ASD03240689
#	Creating user name:	WinNT
#	Creation time:	15. 06. 2019 20:35

#	Modifying user name:	WinNT
#	Modification time:	15. 06. 2019 20:35

#	Program:	/corina/corina34_cracker 3.40 0067  02.08.2006

@<TRIPOS>MOLECULE
ASD03240689
  66   73    0    0    0
SMALL
NO_CHARGES


@<TRIPOS>ATOM
   1 C1            -0.0188     1.5336     0.0105 C.3     
   2 C2             0.0021    -0.0041     0.0020 C.3     
   3 C3             1.3815     0.0967    -0.6702 C.3     
   4 C4             1.5179     1.4762    -0.0045 C.3     
   5 O5            -0.5818     2.1049    -1.1721 O.3     
   6 C6             2.3746    -0.9181    -0.1653 C.ar    
   7 C7             3.3681    -1.3872    -1.0061 C.ar    
   8 C8             4.2807    -2.3160    -0.5495 C.ar    
   9 C9             4.2000    -2.7820     0.7628 C.ar    
  10 C10            3.1960    -2.3051     1.6056 C.ar    
  11 C11            2.2926    -1.3725     1.1389 C.ar    
  12 C12            7.8743    -7.5224     0.4039 C.2     
  13 N13            8.3308    -7.5321     1.6689 N.2     
  14 C14            7.9394    -6.6526     2.5545 C.2     
  15 C15            6.9770    -5.6264     2.1589 C.ar    
  16 C16            6.5015    -5.6219     0.8301 C.ar    
  17 N17            6.9720    -6.5914    -0.0345 N.pl3   
  18 C18            6.5212    -4.6590     3.0602 C.ar    
  19 C19            5.6042    -3.7197     2.5992 C.ar    
  20 C20            5.1759    -3.7791     1.2589 C.ar    
  21 N21            5.6305    -4.7106     0.4338 N.ar    
  22 N22            6.7045    -6.8552    -1.3833 N.2     
  23 C23            7.4072    -7.8972    -1.7577 C.2     
  24 C24            8.1493    -8.3518    -0.6749 C.2     
  25 C25            5.0840    -2.6698     3.5075 C.ar    
  26 C26            4.5769    -3.0158     4.7591 C.ar    
  27 C27            4.0946    -2.0341     5.6006 C.ar    
  28 C28            4.1132    -0.7090     5.2041 C.ar    
  29 C29            4.6148    -0.3597     3.9631 C.ar    
  30 C30            5.1055    -1.3322     3.1157 C.ar    
  31 C31            7.4056    -8.5057    -3.1364 C.3     
  32 C32            8.4997    -8.0577    -4.1076 C.3     
  33 C33            8.5509    -9.4566    -3.4902 C.3     
  34 C34           -0.5973     2.1316     1.2944 C.3     
  35 C35           -0.6601     3.6569     1.3975 C.3     
  36 C36           -1.9443     2.8502     1.1946 C.3     
  37 N37            1.3186     0.1546    -2.1367 N.3     
  38 H38            0.0329    -0.4458     0.9980 H       
  39 H39           -0.7629    -0.4476    -0.6353 H       
  40 H40            1.9766     2.2276    -0.6471 H       
  41 H41            1.9632     1.4391     0.9897 H       
  42 H42           -0.2098     1.7553    -1.9934 H       
  43 H43            3.4293    -1.0259    -2.0220 H       
  44 H44            5.0555    -2.6817    -1.2070 H       
  45 H45            3.1282    -2.6625     2.6226 H       
  46 H46            1.5173    -0.9995     1.7917 H       
  47 H47            8.3223    -6.6842     3.5639 H       
  48 H48            6.8696    -4.6419     4.0823 H       
  49 H49            8.8211    -9.1975    -0.6732 H       
  50 H50            4.5613    -4.0501     5.0694 H       
  51 H51            3.7015    -2.3010     6.5704 H       
  52 H52            3.7343     0.0559     5.8658 H       
  53 H53            4.6265     0.6764     3.6586 H       
  54 H54            5.5011    -1.0579     2.1489 H       
  55 H55            6.4223    -8.7250    -3.5524 H       
  56 H56            8.2361    -7.9825    -5.1626 H       
  57 H57            9.2205    -7.3228    -3.7494 H       
  58 H58            9.3054    -9.6421    -2.7257 H       
  59 H59            8.3210   -10.3018    -4.1390 H       
  60 H60           -0.3906     1.5736     2.2077 H       
  61 H61           -0.4952     4.1022     2.3786 H       
  62 H62           -0.2894     4.2342     0.5506 H       
  63 H63           -2.4184     2.8970     0.2142 H       
  64 H64           -2.6243     2.7649     2.0423 H       
  65 H65            2.2430     0.2199    -2.5360 H       
  66 H66            0.8193    -0.6393    -2.5089 H       
@<TRIPOS>BOND
   1    1    2 1
   2    1    4 1
   3    1    5 1
   4    1   34 1
   5    2    3 1
   6    2   38 1
   7    2   39 1
   8    3    4 1
   9    3    6 1
  10    3   37 1
  11    4   40 1
  12    4   41 1
  13    5   42 1
  14    6    7 ar
  15    6   11 ar
  16    7    8 ar
  17    7   43 1
  18    8    9 ar
  19    8   44 1
  20    9   10 ar
  21    9   20 1
  22   10   11 ar
  23   10   45 1
  24   11   46 1
  25   12   13 1
  26   12   17 1
  27   12   24 2
  28   13   14 2
  29   14   15 1
  30   14   47 1
  31   15   16 ar
  32   15   18 ar
  33   16   17 1
  34   16   21 ar
  35   17   22 1
  36   18   19 ar
  37   18   48 1
  38   19   20 ar
  39   19   25 1
  40   20   21 ar
  41   22   23 2
  42   23   24 1
  43   23   31 1
  44   24   49 1
  45   25   26 ar
  46   25   30 ar
  47   26   27 ar
  48   26   50 1
  49   27   28 ar
  50   27   51 1
  51   28   29 ar
  52   28   52 1
  53   29   30 ar
  54   29   53 1
  55   30   54 1
  56   31   32 1
  57   31   33 1
  58   31   55 1
  59   32   33 1
  60   32   56 1
  61   32   57 1
  62   33   58 1
  63   33   59 1
  64   34   35 1
  65   34   36 1
  66   34   60 1
  67   35   36 1
  68   35   61 1
  69   35   62 1
  70   36   63 1
  71   36   64 1
  72   37   65 1
  73   37   66 1

#	End of record

