#	Name: ASD02508175
#	Creating user name:	WinNT
#	Creation time:	15. 06. 2019 20:23

#	Modifying user name:	WinNT
#	Modification time:	15. 06. 2019 20:23

#	Program:	/corina/corina34_cracker 3.40 0067  02.08.2006

@<TRIPOS>MOLECULE
ASD02508175
  52   55    0    0    0
SMALL
NO_CHARGES


@<TRIPOS>ATOM
   1 C1            -0.0168     1.3911     0.0097 C.ar    
   2 C2             0.0021    -0.0041     0.0020 C.ar    
   3 C3            -1.1670    -0.7436     0.0096 C.ar    
   4 C4            -2.3892    -0.1001     0.0251 C.ar    
   5 C5            -2.4296     1.2837     0.0330 C.ar    
   6 C6            -1.2699     2.0227     0.0305 C.ar    
   7 S7            -3.8842    -1.0326     0.0343 S.o2    
   8 N8            -4.2848    -1.3010     1.6186 N.am    
   9 C9            -5.1351    -0.3489     2.3468 C.3     
  10 N10            1.2342     1.9813     0.0009 N.am    
  11 C11            2.3140     1.1938    -0.0136 C.2     
  12 S12            1.7082    -0.4709    -0.0168 S.3     
  13 O13           -4.8913    -0.1815    -0.4955 O.2     
  14 O14           -3.5687    -2.3022    -0.5204 O.2     
  15 C15            1.3727     3.4397     0.0069 C.3     
  16 O16            3.4782     1.5486    -0.0234 O.2     
  17 C17           -6.3392    -1.1063     2.9201 C.3     
  18 N18           -5.8512    -2.3012     3.6229 N.am    
  19 C19           -5.0008    -3.2533     2.8947 C.3     
  20 C20           -3.8013    -2.4988     2.3197 C.3     
  21 S21           -6.2517    -2.5697     5.2071 S.o2    
  22 C22           -7.7471    -3.5016     5.2163 C.ar    
  23 O23           -5.2450    -3.4212     5.7368 O.2     
  24 O24           -6.5668    -1.3000     5.7620 O.2     
  25 C25           -7.7554    -4.7899     5.7143 C.ar    
  26 C26           -8.9297    -5.5220     5.7222 C.ar    
  27 C27          -10.0972    -4.9656     5.2310 C.ar    
  28 C28          -10.0929    -3.6772     4.7320 C.ar    
  29 C29           -8.9181    -2.9398     4.7285 C.ar    
  30 Cl30          -8.9377    -7.1410     6.3487 Cl      
  31 O31           -8.9119    -1.6722     4.2380 O.3     
  32 C32          -10.1512    -1.1624     3.7418 C.3     
  33 H33           -1.1242    -1.8228     0.0030 H       
  34 H34           -3.3839     1.7892     0.0451 H       
  35 H35           -1.3241     3.1013     0.0371 H       
  36 H36           -4.5660     0.1024     3.1595 H       
  37 H37           -5.4822     0.4274     1.6648 H       
  38 H38            1.4167     3.7963     1.0360 H       
  39 H39            2.2881     3.7199    -0.5141 H       
  40 H40            0.5162     3.8881    -0.4966 H       
  41 H41           -6.8761    -0.4647     3.6188 H       
  42 H42           -7.0036    -1.4048     2.1091 H       
  43 H43           -4.6538    -4.0296     3.5766 H       
  44 H44           -5.5699    -3.7046     2.0819 H       
  45 H45           -3.2677    -3.1419     1.6199 H       
  46 H46           -3.1351    -2.2041     3.1305 H       
  47 H47           -6.8449    -5.2262     6.0975 H       
  48 H48          -11.0126    -5.5388     5.2373 H       
  49 H49          -11.0045    -3.2432     4.3486 H       
  50 H50          -10.5012    -1.7914     2.9233 H       
  51 H51          -10.8909    -1.1630     4.5424 H       
  52 H52          -10.0069    -0.1440     3.3812 H       
@<TRIPOS>BOND
   1    1    2 ar
   2    1   10 1
   3    1    6 ar
   4    2    3 ar
   5    2   12 1
   6    3    4 ar
   7    3   33 1
   8    4    5 ar
   9    4    7 1
  10    5    6 ar
  11    5   34 1
  12    6   35 1
  13    7    8 am
  14    7   13 2
  15    7   14 2
  16    8    9 1
  17    8   20 1
  18    9   17 1
  19    9   36 1
  20    9   37 1
  21   10   11 am
  22   10   15 1
  23   11   12 1
  24   11   16 2
  25   15   38 1
  26   15   39 1
  27   15   40 1
  28   17   18 1
  29   17   41 1
  30   17   42 1
  31   18   19 1
  32   18   21 am
  33   19   20 1
  34   19   43 1
  35   19   44 1
  36   20   45 1
  37   20   46 1
  38   21   22 1
  39   21   23 2
  40   21   24 2
  41   22   25 ar
  42   22   29 ar
  43   25   26 ar
  44   25   47 1
  45   26   27 ar
  46   26   30 1
  47   27   28 ar
  48   27   48 1
  49   28   29 ar
  50   28   49 1
  51   29   31 1
  52   31   32 1
  53   32   50 1
  54   32   51 1
  55   32   52 1

#	End of record

