#	Name: ASD01150007
#	Creating user name:	WinNT
#	Creation time:	15. 06. 2019 19:03

#	Modifying user name:	WinNT
#	Modification time:	15. 06. 2019 19:03

#	Program:	/corina/corina34_cracker 3.40 0067  02.08.2006

@<TRIPOS>MOLECULE
ASD01150007
  50   52    0    0    0
SMALL
NO_CHARGES


@<TRIPOS>ATOM
   1 N1            -0.0159     1.3197     0.0093 N.ar    
   2 C2             0.0021    -0.0041     0.0020 C.ar    
   3 C3             1.2289    -0.6636    -0.0132 C.ar    
   4 C4             2.4002     0.1158    -0.0202 C.ar    
   5 N5             2.2878     1.4399    -0.0121 N.ar    
   6 C6             1.1031     2.0166     0.0024 C.ar    
   7 C7             2.0960    -2.8027    -0.9563 C.ar    
   8 C8             2.1565    -4.1815    -0.9595 C.ar    
   9 C9             1.4273    -4.9105    -0.0374 C.ar    
  10 C10            0.6341    -4.2631     0.8927 C.ar    
  11 C11            0.5663    -2.8848     0.9056 C.ar    
  12 C12            1.2985    -2.1450    -0.0214 C.ar    
  13 C13            6.0359    -0.4503     0.5539 C.3     
  14 C14            4.8572     0.3392    -0.0420 C.3     
  15 C15            5.2496     0.6892    -1.4923 C.3     
  16 C16            6.3029    -0.3819    -1.8699 C.3     
  17 C17            7.1035    -0.5524    -0.5549 C.3     
  18 N18            3.6462    -0.4853    -0.0349 N.pl3   
  19 C19            1.0249     3.5216     0.0112 C.3     
  20 C20            1.4968    -6.4159    -0.0467 C.3     
  21 C21            2.6333    -6.8796     0.8667 C.3     
  22 C22            2.7039    -8.4079     0.8573 C.3     
  23 C23            3.8405    -8.8716     1.7707 C.3     
  24 H24           -0.9211    -0.5645     0.0082 H       
  25 H25            2.6689    -2.2344    -1.6740 H       
  26 H26            2.7741    -4.6922    -1.6834 H       
  27 H27            0.0669    -4.8374     1.6103 H       
  28 H28           -0.0538    -2.3804     1.6318 H       
  29 H29            6.4422     0.0792     1.4158 H       
  30 H30            5.7069    -1.4468     0.8485 H       
  31 H31            4.6915     1.2518     0.5305 H       
  32 H32            4.3827     0.6200    -2.1494 H       
  33 H33            5.6864     1.6868    -1.5392 H       
  34 H34            5.8189    -1.3171    -2.1515 H       
  35 H35            6.9485    -0.0231    -2.6715 H       
  36 H36            7.8396     0.2446    -0.4504 H       
  37 H37            7.5894    -1.5277    -0.5279 H       
  38 H38            3.7181    -1.4526    -0.0405 H       
  39 H39            0.9962     3.8899    -1.0143 H       
  40 H40            0.1222     3.8354     0.5354 H       
  41 H41            1.8996     3.9279     0.5189 H       
  42 H42            0.5525    -6.8255     0.3119 H       
  43 H43            1.6818    -6.7649    -1.0626 H       
  44 H44            3.5777    -6.4700     0.5081 H       
  45 H45            2.4484    -6.5306     1.8826 H       
  46 H46            1.7596    -8.8175     1.2159 H       
  47 H47            2.8889    -8.7569    -0.1586 H       
  48 H48            4.7848    -8.4620     1.4121 H       
  49 H49            3.6555    -8.5226     2.7866 H       
  50 H50            3.8908    -9.9604     1.7640 H       
@<TRIPOS>BOND
   1    1    2 ar
   2    1    6 ar
   3    2    3 ar
   4    2   24 1
   5    3    4 ar
   6    3   12 1
   7    4    5 ar
   8    4   18 1
   9    5    6 ar
  10    6   19 1
  11    7    8 ar
  12    7   12 ar
  13    7   25 1
  14    8    9 ar
  15    8   26 1
  16    9   10 ar
  17    9   20 1
  18   10   11 ar
  19   10   27 1
  20   11   12 ar
  21   11   28 1
  22   13   14 1
  23   13   17 1
  24   13   29 1
  25   13   30 1
  26   14   15 1
  27   14   18 1
  28   14   31 1
  29   15   16 1
  30   15   32 1
  31   15   33 1
  32   16   17 1
  33   16   34 1
  34   16   35 1
  35   17   36 1
  36   17   37 1
  37   18   38 1
  38   19   39 1
  39   19   40 1
  40   19   41 1
  41   20   21 1
  42   20   42 1
  43   20   43 1
  44   21   22 1
  45   21   44 1
  46   21   45 1
  47   22   23 1
  48   22   46 1
  49   22   47 1
  50   23   48 1
  51   23   49 1
  52   23   50 1

#	End of record

