#	Name: ASD04882585
#	Creating user name:	WinNT
#	Creation time:	15. 06. 2019 20:55

#	Modifying user name:	WinNT
#	Modification time:	15. 06. 2019 20:55

#	Program:	/corina/corina34_cracker 3.40 0067  02.08.2006

@<TRIPOS>MOLECULE
ASD04882585
  90   95    0    0    0
SMALL
NO_CHARGES


@<TRIPOS>ATOM
   1 C1            -0.0215     1.4012    -0.0092 C.ar    
   2 C2            -0.0115     0.0036    -0.0053 C.ar    
   3 C3            -1.2093    -0.7019    -0.0169 C.ar    
   4 C4            -2.4096    -0.0269    -0.0324 C.ar    
   5 C5            -2.4267     1.3707    -0.0364 C.ar    
   6 C6            -1.2239     2.0825    -0.0185 C.ar    
   7 N7             1.1998    -0.6830     0.0099 N.3     
   8 C8             1.3066    -1.5363     1.2016 C.3     
   9 C9             1.3727    -1.4731    -1.2171 C.3     
  10 C10            2.7466    -2.1473    -1.1972 C.3     
  11 N11            2.8534    -3.0005    -0.0054 N.3     
  12 C12            2.6805    -2.2105     1.2216 C.3     
  13 C13           -3.7126     2.0937    -0.0535 C.2     
  14 O14           -3.7265     3.3095    -0.0570 O.2     
  15 N15           -4.8719     1.4064    -0.0652 N.am    
  16 N16            1.1866     2.1110     0.0021 N.am    
  17 C17            4.0684    -3.6893     0.0098 C.ar    
  18 C18            4.0812    -5.0781     0.0137 C.ar    
  19 C19            5.2845    -5.7561     0.0283 C.ar    
  20 C20            6.4754    -5.0538     0.0394 C.ar    
  21 C21            6.4663    -3.6707     0.0356 C.ar    
  22 C22            5.2670    -2.9867     0.0152 C.ar    
  23 C23            1.2296     3.3600     0.5068 C.2     
  24 C24            2.5162     4.0733     0.5999 C.2     
  25 N25            3.7329     3.5991     0.2178 N.2     
  26 C26            4.6245     4.5142     0.4546 C.2     
  27 O27            4.0246     5.5882     0.9871 O.3     
  28 C28            2.7098     5.3324     1.0790 C.2     
  29 O29            0.2069     3.8985     0.8853 O.2     
  30 C30            2.7836    -5.8445     0.0026 C.3     
  31 C31           -6.1489     2.1243    -0.0822 C.3     
  32 C32           -7.3003     1.1168    -0.0929 C.3     
  33 C33           -8.6339     1.8666    -0.1106 C.3     
  34 C34           -9.7679     0.8742    -0.1212 C.ar    
  35 C35          -10.3009     0.4234     1.0717 C.ar    
  36 C36          -11.3416    -0.4872     1.0673 C.ar    
  37 C37          -11.8522    -0.9495    -0.1345 C.ar    
  38 C38          -11.3155    -0.4955    -1.3359 C.ar    
  39 C39          -10.2768     0.4209    -1.3245 C.ar    
  40 O40          -11.8134    -0.9465    -2.5183 O.3     
  41 C41          -11.2137    -0.4373    -3.7112 C.3     
  42 C42          -11.9009    -1.0543    -4.9311 C.3     
  43 O43          -12.8754    -1.8454    -0.1406 O.3     
  44 C44          -13.3758    -2.2673     1.1297 C.3     
  45 C45            6.1000     4.3878     0.1753 C.3     
  46 C46            6.7249     5.3956    -0.7915 C.3     
  47 C47            7.0168     5.4911     0.7074 C.3     
  48 H48           -1.1986    -1.7819    -0.0142 H       
  49 H49           -3.3385    -0.5778    -0.0418 H       
  50 H50           -1.2340     3.1624    -0.0215 H       
  51 H51            1.1877    -0.9265     2.0973 H       
  52 H52            0.5279    -2.2984     1.1742 H       
  53 H53            0.5947    -2.2345    -1.2720 H       
  54 H54            1.3021    -0.8173    -2.0849 H       
  55 H55            2.8655    -2.7571    -2.0928 H       
  56 H56            3.5253    -1.3851    -1.1697 H       
  57 H57            3.4585    -1.4490     1.2765 H       
  58 H58            2.7511    -2.8663     2.0893 H       
  59 H59           -4.8608     0.4365    -0.0624 H       
  60 H60            1.9919     1.7035    -0.3534 H       
  61 H61            5.2952    -6.8360     0.0314 H       
  62 H62            7.4149    -5.5863     0.0516 H       
  63 H63            7.3983    -3.1251     0.0446 H       
  64 H64            5.2606    -1.9067     0.0118 H       
  65 H65            1.9513     5.9965     1.4664 H       
  66 H66            2.4813    -6.0321    -1.0277 H       
  67 H67            2.9181    -6.7941     0.5205 H       
  68 H68            2.0130    -5.2615     0.5070 H       
  69 H69           -6.2242     2.7527     0.8053 H       
  70 H70           -6.2033     2.7479    -0.9745 H       
  71 H71           -7.2249     0.4884    -0.9804 H       
  72 H72           -7.2458     0.4933     0.7995 H       
  73 H73           -8.7092     2.4949     0.7769 H       
  74 H74           -8.6883     2.4901    -1.0030 H       
  75 H75           -9.9034     0.7829     2.0094 H       
  76 H76          -11.7560    -0.8381     2.0008 H       
  77 H77           -9.8586     0.7748    -2.2552 H       
  78 H78          -11.3261     0.6465    -3.7404 H       
  79 H79          -10.1542    -0.6931    -3.7230 H       
  80 H80          -12.9604    -0.7985    -4.9193 H       
  81 H81          -11.4434    -0.6659    -5.8410 H       
  82 H82          -11.7884    -2.1381    -4.9019 H       
  83 H83          -14.1874    -2.9798     0.9820 H       
  84 H84          -12.5746    -2.7416     1.6965 H       
  85 H85          -13.7471    -1.4024     1.6794 H       
  86 H86            6.4908     3.3703     0.1637 H       
  87 H87            7.5270     5.0413    -1.4389 H       
  88 H88            6.0687     6.1501    -1.2255 H       
  89 H89            6.5527     6.3084     1.2594 H       
  90 H90            8.0109     5.1996     1.0461 H       
@<TRIPOS>BOND
   1    1    2 ar
   2    1   16 1
   3    1    6 ar
   4    2    3 ar
   5    2    7 1
   6    3    4 ar
   7    3   48 1
   8    4    5 ar
   9    4   49 1
  10    5    6 ar
  11    5   13 1
  12    6   50 1
  13    7    8 1
  14    7    9 1
  15    8   12 1
  16    8   51 1
  17    8   52 1
  18    9   10 1
  19    9   53 1
  20    9   54 1
  21   10   11 1
  22   10   55 1
  23   10   56 1
  24   11   12 1
  25   11   17 1
  26   12   57 1
  27   12   58 1
  28   13   14 2
  29   13   15 am
  30   15   31 1
  31   15   59 1
  32   16   23 am
  33   16   60 1
  34   17   18 ar
  35   17   22 ar
  36   18   19 ar
  37   18   30 1
  38   19   20 ar
  39   19   61 1
  40   20   21 ar
  41   20   62 1
  42   21   22 ar
  43   21   63 1
  44   22   64 1
  45   23   24 1
  46   23   29 2
  47   24   25 1
  48   24   28 2
  49   25   26 2
  50   26   27 1
  51   26   45 1
  52   27   28 1
  53   28   65 1
  54   30   66 1
  55   30   67 1
  56   30   68 1
  57   31   32 1
  58   31   69 1
  59   31   70 1
  60   32   33 1
  61   32   71 1
  62   32   72 1
  63   33   34 1
  64   33   73 1
  65   33   74 1
  66   34   35 ar
  67   34   39 ar
  68   35   36 ar
  69   35   75 1
  70   36   37 ar
  71   36   76 1
  72   37   38 ar
  73   37   43 1
  74   38   39 ar
  75   38   40 1
  76   39   77 1
  77   40   41 1
  78   41   42 1
  79   41   78 1
  80   41   79 1
  81   42   80 1
  82   42   81 1
  83   42   82 1
  84   43   44 1
  85   44   83 1
  86   44   84 1
  87   44   85 1
  88   45   46 1
  89   45   47 1
  90   45   86 1
  91   46   47 1
  92   46   87 1
  93   46   88 1
  94   47   89 1
  95   47   90 1

#	End of record

