#	Name: ASD03091139
#	Creating user name:	WinNT
#	Creation time:	15. 06. 2019 20:30

#	Modifying user name:	WinNT
#	Modification time:	15. 06. 2019 20:30

#	Program:	/corina/corina34_cracker 3.40 0067  02.08.2006

@<TRIPOS>MOLECULE
ASD03091139
  21   22    0    0    0
SMALL
NO_CHARGES


@<TRIPOS>ATOM
   1 C1            -0.0162     1.3436     0.0094 C.2     
   2 N2             0.0021    -0.0041     0.0020 N.am    
   3 C3             1.1665    -0.7171    -0.0129 C.2     
   4 C4             2.3723    -0.1264    -0.0208 C.2     
   5 C5             2.4574     1.3352    -0.0138 C.ar    
   6 C6             3.6823     2.0040    -0.0209 C.ar    
   7 C7             3.7067     3.3705    -0.0134 C.ar    
   8 C8             2.5267     4.1051     0.0013 C.ar    
   9 C9             1.3029     3.4713     0.0087 C.ar    
  10 C10            1.2540     2.0774     0.0012 C.ar    
  11 O11           -1.0751     1.9453     0.0177 O.2     
  12 C12           -1.2711    -0.7288     0.0108 C.3     
  13 Br13           2.6014     5.9946     0.0119 Br      
  14 H14            1.1158    -1.7959    -0.0183 H       
  15 H15            3.2717    -0.7242    -0.0319 H       
  16 H16            4.6061     1.4447    -0.0320 H       
  17 H17            4.6554     3.8865    -0.0186 H       
  18 H18            0.3903     4.0486     0.0201 H       
  19 H19           -1.5971    -0.9030    -1.0146 H       
  20 H20           -1.1415    -1.6847     0.5182 H       
  21 H21           -2.0219    -0.1378     0.5353 H       
@<TRIPOS>BOND
   1    1    2 am
   2    1   10 1
   3    1   11 2
   4    2    3 1
   5    2   12 1
   6    3    4 2
   7    3   14 1
   8    4    5 1
   9    4   15 1
  10    5    6 ar
  11    5   10 ar
  12    6    7 ar
  13    6   16 1
  14    7    8 ar
  15    7   17 1
  16    8    9 ar
  17    8   13 1
  18    9   10 ar
  19    9   18 1
  20   12   19 1
  21   12   20 1
  22   12   21 1

#	End of record

