#	Name: ASD00170123
#	Creating user name:	WinNT
#	Creation time:	15. 06. 2019 18:31

#	Modifying user name:	WinNT
#	Modification time:	15. 06. 2019 18:31

#	Program:	/corina/corina34_cracker 3.40 0067  02.08.2006

@<TRIPOS>MOLECULE
ASD00170123
  39   42    0    0    0
SMALL
NO_CHARGES


@<TRIPOS>ATOM
   1 C1            -0.0231     1.4909    -0.0364 C.2     
   2 C2            -0.0021    -0.0047    -0.0422 C.ar    
   3 C3             1.3150    -0.4524    -0.0307 C.ar    
   4 C4             2.1912     0.7743    -0.0169 C.3     
   5 C5             1.2420     1.9527    -0.0218 C.2     
   6 S6             1.2161     3.7155    -0.0155 S.3     
   7 C7            -0.5426     3.6912    -0.0336 C.2     
   8 N8            -0.9557     2.4691    -0.0468 N.2     
   9 C9            -1.0490    -0.9292    -0.0564 C.ar    
  10 C10           -0.7732    -2.2784    -0.0590 C.ar    
  11 C11            0.5488    -2.7235    -0.0475 C.ar    
  12 C12            1.5945    -1.7992    -0.0336 C.ar    
  13 N13           -1.3580     4.8112    -0.0377 N.pl3   
  14 C14            0.8428    -4.1768    -0.0498 C.ar    
  15 C15           -0.2018    -5.1005    -0.0636 C.ar    
  16 C16            0.0739    -6.4511    -0.0657 C.ar    
  17 C17            1.3921    -6.8926    -0.0541 C.ar    
  18 C18            2.4351    -5.9735    -0.0399 C.ar    
  19 C19            2.1643    -4.6219    -0.0440 C.ar    
  20 N20            1.6689    -8.2607    -0.0563 N.pl3   
  21 C21            0.5759    -9.2293     0.0600 C.3     
  22 C22            3.0523    -8.7280    -0.1749 C.3     
  23 H23            2.8050     0.7887     0.8837 H       
  24 H24            2.8231     0.7958    -0.9048 H       
  25 H25           -2.0731    -0.5864    -0.0650 H       
  26 H26           -1.5824    -2.9936    -0.0697 H       
  27 H27            2.6192    -2.1401    -0.0250 H       
  28 H28           -0.9644     5.6977    -0.0304 H       
  29 H29           -2.3225     4.7089    -0.0479 H       
  30 H30           -1.2260    -4.7580    -0.0723 H       
  31 H31           -0.7348    -7.1669    -0.0760 H       
  32 H32            3.4584    -6.3187    -0.0306 H       
  33 H33            2.9749    -3.9083    -0.0330 H       
  34 H34           -0.3613    -8.7004     0.2329 H       
  35 H35            0.5026    -9.8067    -0.8616 H       
  36 H36            0.7734    -9.9013     0.8951 H       
  37 H37            3.4889    -8.8266     0.8190 H       
  38 H38            3.0671    -9.6959    -0.6759 H       
  39 H39            3.6301    -8.0092    -0.7559 H       
@<TRIPOS>BOND
   1    1    2 1
   2    1    5 2
   3    1    8 1
   4    2    3 ar
   5    2    9 ar
   6    3    4 1
   7    3   12 ar
   8    4    5 1
   9    4   23 1
  10    4   24 1
  11    5    6 1
  12    6    7 1
  13    7    8 2
  14    7   13 1
  15    9   10 ar
  16    9   25 1
  17   10   11 ar
  18   10   26 1
  19   11   12 ar
  20   11   14 1
  21   12   27 1
  22   13   28 1
  23   13   29 1
  24   14   15 ar
  25   14   19 ar
  26   15   16 ar
  27   15   30 1
  28   16   17 ar
  29   16   31 1
  30   17   18 ar
  31   17   20 1
  32   18   19 ar
  33   18   32 1
  34   19   33 1
  35   20   21 1
  36   20   22 1
  37   21   34 1
  38   21   35 1
  39   21   36 1
  40   22   37 1
  41   22   38 1
  42   22   39 1

#	End of record

