#	Name: ASD01840251
#	Creating user name:	WinNT
#	Creation time:	15. 06. 2019 19:37

#	Modifying user name:	WinNT
#	Modification time:	15. 06. 2019 19:37

#	Program:	/corina/corina34_cracker 3.40 0067  02.08.2006

@<TRIPOS>MOLECULE
ASD01840251
  47   49    0    0    0
SMALL
NO_CHARGES


@<TRIPOS>ATOM
   1 C1            -0.1554     1.3345     0.1548 C.3     
   2 C2            -0.2232    -0.1704     0.1135 C.ar    
   3 N3            -0.1767    -0.8003    -1.0479 N.ar    
   4 N4            -0.2302    -2.0762    -1.1442 N.ar    
   5 C5            -0.3373    -2.8690    -0.0753 C.ar    
   6 S6            -0.4268    -4.6204     0.0475 S.3     
   7 C7            -0.5386    -4.5694     1.7960 C.2     
   8 C8            -0.6494    -5.7493     2.6525 C.2     
   9 O9            -0.7219    -5.6196     3.8609 O.2     
  10 N10           -0.6714    -6.9803     2.1043 N.am    
  11 C11           -0.7825    -8.1624     2.9625 C.3     
  12 C12           -0.7852    -9.4044     2.1090 C.ar    
  13 C13           -1.9793    -9.9150     1.6353 C.ar    
  14 C14           -1.9817   -11.0542     0.8523 C.ar    
  15 C15           -0.7900   -11.6826     0.5427 C.ar    
  16 C16            0.4041   -11.1715     1.0156 C.ar    
  17 C17            0.4069   -10.0299     1.7950 C.ar    
  18 S18           -0.7933   -13.1354    -0.4543 S.o2    
  19 O19            0.3880   -13.8260    -0.0712 O.2     
  20 O20           -2.0773   -13.7050    -0.2395 O.2     
  21 C21           -0.6469   -12.5183    -2.1539 C.3     
  22 C22           -0.6385   -13.6995    -3.1264 C.3     
  23 F23           -1.7326   -11.6845    -2.4423 F       
  24 F24            0.5439   -11.7962    -2.2869 F       
  25 C25           -0.5088    -3.2919     2.2499 C.2     
  26 N26           -0.5812    -2.9668     3.5977 N.pl3   
  27 C27           -0.3939    -2.2948     1.2018 C.ar    
  28 C28           -0.3277    -0.8853     1.2864 C.ar    
  29 C29           -0.3753    -0.1852     2.6200 C.3     
  30 H30            0.8857     1.6495     0.2269 H       
  31 H31           -0.5965     1.7432    -0.7543 H       
  32 H32           -0.7062     1.6994     1.0217 H       
  33 H33           -0.6137    -7.0836     1.1416 H       
  34 H34            0.0643    -8.1946     3.6481 H       
  35 H35           -1.7100    -8.1115     3.5329 H       
  36 H36           -2.9103    -9.4240     1.8772 H       
  37 H37           -2.9147   -11.4535     0.4828 H       
  38 H38            1.3351   -11.6627     0.7740 H       
  39 H39            1.3402    -9.6284     2.1614 H       
  40 H40           -1.5663   -14.2621    -3.0227 H       
  41 H41           -0.5506   -13.3287    -4.1476 H       
  42 H42            0.2074   -14.3491    -2.9016 H       
  43 H43           -0.3866    -3.6386     4.2698 H       
  44 H44           -0.8265    -2.0679     3.8672 H       
  45 H45           -1.4133    -0.0639     2.9298 H       
  46 H46            0.1582    -0.7796     3.3617 H       
  47 H47            0.0948     0.7944     2.5330 H       
@<TRIPOS>BOND
   1    1    2 1
   2    1   30 1
   3    1   31 1
   4    1   32 1
   5    2   28 ar
   6    2    3 ar
   7    3    4 ar
   8    4    5 ar
   9    5   27 ar
  10    5    6 1
  11    6    7 1
  12    7    8 1
  13    7   25 2
  14    8    9 2
  15    8   10 am
  16   10   11 1
  17   10   33 1
  18   11   12 1
  19   11   34 1
  20   11   35 1
  21   12   17 ar
  22   12   13 ar
  23   13   14 ar
  24   13   36 1
  25   14   15 ar
  26   14   37 1
  27   15   16 ar
  28   15   18 1
  29   16   17 ar
  30   16   38 1
  31   17   39 1
  32   18   19 2
  33   18   20 2
  34   18   21 1
  35   21   22 1
  36   21   23 1
  37   21   24 1
  38   22   40 1
  39   22   41 1
  40   22   42 1
  41   25   26 1
  42   25   27 1
  43   26   43 1
  44   26   44 1
  45   27   28 ar
  46   28   29 1
  47   29   45 1
  48   29   46 1
  49   29   47 1

#	End of record

