#	Name: ASD01230823
#	Creating user name:	WinNT
#	Creation time:	15. 06. 2019 19:15

#	Modifying user name:	WinNT
#	Modification time:	15. 06. 2019 19:15

#	Program:	/corina/corina34_cracker 3.40 0067  02.08.2006

@<TRIPOS>MOLECULE
ASD01230823
  45   47    0    0    0
SMALL
NO_CHARGES


@<TRIPOS>ATOM
   1 C1            -0.1208     1.3640    -0.5011 C.2     
   2 C2            -0.6772     1.6421    -1.7338 C.2     
   3 C3            -1.8467     0.9736    -2.1166 C.2     
   4 C4            -2.4298     0.0817    -1.2963 C.2     
   5 N5            -1.9311    -0.2209    -0.0543 N.pl3   
   6 C6            -0.7723     0.3632     0.3729 C.2     
   7 C7            -2.7092    -1.1732     0.7426 C.3     
   8 C8            -1.7802    -2.0686     1.5676 C.3     
   9 S9            -0.7622    -0.9727     2.6056 S.o2    
  10 N10           -0.1694     0.1155     1.5095 N.am    
  11 C11            1.1084     2.0500    -0.0642 C.2     
  12 O12           -1.5782    -0.2029     3.4778 O.2     
  13 O13            0.3887    -1.6561     3.0828 O.2     
  14 C14            1.1527     3.3776    -0.0322 C.2     
  15 C15           -1.5949     5.8332     0.6336 C.3     
  16 N16           -0.3358     5.1002     0.8174 N.3     
  17 C17           -0.0942     4.1799    -0.3018 C.3     
  18 C18           -1.7419     6.8824     1.7380 C.3     
  19 C19           -1.7294     6.1861     3.1016 C.3     
  20 C20           -0.4292     5.3907     3.2480 C.3     
  21 C21           -0.3203     4.3848     2.0998 C.3     
  22 C22           -1.8149     7.2350     4.2122 C.3     
  23 F23           -2.9997     7.9658     4.0732 F       
  24 F24           -1.8034     6.5977     5.4575 F       
  25 F25           -0.7196     8.1007     4.1212 F       
  26 H26           -0.2177     2.3642    -2.3925 H       
  27 H27           -2.2859     1.1770    -3.0821 H       
  28 H28           -3.3283    -0.4169    -1.6287 H       
  29 H29           -3.3698    -0.6248     1.4141 H       
  30 H30           -3.3089    -1.7937     0.0768 H       
  31 H31           -2.3696    -2.7349     2.1975 H       
  32 H32           -1.1410    -2.6516     0.9046 H       
  33 H33            1.9730     1.4735     0.2298 H       
  34 H34            2.0823     3.8817     0.1871 H       
  35 H35           -1.5891     6.3271    -0.3381 H       
  36 H36           -2.4314     5.1360     0.6814 H       
  37 H37            0.0332     4.7514    -1.2211 H       
  38 H38           -0.9441     3.5058    -0.4078 H       
  39 H39           -0.9130     7.5881     1.6821 H       
  40 H40           -2.6839     7.4157     1.6103 H       
  41 H41           -2.5806     5.5089     3.1727 H       
  42 H42            0.4203     6.0730     3.2159 H       
  43 H43           -0.4334     4.8583     4.1991 H       
  44 H44           -1.1627     3.6944     2.1407 H       
  45 H45            0.6113     3.8267     2.1930 H       
@<TRIPOS>BOND
   1    1    2 2
   2    1   11 1
   3    1    6 1
   4    2    3 1
   5    2   26 1
   6    3    4 2
   7    3   27 1
   8    4    5 1
   9    4   28 1
  10    5    6 1
  11    5    7 1
  12    6   10 2
  13    7    8 1
  14    7   29 1
  15    7   30 1
  16    8    9 1
  17    8   31 1
  18    8   32 1
  19    9   10 am
  20    9   12 2
  21    9   13 2
  22   11   14 2
  23   11   33 1
  24   14   17 1
  25   14   34 1
  26   15   16 1
  27   15   18 1
  28   15   35 1
  29   15   36 1
  30   16   17 1
  31   16   21 1
  32   17   37 1
  33   17   38 1
  34   18   19 1
  35   18   39 1
  36   18   40 1
  37   19   20 1
  38   19   22 1
  39   19   41 1
  40   20   21 1
  41   20   42 1
  42   20   43 1
  43   21   44 1
  44   21   45 1
  45   22   23 1
  46   22   24 1
  47   22   25 1

#	End of record

