#	Name: ASD02038671
#	Creating user name:	WinNT
#	Creation time:	15. 06. 2019 20:17

#	Modifying user name:	WinNT
#	Modification time:	15. 06. 2019 20:17

#	Program:	/corina/corina34_cracker 3.40 0067  02.08.2006

@<TRIPOS>MOLECULE
ASD02038671
  39   40    0    0    0
SMALL
NO_CHARGES


@<TRIPOS>ATOM
   1 C1             0.2132     1.4182    -0.0012 C.ar    
   2 C2             0.1456     0.0385    -0.0183 C.ar    
   3 C3             1.3060    -0.7122     0.0219 C.ar    
   4 C4             1.2293    -2.2172     0.0026 C.3     
   5 C5             1.2634    -2.7110    -1.4451 C.3     
   6 C6             1.1867    -4.2159    -1.4645 C.2     
   7 N7             1.2010    -4.8764    -2.6392 N.am    
   8 N8             1.1297    -6.2754    -2.6572 N.am    
   9 C9             1.1440    -6.9359    -3.8320 C.2     
  10 C10            0.5056    -8.0269    -6.4588 C.ar    
  11 C11            0.6079    -8.7038    -7.6584 C.ar    
  12 C12            1.5310    -8.2975    -8.6072 C.ar    
  13 C13            2.3533    -7.2121    -8.3557 C.ar    
  14 C14            2.2542    -6.5324    -7.1574 C.ar    
  15 C15            1.3292    -6.9382    -6.2046 C.ar    
  16 C16            1.4467     2.0504     0.0565 C.ar    
  17 C17            2.6096     1.2949     0.0968 C.ar    
  18 C18            2.5366    -0.0845     0.0794 C.ar    
  19 O19            1.5159     3.4075     0.0730 O.3     
  20 N20            1.2268    -6.2504    -4.9895 N.am    
  21 S21            1.0569    -8.6455    -3.8540 S.2     
  22 F22            1.6299    -8.9612    -9.7797 F       
  23 O23            1.1122    -4.8328    -0.4229 O.2     
  24 H24           -0.6933     2.0042    -0.0371 H       
  25 H25           -0.8145    -0.4542    -0.0628 H       
  26 H26            2.0776    -2.6312     0.5477 H       
  27 H27            0.3014    -2.5398     0.4748 H       
  28 H28            0.4151    -2.2970    -1.9903 H       
  29 H29            2.1913    -2.3883    -1.9174 H       
  30 H30            1.2606    -4.3830    -3.4723 H       
  31 H31            1.0701    -6.7688    -1.8242 H       
  32 H32           -0.2175    -8.3414    -5.7209 H       
  33 H33           -0.0322    -9.5508    -7.8563 H       
  34 H34            3.0726    -6.8968    -9.0970 H       
  35 H35            2.8961    -5.6864    -6.9613 H       
  36 H36            3.5710     1.7847     0.1413 H       
  37 H37            3.4416    -0.6731     0.1107 H       
  38 H38            1.4992     3.7914     0.9604 H       
  39 H39            1.2154    -5.2805    -4.9806 H       
@<TRIPOS>BOND
   1    1    2 ar
   2    1   16 ar
   3    1   24 1
   4    2    3 ar
   5    2   25 1
   6    3    4 1
   7    3   18 ar
   8    4    5 1
   9    4   26 1
  10    4   27 1
  11    5    6 1
  12    5   28 1
  13    5   29 1
  14    6    7 am
  15    6   23 2
  16    7    8 1
  17    7   30 1
  18    8    9 am
  19    8   31 1
  20    9   20 am
  21    9   21 2
  22   10   11 ar
  23   10   15 ar
  24   10   32 1
  25   11   12 ar
  26   11   33 1
  27   12   13 ar
  28   12   22 1
  29   13   14 ar
  30   13   34 1
  31   14   15 ar
  32   14   35 1
  33   15   20 1
  34   16   17 ar
  35   16   19 1
  36   17   18 ar
  37   17   36 1
  38   18   37 1
  39   19   38 1
  40   20   39 1

#	End of record

