#	Name: ASD01816314
#	Creating user name:	WinNT
#	Creation time:	15. 06. 2019 19:35

#	Modifying user name:	WinNT
#	Modification time:	15. 06. 2019 19:35

#	Program:	/corina/corina34_cracker 3.40 0067  02.08.2006

@<TRIPOS>MOLECULE
ASD01816314
  56   62    0    0    0
SMALL
NO_CHARGES


@<TRIPOS>ATOM
   1 C1            -0.0167     1.3813     0.0096 C.ar    
   2 C2             0.0021    -0.0041     0.0020 C.ar    
   3 C3             1.1983    -0.6909    -0.0131 C.ar    
   4 C4             2.4015     0.0059    -0.0203 C.ar    
   5 C5             2.3790     1.4106    -0.0126 C.ar    
   6 C6             1.1663     2.0917     0.0022 C.ar    
   7 N7             3.6053    -0.6772    -0.0345 N.pl3   
   8 C8             4.7970    -0.0586    -0.0416 C.2     
   9 C9             4.8999     1.3103    -0.0352 C.2     
  10 C10            3.6670     2.1301    -0.0205 C.2     
  11 C11            5.9971     2.2730    -0.0401 C.2     
  12 N12            5.4246     3.4961    -0.0292 N.am    
  13 N13            4.0323     3.3800    -0.0176 N.2     
  14 O14            7.1913     2.0229    -0.0513 O.2     
  15 C15            3.5779    -2.1420    -0.0416 C.3     
  16 C16            3.5558    -2.6371    -1.4648 C.ar    
  17 C17            4.7437    -2.8861    -2.1272 C.ar    
  18 C18            4.7267    -3.3395    -3.4317 C.ar    
  19 C19            3.5152    -3.5456    -4.0778 C.ar    
  20 C20            2.3241    -3.2951    -3.4099 C.ar    
  21 C21            2.3475    -2.8468    -2.1037 C.ar    
  22 N22            3.4947    -4.0053    -5.4019 N.pl3   
  23 C23            2.3900    -4.2463    -6.1437 C.2     
  24 C24            2.7969    -4.6753    -7.3609 C.2     
  25 C25            4.1959    -4.6976    -7.3642 C.2     
  26 N26            4.6150    -4.2906    -6.1931 N.2     
  27 C27            6.1244     4.7046    -0.0297 C.ar    
  28 C28            7.0560     4.9710    -1.0116 C.ar    
  29 C29            7.7578     6.1729    -1.0203 C.ar    
  30 C30            7.5475     7.1195    -0.0636 C.ar    
  31 C31            6.6079     6.8874     0.9533 C.ar    
  32 C32            5.8831     5.6682     0.9690 C.ar    
  33 C33            6.3542     7.8319     1.9615 C.ar    
  34 N34            5.4659     7.5725     2.8922 N.ar    
  35 C35            4.7790     6.4392     2.9323 C.ar    
  36 C36            4.9484     5.4624     1.9975 C.ar    
  37 H37           -0.9602     1.9068     0.0169 H       
  38 H38           -0.9289    -0.5515     0.0083 H       
  39 H39            1.2003    -1.7709    -0.0189 H       
  40 H40            1.1506     3.1715     0.0084 H       
  41 H41            5.6983    -0.6536    -0.0523 H       
  42 H42            4.4655    -2.5244     0.4624 H       
  43 H43            2.6859    -2.4912     0.4785 H       
  44 H44            5.6858    -2.7256    -1.6241 H       
  45 H45            5.6549    -3.5332    -3.9488 H       
  46 H46            1.3802    -3.4542    -3.9100 H       
  47 H47            1.4213    -2.6517    -1.5836 H       
  48 H48            1.3667    -4.1197    -5.8222 H       
  49 H49            2.1551    -4.9517    -8.1843 H       
  50 H50            4.8222    -4.9951    -8.1923 H       
  51 H51            7.2432     4.2381    -1.7825 H       
  52 H52            8.4825     6.3582    -1.7994 H       
  53 H53            8.1023     8.0458    -0.0871 H       
  54 H54            6.8894     8.7699     1.9710 H       
  55 H55            4.0623     6.2876     3.7259 H       
  56 H56            4.3783     4.5466     2.0485 H       
@<TRIPOS>BOND
   1    1    2 ar
   2    1    6 ar
   3    1   37 1
   4    2    3 ar
   5    2   38 1
   6    3    4 ar
   7    3   39 1
   8    4    5 ar
   9    4    7 1
  10    5    6 ar
  11    5   10 1
  12    6   40 1
  13    7    8 1
  14    7   15 1
  15    8    9 2
  16    8   41 1
  17    9   10 1
  18    9   11 1
  19   10   13 2
  20   11   12 am
  21   11   14 2
  22   12   13 1
  23   12   27 1
  24   15   16 1
  25   15   42 1
  26   15   43 1
  27   16   17 ar
  28   16   21 ar
  29   17   18 ar
  30   17   44 1
  31   18   19 ar
  32   18   45 1
  33   19   20 ar
  34   19   22 1
  35   20   21 ar
  36   20   46 1
  37   21   47 1
  38   22   23 1
  39   22   26 1
  40   23   24 2
  41   23   48 1
  42   24   25 1
  43   24   49 1
  44   25   26 2
  45   25   50 1
  46   27   28 ar
  47   27   32 ar
  48   28   29 ar
  49   28   51 1
  50   29   30 ar
  51   29   52 1
  52   30   31 ar
  53   30   53 1
  54   31   32 ar
  55   31   33 ar
  56   32   36 ar
  57   33   34 ar
  58   33   54 1
  59   34   35 ar
  60   35   36 ar
  61   35   55 1
  62   36   56 1

#	End of record

