#	Name: ASD01914344
#	Creating user name:	WinNT
#	Creation time:	15. 06. 2019 20:03

#	Modifying user name:	WinNT
#	Modification time:	15. 06. 2019 20:03

#	Program:	/corina/corina34_cracker 3.40 0067  02.08.2006

@<TRIPOS>MOLECULE
ASD01914344
  50   52    0    0    0
SMALL
NO_CHARGES


@<TRIPOS>ATOM
   1 C1             0.9206     0.0733     1.9218 C.ar    
   2 C2             1.0289    -1.0340     2.7428 C.ar    
   3 C3             2.2235    -1.3090     3.3824 C.ar    
   4 C4             3.3122    -0.4780     3.2022 C.ar    
   5 C5             3.2062     0.6334     2.3787 C.ar    
   6 C6             2.0063     0.9075     1.7384 C.ar    
   7 O7             4.2756     1.4528     2.2001 O.3     
   8 C8             4.0939     2.5782     1.3384 C.3     
   9 C9             5.3769     3.3650     1.2626 C.2     
  10 N10            6.4624     3.0318     1.9031 N.2     
  11 C11            7.4557     4.0500     1.6008 C.3     
  12 C12            6.9134     4.5682     0.2255 C.3     
  13 O13            5.5217     4.4939     0.5129 O.3     
  14 C14            8.8844     3.6284     1.3616 C.3     
  15 C15            9.6391     4.7650     0.6684 C.3     
  16 N16            8.8528     5.9655     0.4354 N.am    
  17 C17            7.5274     5.9361     0.1152 C.2     
  18 O18            6.9041     6.9190    -0.2261 O.2     
  19 C19            9.5149     7.2672     0.5503 C.3     
  20 C20           10.0881     7.6697    -0.8100 C.3     
  21 C21            8.4998     8.3171     1.0068 C.3     
  22 C22            8.9418     7.9664    -1.7789 C.3     
  23 C23           10.9555     8.9196    -0.6483 C.3     
  24 C24           10.9402     6.5256    -1.3630 C.3     
  25 H25           -0.0123     0.2837     1.4200 H       
  26 H26            0.1789    -1.6849     2.8849 H       
  27 H27            2.3054    -2.1741     4.0237 H       
  28 H28            4.2449    -0.6930     3.7024 H       
  29 H29            1.9214     1.7719     1.0965 H       
  30 H30            3.8205     2.2321     0.3416 H       
  31 H31            3.3008     3.2134     1.7328 H       
  32 H32            7.4107     4.8463     2.3437 H       
  33 H33            7.1908     3.9200    -0.6058 H       
  34 H34            9.3618     3.4034     2.3153 H       
  35 H35            8.9007     2.7416     0.7281 H       
  36 H36           10.5002     5.0309     1.2815 H       
  37 H37           10.0043     4.4007    -0.2918 H       
  38 H38           10.3222     7.2011     1.2796 H       
  39 H39            7.9311     8.6708     0.1468 H       
  40 H40            7.8202     7.8732     1.7342 H       
  41 H41            9.0251     9.1553     1.4647 H       
  42 H42            8.3928     8.8429    -1.4349 H       
  43 H43            9.3464     8.1580    -2.7727 H       
  44 H44            8.2694     7.1094    -1.8195 H       
  45 H45           11.7722     8.7083     0.0420 H       
  46 H46           11.3639     9.2064    -1.6173 H       
  47 H47           10.3484     9.7347    -0.2543 H       
  48 H48           10.2998     5.6742    -1.5935 H       
  49 H49           11.4466     6.8554    -2.2702 H       
  50 H50           11.6812     6.2322    -0.6195 H       
@<TRIPOS>BOND
   1    1    2 ar
   2    1    6 ar
   3    1   25 1
   4    2    3 ar
   5    2   26 1
   6    3    4 ar
   7    3   27 1
   8    4    5 ar
   9    4   28 1
  10    5    6 ar
  11    5    7 1
  12    6   29 1
  13    7    8 1
  14    8    9 1
  15    8   30 1
  16    8   31 1
  17    9   10 2
  18    9   13 1
  19   10   11 1
  20   11   12 1
  21   11   14 1
  22   11   32 1
  23   12   13 1
  24   12   17 1
  25   12   33 1
  26   14   15 1
  27   14   34 1
  28   14   35 1
  29   15   16 1
  30   15   36 1
  31   15   37 1
  32   16   17 am
  33   16   19 1
  34   17   18 2
  35   19   20 1
  36   19   21 1
  37   19   38 1
  38   20   22 1
  39   20   23 1
  40   20   24 1
  41   21   39 1
  42   21   40 1
  43   21   41 1
  44   22   42 1
  45   22   43 1
  46   22   44 1
  47   23   45 1
  48   23   46 1
  49   23   47 1
  50   24   48 1
  51   24   49 1
  52   24   50 1

#	End of record

