#	Name: ASD01940595
#	Creating user name:	WinNT
#	Creation time:	15. 06. 2019 20:12

#	Modifying user name:	WinNT
#	Modification time:	15. 06. 2019 20:12

#	Program:	/corina/corina34_cracker 3.40 0067  02.08.2006

@<TRIPOS>MOLECULE
ASD01940595
  57   60    0    0    0
SMALL
NO_CHARGES


@<TRIPOS>ATOM
   1 C1             0.4333     1.4984    -0.8851 C.ar    
   2 C2            -0.5216     1.6419    -1.8820 C.ar    
   3 C3            -0.5550     2.8003    -2.6477 C.ar    
   4 C4             0.3612     3.8086    -2.4172 C.ar    
   5 C5             1.3125     3.6677    -1.4253 C.ar    
   6 C6             1.3508     2.5121    -0.6568 C.ar    
   7 N7            -1.4492     0.6208    -2.1158 N.am    
   8 C8            -1.9666    -0.0697    -1.0804 C.2     
   9 O9            -1.5610     0.1303     0.0450 O.2     
  10 O10            2.2866     2.3750     0.3187 O.3     
  11 C11            3.2297     3.3472     0.4399 C.ar    
  12 C12            4.4740     3.1851    -0.1516 C.ar    
  13 C13            5.4352     4.1735    -0.0293 C.ar    
  14 C14            5.1597     5.3277     0.6837 C.ar    
  15 C15            3.9172     5.4977     1.2785 C.ar    
  16 C16            2.9458     4.5073     1.1519 C.ar    
  17 N17            3.6389     6.6648     2.0000 N.pl3   
  18 C18            4.3635     7.8337     1.7455 C.ar    
  19 C19            4.9928     8.0096     0.5203 C.ar    
  20 C20            5.7078     9.1650     0.2717 C.ar    
  21 C21            5.7984    10.1473     1.2416 C.ar    
  22 C22            5.1736     9.9765     2.4640 C.ar    
  23 C23            4.4506     8.8253     2.7172 C.ar    
  24 F24            3.8353     8.6611     3.9086 F       
  25 I25            6.8849    11.8971     0.8586 I       
  26 N26            1.6852     4.6775     1.7467 N.am    
  27 S27            1.1887     3.6471     2.9442 S.o2    
  28 F28            6.6456     4.0113    -0.6070 F       
  29 O29           -0.0819     4.1497     3.3344 O.2     
  30 O30            1.3202     2.3538     2.3705 O.2     
  31 C31            2.4010     3.8803     4.2733 C.3     
  32 C32            2.2336     3.0360     5.5383 C.3     
  33 C33            3.3674     2.7288     4.5580 C.3     
  34 C34           -3.0491    -1.0901    -1.3210 C.3     
  35 C35           -3.4567    -1.7248     0.0101 C.3     
  36 H36            0.4586     0.6005    -0.2854 H       
  37 H37           -1.2974     2.9129    -3.4239 H       
  38 H38            0.3338     4.7084    -3.0138 H       
  39 H39            2.0276     4.4574    -1.2477 H       
  40 H40           -1.7198     0.4097    -3.0231 H       
  41 H41            4.6933     2.2858    -0.7081 H       
  42 H42            5.9125     6.0964     0.7775 H       
  43 H43            2.9436     6.6628     2.6763 H       
  44 H44            4.9236     7.2433    -0.2377 H       
  45 H45            6.1972     9.3017    -0.6813 H       
  46 H46            5.2467    10.7449     3.2194 H       
  47 H47            1.1052     5.3987     1.4560 H       
  48 H48            2.7786     4.8958     4.3924 H       
  49 H49            2.5014     3.4959     6.4895 H       
  50 H50            1.3950     2.3404     5.5718 H       
  51 H51            3.2748     1.8312     3.9466 H       
  52 H52            4.3812     2.9867     4.8642 H       
  53 H53           -3.9140    -0.6030    -1.7712 H       
  54 H54           -2.6768    -1.8632    -1.9932 H       
  55 H55           -2.5917    -2.2119     0.4603 H       
  56 H56           -3.8290    -0.9517     0.6823 H       
  57 H57           -4.2397    -2.4628    -0.1639 H       
@<TRIPOS>BOND
   1    1    2 ar
   2    1    6 ar
   3    1   36 1
   4    2    3 ar
   5    2    7 1
   6    3    4 ar
   7    3   37 1
   8    4    5 ar
   9    4   38 1
  10    5    6 ar
  11    5   39 1
  12    6   10 1
  13    7    8 am
  14    7   40 1
  15    8    9 2
  16    8   34 1
  17   10   11 1
  18   11   12 ar
  19   11   16 ar
  20   12   13 ar
  21   12   41 1
  22   13   14 ar
  23   13   28 1
  24   14   15 ar
  25   14   42 1
  26   15   16 ar
  27   15   17 1
  28   16   26 1
  29   17   18 1
  30   17   43 1
  31   18   19 ar
  32   18   23 ar
  33   19   20 ar
  34   19   44 1
  35   20   21 ar
  36   20   45 1
  37   21   22 ar
  38   21   25 1
  39   22   23 ar
  40   22   46 1
  41   23   24 1
  42   26   27 am
  43   26   47 1
  44   27   29 2
  45   27   30 2
  46   27   31 1
  47   31   32 1
  48   31   33 1
  49   31   48 1
  50   32   33 1
  51   32   49 1
  52   32   50 1
  53   33   51 1
  54   33   52 1
  55   34   35 1
  56   34   53 1
  57   34   54 1
  58   35   55 1
  59   35   56 1
  60   35   57 1

#	End of record

