#	Name: ASD08150613
#	Creating user name:	WinNT
#	Creation time:	15. 06. 2019 21:16

#	Modifying user name:	WinNT
#	Modification time:	15. 06. 2019 21:16

#	Program:	/corina/corina34_cracker 3.40 0067  02.08.2006

@<TRIPOS>MOLECULE
ASD08150613
  77   83    0    0    0
SMALL
NO_CHARGES


@<TRIPOS>ATOM
   1 N1            -0.2943     0.7892     0.0570 N.am    
   2 C2             0.6015     1.0908    -0.9028 C.2     
   3 C3             1.8209     0.3903    -1.0007 C.2     
   4 C4             2.1098    -0.6039    -0.1228 C.2     
   5 C5             1.1698    -0.9236     0.8885 C.ar    
   6 C6             1.4200    -1.9453     1.8244 C.ar    
   7 N7             0.5510    -2.2381     2.7563 N.ar    
   8 C8            -0.6178    -1.5904     2.8767 C.ar    
   9 C9            -0.9533    -0.5474     1.9787 C.ar    
  10 C10           -0.0348    -0.2066     0.9580 C.ar    
  11 C11           -2.1743     0.1207     2.1120 C.ar    
  12 C12           -3.0457    -0.2463     3.1249 C.ar    
  13 C13           -2.7066    -1.2792     4.0101 C.ar    
  14 C14           -1.5227    -1.9382     3.8931 C.ar    
  15 O15            0.3541     1.9815    -1.6979 O.2     
  16 C16           -4.3429     0.4571     3.2735 C.ar    
  17 C17           -1.4968     1.5039     0.1364 C.ar    
  18 C18           -1.5741     2.6482     0.9202 C.ar    
  19 C19           -2.7584     3.3523     0.9985 C.ar    
  20 C20           -3.8735     2.9165     0.2934 C.ar    
  21 C21           -3.7961     1.7723    -0.4903 C.ar    
  22 C22           -2.6096     1.0714    -0.5729 C.ar    
  23 N23           -5.0735     3.6294     0.3730 N.3     
  24 C24           -5.2249     4.5350    -0.7737 C.3     
  25 C25           -5.1691     4.3589     1.6444 C.3     
  26 C26           -6.5658     4.9764     1.7715 C.3     
  27 N27           -6.8312     5.7827     0.5704 N.am    
  28 C28           -6.6239     5.1597    -0.7457 C.3     
  29 C29           -7.2536     7.0584     0.6730 C.2     
  30 O30           -7.4196     7.5561     1.7665 O.2     
  31 C31           -7.5195     7.8665    -0.5709 C.3     
  32 C32           -4.6074     1.6175     2.5287 C.ar    
  33 N33           -5.7433     2.2584     2.6393 N.ar    
  34 C34           -6.7077     1.8406     3.4661 C.ar    
  35 C35           -6.5164     0.6764     4.2522 C.ar    
  36 C36           -5.3061    -0.0301     4.1452 C.ar    
  37 C37           -7.9210     2.5428     3.5716 C.ar    
  38 C38           -8.8879     2.0987     4.4202 C.ar    
  39 C39           -8.6976     0.9543     5.1923 C.ar    
  40 C40           -7.5366     0.2475     5.1182 C.ar    
  41 C41           -7.9845     9.2700    -0.1776 C.3     
  42 C42           -5.0055     1.2992    -1.2547 C.3     
  43 F43           -4.7266     0.0651    -1.8517 F       
  44 F44           -6.0863     1.1592    -0.3775 F       
  45 F45           -5.3265     2.2341    -2.2447 F       
  46 O46           -8.2367    10.0363    -1.3571 O.3     
  47 C47           -8.6786    11.3707    -1.0999 C.3     
  48 H48            2.5273     0.6453    -1.7768 H       
  49 H49            3.0424    -1.1439    -0.1943 H       
  50 H50            2.3466    -2.4976     1.7712 H       
  51 H51           -2.4360     0.9170     1.4310 H       
  52 H52           -3.3947    -1.5552     4.7954 H       
  53 H53           -1.2778    -2.7317     4.5836 H       
  54 H54           -0.7074     2.9867     1.4685 H       
  55 H55           -2.8186     4.2417     1.6081 H       
  56 H56           -2.5481     0.1842    -1.1857 H       
  57 H57           -4.4736     5.3227    -0.7167 H       
  58 H58           -5.0953     3.9745    -1.6995 H       
  59 H59           -4.9990     3.6706     2.4724 H       
  60 H60           -4.4186     5.1490     1.6677 H       
  61 H61           -7.3103     4.1844     1.8527 H       
  62 H62           -6.6059     5.6125     2.6557 H       
  63 H63           -6.7024     5.9170    -1.5258 H       
  64 H64           -7.3739     4.3853    -0.9065 H       
  65 H65           -6.6051     7.9384    -1.1598 H       
  66 H66           -8.2949     7.3791    -1.1619 H       
  67 H67           -3.8558     1.9903     1.8488 H       
  68 H68           -5.1281    -0.9206     4.7297 H       
  69 H69           -8.0853     3.4320     2.9812 H       
  70 H70           -9.8179     2.6425     4.4968 H       
  71 H71           -9.4811     0.6242     5.8583 H       
  72 H72           -7.4005    -0.6381     5.7212 H       
  73 H73           -8.8989     9.1981     0.4114 H       
  74 H74           -7.2091     9.7574     0.4135 H       
  75 H75           -9.6074    11.3423    -0.5301 H       
  76 H76           -7.9176    11.9016    -0.5280 H       
  77 H77           -8.8480    11.8859    -2.0454 H       
@<TRIPOS>BOND
   1    1    2 am
   2    1   10 1
   3    1   17 1
   4    2    3 1
   5    2   15 2
   6    3    4 2
   7    3   48 1
   8    4    5 1
   9    4   49 1
  10    5    6 ar
  11    5   10 ar
  12    6    7 ar
  13    6   50 1
  14    7    8 ar
  15    8    9 ar
  16    8   14 ar
  17    9   10 ar
  18    9   11 ar
  19   11   12 ar
  20   11   51 1
  21   12   13 ar
  22   12   16 1
  23   13   14 ar
  24   13   52 1
  25   14   53 1
  26   16   32 ar
  27   16   36 ar
  28   17   18 ar
  29   17   22 ar
  30   18   19 ar
  31   18   54 1
  32   19   20 ar
  33   19   55 1
  34   20   21 ar
  35   20   23 1
  36   21   22 ar
  37   21   42 1
  38   22   56 1
  39   23   24 1
  40   23   25 1
  41   24   28 1
  42   24   57 1
  43   24   58 1
  44   25   26 1
  45   25   59 1
  46   25   60 1
  47   26   27 1
  48   26   61 1
  49   26   62 1
  50   27   28 1
  51   27   29 am
  52   28   63 1
  53   28   64 1
  54   29   30 2
  55   29   31 1
  56   31   41 1
  57   31   65 1
  58   31   66 1
  59   32   33 ar
  60   32   67 1
  61   33   34 ar
  62   34   35 ar
  63   34   37 ar
  64   35   36 ar
  65   35   40 ar
  66   36   68 1
  67   37   38 ar
  68   37   69 1
  69   38   39 ar
  70   38   70 1
  71   39   40 ar
  72   39   71 1
  73   40   72 1
  74   41   46 1
  75   41   73 1
  76   41   74 1
  77   42   43 1
  78   42   44 1
  79   42   45 1
  80   46   47 1
  81   47   75 1
  82   47   76 1
  83   47   77 1

#	End of record

