#	Name: ASD01940500
#	Creating user name:	WinNT
#	Creation time:	15. 06. 2019 20:12

#	Modifying user name:	WinNT
#	Modification time:	15. 06. 2019 20:12

#	Program:	/corina/corina34_cracker 3.40 0067  02.08.2006

@<TRIPOS>MOLECULE
ASD01940500
  27   28    0    0    0
SMALL
NO_CHARGES


@<TRIPOS>ATOM
   1 C1            -0.0162     1.3410     0.0094 C.2     
   2 N2             0.0021    -0.0041     0.0020 N.am    
   3 C3             1.2637    -0.4708    -0.0125 C.2     
   4 C4             2.1916     0.6799    -0.0152 C.ar    
   5 C5             3.5709     0.8108    -0.0273 C.ar    
   6 C6             4.1413     2.0742    -0.0256 C.ar    
   7 C7             3.3438     3.2031    -0.0119 C.ar    
   8 C8             1.9626     3.0875     0.0003 C.ar    
   9 C9             1.3783     1.8310    -0.0013 C.ar    
  10 O10           -1.0118     2.0364     0.0181 O.2     
  11 O11            1.5863    -1.6416    -0.0213 O.2     
  12 O12           -1.1544    -0.8211     0.0091 O.3     
  13 C13           -1.6421    -1.1495    -1.2934 C.3     
  14 C14           -2.8866    -2.0302    -1.1649 C.3     
  15 C15           -3.3357    -2.4842    -2.5553 C.3     
  16 O16           -3.9361    -1.2842    -0.5453 O.3     
  17 H17            4.1990    -0.0677    -0.0376 H       
  18 H18            5.2164     2.1772    -0.0346 H       
  19 H19            3.8001     4.1820    -0.0103 H       
  20 H20            1.3444     3.9730     0.0113 H       
  21 H21           -1.8982    -0.2341    -1.8269 H       
  22 H22           -0.8713    -1.6879    -1.8448 H       
  23 H23           -2.6526    -2.9031    -0.5556 H       
  24 H24           -2.5352    -3.0532    -3.0279 H       
  25 H25           -4.2223    -3.1116    -2.4638 H       
  26 H26           -3.5697    -1.6112    -3.1646 H       
  27 H27           -4.1967    -0.4915    -1.0339 H       
@<TRIPOS>BOND
   1    1    2 am
   2    1    9 1
   3    1   10 2
   4    2    3 am
   5    2   12 1
   6    3    4 1
   7    3   11 2
   8    4    5 ar
   9    4    9 ar
  10    5    6 ar
  11    5   17 1
  12    6    7 ar
  13    6   18 1
  14    7    8 ar
  15    7   19 1
  16    8    9 ar
  17    8   20 1
  18   12   13 1
  19   13   14 1
  20   13   21 1
  21   13   22 1
  22   14   15 1
  23   14   16 1
  24   14   23 1
  25   15   24 1
  26   15   25 1
  27   15   26 1
  28   16   27 1

#	End of record

