#	Name: ASD01918186
#	Creating user name:	WinNT
#	Creation time:	15. 06. 2019 20:10

#	Modifying user name:	WinNT
#	Modification time:	15. 06. 2019 20:10

#	Program:	/corina/corina34_cracker 3.40 0067  02.08.2006

@<TRIPOS>MOLECULE
ASD01918186
  47   49    0    0    0
SMALL
NO_CHARGES


@<TRIPOS>ATOM
   1 N1             0.0413     1.3147     0.1297 N.ar    
   2 C2             0.0683    -0.0012     0.1410 C.ar    
   3 C3             1.2700    -0.6880     0.1611 C.ar    
   4 C4             2.4614     0.0231     0.1693 C.ar    
   5 C5             2.4059     1.4060     0.1571 C.ar    
   6 C6             1.1590     2.0343     0.1370 C.ar    
   7 N7             1.0871     3.3998     0.1242 N.2     
   8 N8            -0.0623     3.9850     0.1052 N.2     
   9 C9            -0.1339     5.3467     0.0925 C.ar    
  10 C10           -1.4470     7.3624     0.0653 C.ar    
  11 C11           -1.3800     5.9832     0.0777 C.ar    
  12 C12            1.0385     6.1108     0.1000 C.ar    
  13 C13            0.9642     7.4858     0.0877 C.ar    
  14 C14           -0.2736     8.1182     0.0681 C.ar    
  15 O15           -2.6562     7.9842     0.0510 O.3     
  16 C16           -3.8154     7.1486     0.0495 C.3     
  17 N17           -0.3433     9.5133     0.0556 N.am    
  18 C18            0.6797    10.2347    -0.4441 C.2     
  19 O19            1.6899     9.6767    -0.8172 O.2     
  20 C20            0.5684    11.7346    -0.5391 C.3     
  21 C21            1.8565    12.3048    -1.1363 C.3     
  22 C22           -0.6158    12.1023    -1.4355 C.3     
  23 C23           -0.7288    13.6251    -1.5320 C.3     
  24 C24            1.7434    13.8275    -1.2328 C.3     
  25 C25            0.5593    14.1953    -2.1292 C.3     
  26 H26           -0.8602    -0.5528     0.1349 H       
  27 H27            1.2802    -1.7680     0.1706 H       
  28 H28            3.4111    -0.4910     0.1853 H       
  29 H29            3.3139     1.9908     0.1633 H       
  30 H30           -2.2871     5.3972     0.0756 H       
  31 H31            2.0015     5.6221     0.1159 H       
  32 H32            1.8698     8.0743     0.0935 H       
  33 H33           -3.8163     6.5269     0.9449 H       
  34 H34           -4.7110     7.7697     0.0374 H       
  35 H35           -3.8030     6.5116    -0.8350 H       
  36 H36           -1.1279     9.9629     0.4065 H       
  37 H37            0.4138    12.1512     0.4562 H       
  38 H38            2.7000    12.0428    -0.4977 H       
  39 H39            2.0111    11.8881    -2.1316 H       
  40 H40           -0.4611    11.6856    -2.4308 H       
  41 H41           -1.5334    11.6961    -1.0101 H       
  42 H42           -1.5724    13.8870    -2.1706 H       
  43 H43           -0.8834    14.0417    -0.5367 H       
  44 H44            1.5888    14.2442    -0.2375 H       
  45 H45            2.6611    14.2337    -1.6582 H       
  46 H46            0.7139    13.7786    -3.1244 H       
  47 H47            0.4788    15.2801    -2.1979 H       
@<TRIPOS>BOND
   1    1    2 ar
   2    1    6 ar
   3    2    3 ar
   4    2   26 1
   5    3    4 ar
   6    3   27 1
   7    4    5 ar
   8    4   28 1
   9    5    6 ar
  10    5   29 1
  11    6    7 1
  12    7    8 2
  13    8    9 1
  14    9   12 ar
  15    9   11 ar
  16   10   11 ar
  17   10   14 ar
  18   10   15 1
  19   11   30 1
  20   12   13 ar
  21   12   31 1
  22   13   14 ar
  23   13   32 1
  24   14   17 1
  25   15   16 1
  26   16   33 1
  27   16   34 1
  28   16   35 1
  29   17   18 am
  30   17   36 1
  31   18   19 2
  32   18   20 1
  33   20   21 1
  34   20   22 1
  35   20   37 1
  36   21   24 1
  37   21   38 1
  38   21   39 1
  39   22   23 1
  40   22   40 1
  41   22   41 1
  42   23   25 1
  43   23   42 1
  44   23   43 1
  45   24   25 1
  46   24   44 1
  47   24   45 1
  48   25   46 1
  49   25   47 1

#	End of record

