#	Name: ASD00311192
#	Creating user name:	WinNT
#	Creation time:	15. 06. 2019 18:34

#	Modifying user name:	WinNT
#	Modification time:	15. 06. 2019 18:34

#	Program:	/corina/corina34_cracker 3.40 0067  02.08.2006

@<TRIPOS>MOLECULE
ASD00311192
  36   39    0    0    0
SMALL
NO_CHARGES


@<TRIPOS>ATOM
   1 C1            -0.0167     1.3775     0.0096 C.2     
   2 C2             0.0021    -0.0041     0.0020 C.2     
   3 C3             1.2587    -0.6767    -0.0136 C.2     
   4 C4             2.4314     0.0671    -0.0208 C.2     
   5 C5             2.3575     1.4747    -0.0125 C.2     
   6 N6             1.1651     2.0901     0.0022 N.am    
   7 C7            -1.3434    -0.5754     0.0118 C.2     
   8 C8            -2.3231     0.3265     0.0260 C.2     
   9 S9            -1.6791     1.9564     0.0358 S.3     
  10 O10            3.3826     2.1367    -0.0187 O.2     
  11 O11            1.3086    -2.0293    -0.0209 O.3     
  12 C12            3.7477    -0.6126    -0.0365 C.ar    
  13 C13            4.5930    -0.4749    -1.1371 C.ar    
  14 C14            5.8179    -1.1099    -1.1470 C.ar    
  15 C15            6.2086    -1.8832    -0.0659 C.ar    
  16 C16            5.3722    -2.0234     1.0297 C.ar    
  17 C17            4.1480    -1.3874     1.0518 C.ar    
  18 F18            7.4090    -2.5030    -0.0802 F       
  19 C19           -1.5960    -2.0356     0.0059 C.ar    
  20 C20           -2.2069    -2.6442     1.1017 C.ar    
  21 C21           -2.4399    -4.0041     1.0915 C.ar    
  22 C22           -2.0676    -4.7648    -0.0049 C.ar    
  23 C23           -1.4598    -4.1648    -1.0958 C.ar    
  24 C24           -1.2286    -2.8046    -1.0978 C.ar    
  25 F25           -2.2974    -6.0961    -0.0101 F       
  26 Cl26          -4.0152    -0.0613     0.0391 Cl      
  27 H27            1.1330     3.0595     0.0077 H       
  28 H28            2.2058    -2.3898    -0.0314 H       
  29 H29            4.2892     0.1274    -1.9805 H       
  30 H30            6.4731    -1.0042    -1.9991 H       
  31 H31            5.6810    -2.6279     1.8698 H       
  32 H32            3.4990    -1.4931     1.9084 H       
  33 H33           -2.4969    -2.0522     1.9571 H       
  34 H34           -2.9131    -4.4764     1.9397 H       
  35 H35           -1.1710    -4.7620    -1.9481 H       
  36 H36           -0.7595    -2.3369    -1.9509 H       
@<TRIPOS>BOND
   1    1    2 2
   2    1    6 1
   3    1    9 1
   4    2    3 1
   5    2    7 1
   6    3    4 2
   7    3   11 1
   8    4    5 1
   9    4   12 1
  10    5    6 am
  11    5   10 2
  12    6   27 1
  13    7    8 2
  14    7   19 1
  15    8    9 1
  16    8   26 1
  17   11   28 1
  18   12   13 ar
  19   12   17 ar
  20   13   14 ar
  21   13   29 1
  22   14   15 ar
  23   14   30 1
  24   15   16 ar
  25   15   18 1
  26   16   17 ar
  27   16   31 1
  28   17   32 1
  29   19   20 ar
  30   19   24 ar
  31   20   21 ar
  32   20   33 1
  33   21   22 ar
  34   21   34 1
  35   22   23 ar
  36   22   25 1
  37   23   24 ar
  38   23   35 1
  39   24   36 1

#	End of record

