#	Name: ASD01911524
#	Creating user name:	WinNT
#	Creation time:	15. 06. 2019 19:57

#	Modifying user name:	WinNT
#	Modification time:	15. 06. 2019 19:57

#	Program:	/corina/corina34_cracker 3.40 0067  02.08.2006

@<TRIPOS>MOLECULE
ASD01911524
  27   28    0    0    0
SMALL
NO_CHARGES


@<TRIPOS>ATOM
   1 N1            -0.0162     1.3400     0.0094 N.am    
   2 C2             0.0021    -0.0041     0.0020 C.2     
   3 C3             1.4295    -0.5050    -0.0042 C.3     
   4 C4             2.2649     0.7251     0.4200 C.3     
   5 C5             1.3438     1.8917    -0.0006 C.3     
   6 O6            -0.9826    -0.7121     0.0009 O.2     
   7 C7             2.5011     0.7316     1.9317 C.3     
   8 C8             3.5921     0.7740    -0.3396 C.3     
   9 C9            -1.1780     2.1110     0.0193 C.ar    
  10 C10           -2.4221     1.4964     0.1276 C.ar    
  11 N11           -1.0996     3.4319    -0.0690 N.ar    
  12 N12           -3.5197     2.2291     0.1366 N.ar    
  13 C13           -3.4382     3.5463     0.0429 C.ar    
  14 C14           -2.2027     4.1603    -0.0594 C.ar    
  15 Br15          -5.0134     4.5924     0.0556 Br      
  16 H16            1.5524    -1.3157     0.7140 H       
  17 H17            1.7143    -0.8332    -1.0039 H       
  18 H18            1.6040     2.2356    -1.0017 H       
  19 H19            1.4235     2.7115     0.7133 H       
  20 H20            3.0609    -0.1595     2.2158 H       
  21 H21            3.0689     1.6204     2.2069 H       
  22 H22            1.5419     0.7385     2.4493 H       
  23 H23            3.3962     0.8107    -1.4113 H       
  24 H24            4.1489     1.6624    -0.0415 H       
  25 H25            4.1767    -0.1161    -0.1074 H       
  26 H26           -2.4891     0.4211     0.2038 H       
  27 H27           -2.1393     5.2360    -0.1309 H       
@<TRIPOS>BOND
   1    1    2 am
   2    1    5 1
   3    1    9 1
   4    2    3 1
   5    2    6 2
   6    3    4 1
   7    3   16 1
   8    3   17 1
   9    4    5 1
  10    4    7 1
  11    4    8 1
  12    5   18 1
  13    5   19 1
  14    7   20 1
  15    7   21 1
  16    7   22 1
  17    8   23 1
  18    8   24 1
  19    8   25 1
  20    9   10 ar
  21    9   11 ar
  22   10   12 ar
  23   10   26 1
  24   11   14 ar
  25   12   13 ar
  26   13   14 ar
  27   13   15 1
  28   14   27 1

#	End of record

