#	Name: ASD01028236
#	Creating user name:	WinNT
#	Creation time:	15. 06. 2019 18:56

#	Modifying user name:	WinNT
#	Modification time:	15. 06. 2019 18:56

#	Program:	/corina/corina34_cracker 3.40 0067  02.08.2006

@<TRIPOS>MOLECULE
ASD01028236
  39   43    0    0    0
SMALL
NO_CHARGES


@<TRIPOS>ATOM
   1 C1            -0.0170     1.4002     0.0097 C.ar    
   2 C2             0.0021    -0.0041     0.0020 C.ar    
   3 C3             1.1994     2.0858     0.0018 C.ar    
   4 N4             2.3266     1.3793    -0.0128 N.ar    
   5 C5             2.3040     0.0586    -0.0196 C.ar    
   6 N6             1.1839    -0.6292    -0.0130 N.ar    
   7 N7             1.2318     3.4709     0.0085 N.pl3   
   8 C8             2.5172     4.1737    -0.0000 C.3     
   9 C9             2.2765     5.6613     0.0098 C.2     
  10 N10            2.1594     6.4428     1.1055 N.pl3   
  11 C11            1.9488     7.7192     0.6401 C.2     
  12 N12            1.9488     7.6498    -0.6810 N.2     
  13 N13            2.1488     6.4305    -1.0426 N.2     
  14 N14            2.2108     6.1980     2.4792 N.2     
  15 C15            2.0589     7.1820     3.3378 C.2     
  16 C16            1.8408     8.5027     2.8915 C.2     
  17 C17            1.7867     8.7722     1.5604 C.2     
  18 C18            2.1169     6.9003     4.7933 C.ar    
  19 C19            2.3312     5.5999     5.2459 C.ar    
  20 C20            1.9630     7.9361     5.7127 C.ar    
  21 C21            2.0184     7.6684     7.0655 C.ar    
  22 C22            2.2266     6.3749     7.5093 C.ar    
  23 C23            2.3848     5.3437     6.6010 C.ar    
  24 N24           -1.2810    -0.4117     0.0121 N.2     
  25 C25           -2.0731     0.6241     0.0252 C.2     
  26 N26           -1.3468     1.7645     0.0190 N.pl3   
  27 H27            3.2419    -0.4766    -0.0318 H       
  28 H28            0.4033     3.9754     0.0188 H       
  29 H29            3.0908     3.8926     0.8832 H       
  30 H30            3.0741     3.9016    -0.8966 H       
  31 H31            1.7175     9.3008     3.6086 H       
  32 H32            1.6204     9.7812     1.2131 H       
  33 H33            2.4549     4.7940     4.5377 H       
  34 H34            1.8011     8.9465     5.3673 H       
  35 H35            1.8993     8.4704     7.7790 H       
  36 H36            2.2699     6.1701     8.5688 H       
  37 H37            2.5467     4.3356     6.9530 H       
  38 H38           -3.1520     0.5778     0.0353 H       
  39 H39           -1.6958     2.6695     0.0265 H       
@<TRIPOS>BOND
   1    1    2 ar
   2    1    3 ar
   3    1   26 1
   4    2   24 1
   5    2    6 ar
   6    3    4 ar
   7    3    7 1
   8    4    5 ar
   9    5    6 ar
  10    5   27 1
  11    7    8 1
  12    7   28 1
  13    8    9 1
  14    8   29 1
  15    8   30 1
  16    9   10 1
  17    9   13 2
  18   10   11 1
  19   10   14 1
  20   11   12 2
  21   11   17 1
  22   12   13 1
  23   14   15 2
  24   15   16 1
  25   15   18 1
  26   16   17 2
  27   16   31 1
  28   17   32 1
  29   18   19 ar
  30   18   20 ar
  31   19   23 ar
  32   19   33 1
  33   20   21 ar
  34   20   34 1
  35   21   22 ar
  36   21   35 1
  37   22   23 ar
  38   22   36 1
  39   23   37 1
  40   24   25 2
  41   25   26 1
  42   25   38 1
  43   26   39 1

#	End of record

