#	Name: ASD09080087
#	Creating user name:	WinNT
#	Creation time:	15. 06. 2019 21:20

#	Modifying user name:	WinNT
#	Modification time:	15. 06. 2019 21:20

#	Program:	/corina/corina34_cracker 3.40 0067  02.08.2006

@<TRIPOS>MOLECULE
ASD09080087
  49   50    0    0    0
SMALL
NO_CHARGES


@<TRIPOS>ATOM
   1 C1            -0.0167     1.3772     0.0096 C.ar    
   2 C2             0.0021    -0.0041     0.0020 C.ar    
   3 C3            -1.1962    -0.7147     0.0096 C.ar    
   4 C4            -2.4082    -0.0278     0.0249 C.ar    
   5 C5            -2.4165     1.3536     0.0324 C.ar    
   6 C6            -1.2232     2.0552     0.0305 C.ar    
   7 Cl7            1.4756     2.2642     0.0001 Cl      
   8 Cl8           -3.9258     2.2111     0.0514 Cl      
   9 C9            -1.1817    -2.1986     0.0010 C.ar    
  10 C10            0.0249    -2.8945    -0.0147 C.ar    
  11 C11           -2.3784    -2.9205     0.0144 C.ar    
  12 C12           -2.3112    -4.3030     0.0055 C.ar    
  13 C13           -1.0735    -4.9200    -0.0160 C.ar    
  14 N14            0.0391    -4.2119    -0.0224 N.ar    
  15 C15           -0.9950    -6.4250    -0.0257 C.3     
  16 C16           -0.1595    -6.8844    -1.2223 C.3     
  17 C17            0.0249    -8.4021    -1.1630 C.3     
  18 N18           -0.8468    -6.5241    -2.4649 N.am    
  19 C19            0.8604    -8.8615    -2.3595 C.3     
  20 O20            0.6952    -8.7535     0.0491 O.3     
  21 C21            1.1457   -10.3361    -2.2364 C.2     
  22 O22            0.1386   -11.2216    -2.2935 O.3     
  23 O23            2.2811   -10.7212    -2.0864 O.2     
  24 C24           -0.1409    -6.3530    -3.6002 C.2     
  25 C25           -0.8478    -5.9824    -4.8784 C.3     
  26 O26            1.0633    -6.4972    -3.5931 O.2     
  27 O27            0.1084    -5.8590    -5.9331 O.3     
  28 C28           -0.4611    -5.5081    -7.1959 C.3     
  29 O29            2.0927    -8.1384    -2.3858 O.3     
  30 H30            0.9441    -0.5322    -0.0102 H       
  31 H31           -3.3397    -0.5743     0.0305 H       
  32 H32           -1.2338     3.1351     0.0364 H       
  33 H33            0.9571    -2.3492    -0.0210 H       
  34 H34           -3.3313    -2.4126     0.0315 H       
  35 H35           -3.2154    -4.8935     0.0157 H       
  36 H36           -0.5288    -6.7704     0.8970 H       
  37 H37           -1.9996    -6.8407    -0.1030 H       
  38 H38            0.8158    -6.3985    -1.1924 H       
  39 H39           -0.9504    -8.8880    -1.1928 H       
  40 H40           -1.8099    -6.4088    -2.4706 H       
  41 H41            0.3093    -8.6737    -3.2810 H       
  42 H42            1.5716    -8.3557     0.1435 H       
  43 H43            0.3708   -12.1566    -2.2098 H       
  44 H44           -1.5704    -6.7581    -5.1320 H       
  45 H45           -1.3660    -5.0328    -4.7449 H       
  46 H46           -1.1756    -6.2740    -7.4976 H       
  47 H47           -0.9712    -4.5487    -7.1104 H       
  48 H48            0.3293    -5.4341    -7.9429 H       
  49 H49            2.6362    -8.2588    -1.5951 H       
@<TRIPOS>BOND
   1    1    2 ar
   2    1    7 1
   3    1    6 ar
   4    2    3 ar
   5    2   30 1
   6    3    4 ar
   7    3    9 1
   8    4    5 ar
   9    4   31 1
  10    5    6 ar
  11    5    8 1
  12    6   32 1
  13    9   10 ar
  14    9   11 ar
  15   10   14 ar
  16   10   33 1
  17   11   12 ar
  18   11   34 1
  19   12   13 ar
  20   12   35 1
  21   13   14 ar
  22   13   15 1
  23   15   16 1
  24   15   36 1
  25   15   37 1
  26   16   17 1
  27   16   18 1
  28   16   38 1
  29   17   19 1
  30   17   20 1
  31   17   39 1
  32   18   24 am
  33   18   40 1
  34   19   21 1
  35   19   29 1
  36   19   41 1
  37   20   42 1
  38   21   22 1
  39   21   23 2
  40   22   43 1
  41   24   25 1
  42   24   26 2
  43   25   27 1
  44   25   44 1
  45   25   45 1
  46   27   28 1
  47   28   46 1
  48   28   47 1
  49   28   48 1
  50   29   49 1

#	End of record

