#	Name: ASD04910457
#	Creating user name:	WinNT
#	Creation time:	15. 06. 2019 20:55

#	Modifying user name:	WinNT
#	Modification time:	15. 06. 2019 20:55

#	Program:	/corina/corina34_cracker 3.40 0067  02.08.2006

@<TRIPOS>MOLECULE
ASD04910457
  61   64    0    0    0
SMALL
NO_CHARGES


@<TRIPOS>ATOM
   1 C1            -0.2700     1.4345     0.2410 C.2     
   2 C2            -0.2095    -0.0709     0.2049 C.3     
   3 C3             1.2514    -0.5212     0.1431 C.3     
   4 O4             0.7507     2.0808     0.2196 O.2     
   5 O5            -1.4579     2.0574     0.2915 O.3     
   6 C6             2.5028    -2.6100     0.0516 C.2     
   7 C7             2.5621    -4.0868     0.0161 C.ar    
   8 C8             3.7955    -4.7376    -0.0422 C.ar    
   9 C9             3.8439    -6.1159    -0.0746 C.ar    
  10 C10            2.6732    -6.8530    -0.0498 C.ar    
  11 C11            1.4473    -6.2142     0.0079 C.ar    
  12 C12            1.3851    -4.8365     0.0466 C.ar    
  13 O13            3.5295    -1.9598     0.0300 O.2     
  14 N14            1.3102    -1.9846     0.1079 N.am    
  15 C15            2.7337    -8.3584    -0.0865 C.3     
  16 C16            2.5545    -8.9106     1.3291 C.3     
  17 C17            2.7398   -10.4292     1.3113 C.3     
  18 C18            2.5606   -10.9814     2.7269 C.3     
  19 O19            1.6915    -8.8566    -0.9276 O.3     
  20 C20            1.9543    -9.9901    -1.6302 C.ar    
  21 C21            3.2169   -10.5631    -1.5752 C.ar    
  22 C22            3.4844   -11.7142    -2.2885 C.ar    
  23 C23            2.4896   -12.2989    -3.0613 C.ar    
  24 C24            1.2262   -11.7249    -3.1160 C.ar    
  25 C25            0.9583   -10.5769    -2.3977 C.ar    
  26 N26            3.9920   -14.1324    -3.8073 N.2     
  27 N27            2.7608   -13.4673    -3.7861 N.pl3   
  28 C28            1.8776   -14.1154    -4.5627 C.2     
  29 C29            2.5161   -15.2152    -5.1049 C.ar    
  30 C30            2.1338   -16.2569    -5.9773 C.ar    
  31 C31            3.0379   -17.2089    -6.3195 C.ar    
  32 C32            4.3460   -17.1890    -5.8308 C.ar    
  33 C33            4.7804   -16.2168    -4.9884 C.ar    
  34 C34            3.8938   -15.1930    -4.5892 C.ar    
  35 Cl35           6.4157   -16.2323    -4.4059 Cl      
  36 H36           -0.6766    -0.4749     1.1030 H       
  37 H37           -0.7394    -0.4347    -0.6754 H       
  38 H38            1.7185    -0.1172    -0.7551 H       
  39 H39            1.7813    -0.1574     1.0233 H       
  40 H40           -1.4461     3.0241     0.3132 H       
  41 H41            4.7100    -4.1633    -0.0622 H       
  42 H42            4.7976    -6.6207    -0.1197 H       
  43 H43            0.5372    -6.7954     0.0270 H       
  44 H44            0.4278    -4.3391     0.0962 H       
  45 H45            0.4908    -2.5035     0.1251 H       
  46 H46            3.7001    -8.6737    -0.4799 H       
  47 H47            3.2954    -8.4618     1.9907 H       
  48 H48            1.5538    -8.6709     1.6886 H       
  49 H49            1.9988   -10.8780     0.6498 H       
  50 H50            3.7405   -10.6689     0.9518 H       
  51 H51            2.6926   -12.0633     2.7143 H       
  52 H52            3.3016   -10.5327     3.3885 H       
  53 H53            1.5599   -10.7417     3.0865 H       
  54 H54            3.9905   -10.1081    -0.9744 H       
  55 H55            4.4673   -12.1599    -2.2458 H       
  56 H56            0.4522   -12.1791    -3.7168 H       
  57 H57           -0.0255   -10.1329    -2.4367 H       
  58 H58            0.8504   -13.8285    -4.7332 H       
  59 H59            1.1283   -16.2962    -6.3694 H       
  60 H60            2.7380   -18.0030    -6.9872 H       
  61 H61            5.0307   -17.9686    -6.1308 H       
@<TRIPOS>BOND
   1    1    2 1
   2    1    4 2
   3    1    5 1
   4    2    3 1
   5    2   36 1
   6    2   37 1
   7    3   14 1
   8    3   38 1
   9    3   39 1
  10    5   40 1
  11    6    7 1
  12    6   13 2
  13    6   14 am
  14    7    8 ar
  15    7   12 ar
  16    8    9 ar
  17    8   41 1
  18    9   10 ar
  19    9   42 1
  20   10   11 ar
  21   10   15 1
  22   11   12 ar
  23   11   43 1
  24   12   44 1
  25   14   45 1
  26   15   16 1
  27   15   19 1
  28   15   46 1
  29   16   17 1
  30   16   47 1
  31   16   48 1
  32   17   18 1
  33   17   49 1
  34   17   50 1
  35   18   51 1
  36   18   52 1
  37   18   53 1
  38   19   20 1
  39   20   21 ar
  40   20   25 ar
  41   21   22 ar
  42   21   54 1
  43   22   23 ar
  44   22   55 1
  45   23   24 ar
  46   23   27 1
  47   24   25 ar
  48   24   56 1
  49   25   57 1
  50   26   27 1
  51   26   34 2
  52   27   28 1
  53   28   29 2
  54   28   58 1
  55   29   30 ar
  56   29   34 ar
  57   30   31 ar
  58   30   59 1
  59   31   32 ar
  60   31   60 1
  61   32   33 ar
  62   32   61 1
  63   33   34 ar
  64   33   35 1

#	End of record

