#	Name: ASD03330547
#	Creating user name:	WinNT
#	Creation time:	15. 06. 2019 20:37

#	Modifying user name:	WinNT
#	Modification time:	15. 06. 2019 20:37

#	Program:	/corina/corina34_cracker 3.40 0067  02.08.2006

@<TRIPOS>MOLECULE
ASD03330547
  63   65    0    0    0
SMALL
NO_CHARGES


@<TRIPOS>ATOM
   1 C1            -0.0620     1.9736     1.7615 C.2     
   2 N2            -0.1463     0.6791     2.1674 N.pl3   
   3 C3             1.2176     2.1794     1.3428 C.2     
   4 N4             1.8885     1.0150     1.4803 N.2     
   5 C5             1.0764     0.1074     1.9691 C.2     
   6 C6             1.4281    -1.3003     2.2573 C.ar    
   7 C7             1.7710     3.4456     0.8308 C.2     
   8 O8             1.0630     4.4314     0.7531 O.2     
   9 C9             3.6119     4.7698    -0.0607 C.3     
  10 N10            3.0617     3.5111     0.4484 N.am    
  11 C11            3.3152     4.8879    -1.5570 C.3     
  12 C12            1.8076     4.7687    -1.7890 C.3     
  13 C13            3.8043     6.2444    -2.0684 C.3     
  14 C14            4.0371     3.7685    -2.3099 C.3     
  15 C15            5.1026     4.7918     0.1592 C.2     
  16 N16            5.7839     5.9489     0.0432 N.am    
  17 O17            5.6893     3.7683     0.4405 O.2     
  18 C18            7.2421     5.9576     0.1837 C.3     
  19 C19           -1.3405     0.0400     2.7269 C.3     
  20 C20           -2.5498     0.3803     1.8504 C.3     
  21 C21           -3.1722     1.6923     2.3172 C.3     
  22 N22           -2.1491     2.6116     2.8194 N.3     
  23 C23           -1.1904     2.9721     1.7643 C.3     
  24 C24           -2.7614     3.8109     3.4065 C.3     
  25 C25            2.1161    -2.0594     1.3089 C.ar    
  26 C26            2.4417    -3.3731     1.5851 C.ar    
  27 C27            2.0873    -3.9358     2.7976 C.ar    
  28 C28            1.4053    -3.1881     3.7414 C.ar    
  29 C29            1.0787    -1.8735     3.4805 C.ar    
  30 Cl30           2.5609    -1.3542    -0.2138 Cl      
  31 C31            1.0230    -3.8101     5.0598 C.3     
  32 H32            3.1543     5.6063     0.4676 H       
  33 H33            3.6264     2.7248     0.5103 H       
  34 H34            1.2934     5.5662    -1.2526 H       
  35 H35            1.5963     4.8529    -2.8550 H       
  36 H36            1.4592     3.8023    -1.4246 H       
  37 H37            4.8459     6.3871    -1.7806 H       
  38 H38            3.7200     6.2751    -3.1547 H       
  39 H39            3.1955     7.0374    -1.6342 H       
  40 H40            3.6887     2.8021    -1.9456 H       
  41 H41            3.8258     3.8527    -3.3759 H       
  42 H42            5.1112     3.8534    -2.1446 H       
  43 H43            5.3087     6.7759    -0.1332 H       
  44 H44            7.5140     5.5900     1.1731 H       
  45 H45            7.6842     5.3143    -0.5771 H       
  46 H46            7.6130     6.9750     0.0595 H       
  47 H47           -1.1990    -1.0406     2.7488 H       
  48 H48           -1.5095     0.4068     3.7393 H       
  49 H49           -2.2292     0.4800     0.8134 H       
  50 H50           -3.2881    -0.4180     1.9255 H       
  51 H51           -3.6927     2.1588     1.4809 H       
  52 H52           -3.8884     1.4854     3.1124 H       
  53 H53           -0.7943     3.9692     1.9569 H       
  54 H54           -1.6915     2.9585     0.7964 H       
  55 H55           -3.4073     3.5205     4.2351 H       
  56 H56           -1.9793     4.4765     3.7715 H       
  57 H57           -3.3520     4.3255     2.6485 H       
  58 H58            2.9736    -3.9620     0.8525 H       
  59 H59            2.3438    -4.9634     3.0088 H       
  60 H60            0.5466    -1.2914     4.2184 H       
  61 H61            1.8249    -3.6540     5.7813 H       
  62 H62            0.1075    -3.3470     5.4281 H       
  63 H63            0.8599    -4.8792     4.9234 H       
@<TRIPOS>BOND
   1    1    2 1
   2    1    3 2
   3    1   23 1
   4    2   19 1
   5    2    5 1
   6    3    4 1
   7    3    7 1
   8    4    5 2
   9    5    6 1
  10    6   25 ar
  11    6   29 ar
  12    7    8 2
  13    7   10 am
  14    9   10 1
  15    9   11 1
  16    9   15 1
  17    9   32 1
  18   10   33 1
  19   11   12 1
  20   11   13 1
  21   11   14 1
  22   12   34 1
  23   12   35 1
  24   12   36 1
  25   13   37 1
  26   13   38 1
  27   13   39 1
  28   14   40 1
  29   14   41 1
  30   14   42 1
  31   15   16 am
  32   15   17 2
  33   16   18 1
  34   16   43 1
  35   18   44 1
  36   18   45 1
  37   18   46 1
  38   19   20 1
  39   19   47 1
  40   19   48 1
  41   20   21 1
  42   20   49 1
  43   20   50 1
  44   21   22 1
  45   21   51 1
  46   21   52 1
  47   22   23 1
  48   22   24 1
  49   23   53 1
  50   23   54 1
  51   24   55 1
  52   24   56 1
  53   24   57 1
  54   25   26 ar
  55   25   30 1
  56   26   27 ar
  57   26   58 1
  58   27   28 ar
  59   27   59 1
  60   28   29 ar
  61   28   31 1
  62   29   60 1
  63   31   61 1
  64   31   62 1
  65   31   63 1

#	End of record

