#	Name: ASD03490071
#	Creating user name:	WinNT
#	Creation time:	15. 06. 2019 20:42

#	Modifying user name:	WinNT
#	Modification time:	15. 06. 2019 20:42

#	Program:	/corina/corina34_cracker 3.40 0067  02.08.2006

@<TRIPOS>MOLECULE
ASD03490071
  66   67    0    0    0
SMALL
NO_CHARGES


@<TRIPOS>ATOM
   1 O1            -0.0173     1.4248     0.0099 O.3     
   2 C2             0.0021    -0.0041     0.0020 C.3     
   3 C3            -1.4333    -0.5336     0.0129 C.3     
   4 C4            -1.4133    -2.0590     0.1302 C.3     
   5 O5            -2.0889    -0.1578    -1.2000 O.3     
   6 O6            -0.7451    -2.4429     1.3664 O.3     
   7 C7            -2.8478    -2.5888     0.1459 C.3     
   8 O8            -3.5156    -2.1510     1.3314 O.3     
   9 C9            -2.8879    -2.5966     2.5417 C.3     
  10 C10           -1.4348    -2.1680     2.4966 C.2     
  11 O11           -0.9148    -1.6051     3.4308 O.2     
  12 C12           -2.8424    -4.1161     0.0884 C.3     
  13 C13           -2.9379    -4.1292     2.5820 C.3     
  14 C14           -2.1960    -4.6767     1.3580 C.3     
  15 O15           -0.8249    -4.2776     1.4123 O.3     
  16 O16           -3.5516    -2.0246     3.6995 O.3     
  17 C17           -3.6612    -0.6874     3.7403 C.2     
  18 N18           -4.2196    -4.6051    -0.0144 N.am    
  19 C19           -4.4680    -5.8077    -0.5697 C.2     
  20 O20           -3.5515    -6.4852    -0.9844 O.2     
  21 C21           -5.8847    -6.3107    -0.6754 C.3     
  22 C22           -4.3380    -0.0222     4.9110 C.3     
  23 O23           -3.2172    -0.0171     2.8384 O.2     
  24 C24           -4.3290     1.4946     4.7109 C.3     
  25 C25           -5.0161     2.1699     5.8995 C.3     
  26 C26           -5.0070     3.6867     5.6994 C.3     
  27 C27           -5.6941     4.3621     6.8880 C.3     
  28 C28           -5.6851     5.8789     6.6878 C.3     
  29 C29           -6.3722     6.5542     7.8764 C.3     
  30 C30           -6.3632     8.0711     7.6763 C.3     
  31 C31           -7.0503     8.7464     8.8649 C.3     
  32 H32            0.8606     1.8301     0.0037 H       
  33 H33            0.5123    -0.3556    -0.8948 H       
  34 H34            0.5293    -0.3651     0.8851 H       
  35 H35           -1.9701    -0.1109     0.8621 H       
  36 H36           -0.8777    -2.4823    -0.7195 H       
  37 H37           -1.6646    -0.4999    -1.9987 H       
  38 H38           -3.3801    -2.2104    -0.7268 H       
  39 H39           -2.2754    -4.4444    -0.7828 H       
  40 H40           -2.4561    -4.4869     3.4919 H       
  41 H41           -3.9756    -4.4620     2.5597 H       
  42 H42           -2.2600    -5.7648     1.3497 H       
  43 H43           -0.3525    -4.5985     2.1927 H       
  44 H44           -4.9526    -4.0633     0.3172 H       
  45 H45           -6.4727    -5.6168    -1.2761 H       
  46 H46           -5.8872    -7.2928    -1.1483 H       
  47 H47           -6.3187    -6.3863     0.3215 H       
  48 H48           -5.3674    -0.3731     4.9830 H       
  49 H49           -3.8044    -0.2709     5.8284 H       
  50 H50           -3.2995     1.8455     4.6390 H       
  51 H51           -4.8625     1.7432     3.7935 H       
  52 H52           -6.0455     1.8190     5.9715 H       
  53 H53           -4.4825     1.9213     6.8169 H       
  54 H54           -3.9776     4.0376     5.6274 H       
  55 H55           -5.5406     3.9354     4.7820 H       
  56 H56           -6.7236     4.0112     6.9599 H       
  57 H57           -5.1606     4.1135     7.8053 H       
  58 H58           -4.6557     6.2298     6.6159 H       
  59 H59           -6.2187     6.1275     5.7704 H       
  60 H60           -7.4017     6.2034     7.9484 H       
  61 H61           -5.8387     6.3056     8.7938 H       
  62 H62           -5.3337     8.4219     7.6043 H       
  63 H63           -6.8968     8.3197     6.7589 H       
  64 H64           -6.5167     8.4978     9.7822 H       
  65 H65           -7.0439     9.8270     8.7223 H       
  66 H66           -8.0798     8.3955     8.9368 H       
@<TRIPOS>BOND
   1    1    2 1
   2    1   32 1
   3    2    3 1
   4    2   33 1
   5    2   34 1
   6    3    5 1
   7    3    4 1
   8    3   35 1
   9    4    6 1
  10    4    7 1
  11    4   36 1
  12    5   37 1
  13    6   10 1
  14    7    8 1
  15    7   12 1
  16    7   38 1
  17    8    9 1
  18    9   10 1
  19    9   13 1
  20    9   16 1
  21   10   11 2
  22   12   14 1
  23   12   18 1
  24   12   39 1
  25   13   14 1
  26   13   40 1
  27   13   41 1
  28   14   15 1
  29   14   42 1
  30   15   43 1
  31   16   17 1
  32   17   22 1
  33   17   23 2
  34   18   19 am
  35   18   44 1
  36   19   20 2
  37   19   21 1
  38   21   45 1
  39   21   46 1
  40   21   47 1
  41   22   24 1
  42   22   48 1
  43   22   49 1
  44   24   25 1
  45   24   50 1
  46   24   51 1
  47   25   26 1
  48   25   52 1
  49   25   53 1
  50   26   27 1
  51   26   54 1
  52   26   55 1
  53   27   28 1
  54   27   56 1
  55   27   57 1
  56   28   29 1
  57   28   58 1
  58   28   59 1
  59   29   30 1
  60   29   60 1
  61   29   61 1
  62   30   31 1
  63   30   62 1
  64   30   63 1
  65   31   64 1
  66   31   65 1
  67   31   66 1

#	End of record

