#	Name: ASD07932011
#	Creating user name:	WinNT
#	Creation time:	15. 06. 2019 21:14

#	Modifying user name:	WinNT
#	Modification time:	15. 06. 2019 21:14

#	Program:	/corina/corina34_cracker 3.40 0067  02.08.2006

@<TRIPOS>MOLECULE
ASD07932011
  21   21    0    0    0
SMALL
NO_CHARGES


@<TRIPOS>ATOM
   1 C1            -0.0168     1.3882     0.0097 C.ar    
   2 C2             0.0021    -0.0041     0.0020 C.ar    
   3 C3            -1.2049    -0.6794     0.0099 C.ar    
   4 C4            -2.3926     0.0525     0.0251 C.ar    
   5 N5            -2.3702     1.3806     0.0316 N.ar    
   6 C6            -1.2410     2.0518     0.0307 C.ar    
   7 C7            -3.6891    -0.6573     0.0336 C.2     
   8 O8            -3.7168    -1.8716     0.0274 O.2     
   9 O9            -4.8401     0.0427     0.0483 O.3     
  10 O10            1.1445     2.0903     0.0024 O.3     
  11 C11            1.0409     3.5156     0.0110 C.3     
  12 C12            2.4426     4.1288     0.0009 C.3     
  13 H13            0.9373    -0.5440    -0.0101 H       
  14 H14           -1.2277    -1.7591     0.0039 H       
  15 H15           -1.2624     3.1316     0.0365 H       
  16 H16           -5.6628    -0.4654     0.0534 H       
  17 H17            0.4936     3.8454    -0.8720 H       
  18 H18            0.5106     3.8359     0.9078 H       
  19 H19            2.9898     3.7990     0.8839 H       
  20 H20            2.9728     3.8085    -0.8959 H       
  21 H21            2.3635     5.2160     0.0075 H       
@<TRIPOS>BOND
   1    1    2 ar
   2    1   10 1
   3    1    6 ar
   4    2    3 ar
   5    2   13 1
   6    3    4 ar
   7    3   14 1
   8    4    5 ar
   9    4    7 1
  10    5    6 ar
  11    6   15 1
  12    7    8 2
  13    7    9 1
  14    9   16 1
  15   10   11 1
  16   11   12 1
  17   11   17 1
  18   11   18 1
  19   12   19 1
  20   12   20 1
  21   12   21 1

#	End of record

