#	Name: ASD07932191
#	Creating user name:	WinNT
#	Creation time:	15. 06. 2019 21:14

#	Modifying user name:	WinNT
#	Modification time:	15. 06. 2019 21:14

#	Program:	/corina/corina34_cracker 3.40 0067  02.08.2006

@<TRIPOS>MOLECULE
ASD07932191
  49   50    0    0    0
SMALL
NO_CHARGES


@<TRIPOS>ATOM
   1 N1            -0.0058     1.4468     0.2169 N.pl3   
   2 C2             0.0021    -0.0041     0.0020 C.3     
   3 C3             0.8304    -0.6732     1.1081 C.3     
   4 S4             2.4898     0.0764     1.1076 S.o2    
   5 N5             2.1538     1.7085     1.1103 N.am    
   6 C6             1.1734     2.1401     0.2462 C.2     
   7 C7             2.8666     2.6382     1.9898 C.3     
   8 C8            -1.4106    -0.5271     0.0446 C.ar    
   9 C9             0.6230    -0.3156    -1.3612 C.3     
  10 C10           -2.1701    -0.3779     1.1929 C.ar    
  11 O11            3.1484    -0.1553     2.3452 O.2     
  12 O12            3.1459    -0.1516    -0.1321 O.2     
  13 C13           -1.9505    -1.1506    -1.0640 C.ar    
  14 C14           -3.2468    -1.6301    -1.0254 C.ar    
  15 C15           -4.0041    -1.4864     0.1220 C.ar    
  16 C16           -3.4679    -0.8584     1.2304 C.ar    
  17 F17           -1.6449     0.2357     2.2759 F       
  18 N18            1.3653     3.1939    -0.5322 N.2     
  19 O19            0.5931     4.6698    -2.1583 O.3     
  20 C20           -0.4824     5.0426    -3.0223 C.3     
  21 C21           -1.7198     5.3703    -2.1842 C.3     
  22 C22           -0.0785     6.2724    -3.8380 C.3     
  23 C23           -0.8004     3.8841    -3.9697 C.3     
  24 C24            0.3976     3.5958    -1.3649 C.2     
  25 O25           -0.6589     2.9925    -1.4067 O.2     
  26 N26           -3.8241    -2.2973    -2.2136 N.pl3   
  27 O27           -3.1574    -2.4238    -3.2251 O.2     
  28 O28           -4.9660    -2.7199    -2.1801 O.2     
  29 H29           -0.8470     1.9152     0.3341 H       
  30 H30            0.3535    -0.5102     2.0745 H       
  31 H31            0.9099    -1.7426     0.9122 H       
  32 H32            3.7519     3.0159     1.4782 H       
  33 H33            2.2116     3.4712     2.2454 H       
  34 H34            3.1668     2.1194     2.9002 H       
  35 H35            1.6455     0.0609    -1.3893 H       
  36 H36            0.6284    -1.3940    -1.5200 H       
  37 H37            0.0374     0.1642    -2.1454 H       
  38 H38           -1.3599    -1.2631    -1.9611 H       
  39 H39           -5.0165    -1.8613     0.1511 H       
  40 H40           -4.0596    -0.7466     2.1270 H       
  41 H41           -1.4932     6.1957    -1.5092 H       
  42 H42           -2.5401     5.6546    -2.8432 H       
  43 H43           -2.0075     4.4942    -1.6030 H       
  44 H44            0.8030     6.0389    -4.4351 H       
  45 H45           -0.8989     6.5567    -4.4970 H       
  46 H46            0.1480     7.0977    -3.1630 H       
  47 H47           -1.0881     3.0079    -3.3886 H       
  48 H48           -1.6207     4.1684    -4.6288 H       
  49 H49            0.0811     3.6506    -4.5668 H       
@<TRIPOS>BOND
   1    1    2 1
   2    1    6 1
   3    1   29 1
   4    2    3 1
   5    2    8 1
   6    2    9 1
   7    3    4 1
   8    3   30 1
   9    3   31 1
  10    4    5 am
  11    4   11 2
  12    4   12 2
  13    5    6 1
  14    5    7 1
  15    6   18 2
  16    7   32 1
  17    7   33 1
  18    7   34 1
  19    8   13 ar
  20    8   10 ar
  21    9   35 1
  22    9   36 1
  23    9   37 1
  24   10   17 1
  25   10   16 ar
  26   13   14 ar
  27   13   38 1
  28   14   15 ar
  29   14   26 1
  30   15   16 ar
  31   15   39 1
  32   16   40 1
  33   18   24 1
  34   19   20 1
  35   19   24 1
  36   20   21 1
  37   20   22 1
  38   20   23 1
  39   21   41 1
  40   21   42 1
  41   21   43 1
  42   22   44 1
  43   22   45 1
  44   22   46 1
  45   23   47 1
  46   23   48 1
  47   23   49 1
  48   24   25 2
  49   26   27 2
  50   26   28 2

#	End of record

