#	Name: ASD02408435
#	Creating user name:	WinNT
#	Creation time:	15. 06. 2019 20:21

#	Modifying user name:	WinNT
#	Modification time:	15. 06. 2019 20:21

#	Program:	/corina/corina34_cracker 3.40 0067  02.08.2006

@<TRIPOS>MOLECULE
ASD02408435
  45   48    0    0    0
SMALL
NO_CHARGES


@<TRIPOS>ATOM
   1 N1            -0.0163     1.3525     0.0095 N.am    
   2 C2             0.0021    -0.0041     0.0020 C.2     
   3 N3             1.1023    -0.6986    -0.0118 N.2     
   4 C4             2.3093    -0.1135    -0.0202 C.2     
   5 C5             2.3912     1.2878    -0.0139 C.2     
   6 C6             1.1433     2.0508     0.0022 C.2     
   7 N7             3.5900    -0.5770    -0.0351 N.pl3   
   8 N8             4.4551     0.5245    -0.0379 N.2     
   9 C9             3.7576     1.6269    -0.0255 C.2     
  10 C10           -1.3126    -0.7406     0.0107 C.3     
  11 C11           -1.0526    -2.2483     0.0001 C.3     
  12 C12            3.9744    -1.9196    -0.0452 C.ar    
  13 C13            5.2105    -2.2777    -0.5692 C.ar    
  14 C14            5.5794    -3.6119    -0.5727 C.ar    
  15 C15            4.6950    -4.5446    -0.0497 C.ar    
  16 C16            3.4820    -4.1173     0.4551 C.ar    
  17 N17            3.1601    -2.8385     0.4495 N.ar    
  18 O18            1.1475     3.2691     0.0079 O.2     
  19 C19           -2.3810    -3.0133     0.1347 C.3     
  20 C20           -2.5260    -3.8720    -1.1386 C.3     
  21 C21           -1.0728    -4.0503    -1.6441 C.3     
  22 C22           -0.4368    -2.6689    -1.3504 C.3     
  23 C23            2.5166    -5.1249     1.0241 C.3     
  24 C24            2.1460    -4.7252     2.4538 C.3     
  25 H25           -0.8640     1.8240     0.0161 H       
  26 H26            4.1598     2.6292    -0.0249 H       
  27 H27           -1.8722    -0.4747     0.9075 H       
  28 H28           -1.8892    -0.4652    -0.8724 H       
  29 H29           -0.3825    -2.5171     0.8167 H       
  30 H30            5.8743    -1.5252    -0.9687 H       
  31 H31            6.5337    -3.9200    -0.9738 H       
  32 H32            4.9520    -5.5935    -0.0377 H       
  33 H33           -2.3552    -3.6539     1.0162 H       
  34 H34           -3.2109    -2.3104     0.2076 H       
  35 H35           -2.9677    -4.8390    -0.8983 H       
  36 H36           -3.1278    -3.3512    -1.8835 H       
  37 H37           -0.5636    -4.8364    -1.0865 H       
  38 H38           -1.0590    -4.2625    -2.7131 H       
  39 H39           -0.7012    -1.9538    -2.1294 H       
  40 H40            0.6461    -2.7580    -1.2646 H       
  41 H41            1.6166    -5.1529     0.4099 H       
  42 H42            2.9823    -6.1103     1.0315 H       
  43 H43            3.0460    -4.6972     3.0680 H       
  44 H44            1.6804    -3.7397     2.4464 H       
  45 H45            1.4478    -5.4539     2.8654 H       
@<TRIPOS>BOND
   1    1    2 1
   2    1    6 am
   3    1   25 1
   4    2    3 2
   5    2   10 1
   6    3    4 1
   7    4    5 2
   8    4    7 1
   9    5    6 1
  10    5    9 1
  11    6   18 2
  12    7    8 1
  13    7   12 1
  14    8    9 2
  15    9   26 1
  16   10   11 1
  17   10   27 1
  18   10   28 1
  19   11   19 1
  20   11   22 1
  21   11   29 1
  22   12   13 ar
  23   12   17 ar
  24   13   14 ar
  25   13   30 1
  26   14   15 ar
  27   14   31 1
  28   15   16 ar
  29   15   32 1
  30   16   17 ar
  31   16   23 1
  32   19   20 1
  33   19   33 1
  34   19   34 1
  35   20   21 1
  36   20   35 1
  37   20   36 1
  38   21   22 1
  39   21   37 1
  40   21   38 1
  41   22   39 1
  42   22   40 1
  43   23   24 1
  44   23   41 1
  45   23   42 1
  46   24   43 1
  47   24   44 1
  48   24   45 1

#	End of record

