#	Name: ASD01917564
#	Creating user name:	WinNT
#	Creation time:	15. 06. 2019 20:09

#	Modifying user name:	WinNT
#	Modification time:	15. 06. 2019 20:09

#	Program:	/corina/corina34_cracker 3.40 0067  02.08.2006

@<TRIPOS>MOLECULE
ASD01917564
  44   47    0    0    0
SMALL
NO_CHARGES


@<TRIPOS>ATOM
   1 N1             4.8204    -0.4104    -2.1421 N.ar    
   2 C2             5.2865     0.2870    -3.1596 C.ar    
   3 C3             5.1741     1.6668    -3.1857 C.ar    
   4 C4             4.5609     2.3159    -2.1234 C.ar    
   5 C5             4.0810     1.5474    -1.0681 C.ar    
   6 C6             4.2318     0.1685    -1.1147 C.ar    
   7 F7             5.6557     2.3725    -4.2323 F       
   8 O8             3.4733     2.1384    -0.0061 O.3     
   9 C9             3.4535     3.4978     0.0432 C.2     
  10 N10            2.2007     5.5128    -0.0223 N.pl3   
  11 C11            2.2716     4.1522    -0.0659 C.2     
  12 C12            4.6544     4.1994     0.2117 C.2     
  13 C13            4.6289     5.5876     0.2615 C.2     
  14 C14            3.3357     6.2650     0.1345 C.2     
  15 C15            5.8701     6.3588     0.4379 C.2     
  16 N16            5.8263     7.7050     0.4839 N.am    
  17 C17            6.9837     8.4307     0.7562 C.ar    
  18 N18            8.1433     7.8006     0.8618 N.ar    
  19 C19            6.9116     9.8107     0.9089 C.ar    
  20 C20            8.0691    10.5194     1.1792 C.ar    
  21 C21            9.2634     9.8205     1.2877 C.ar    
  22 C22            9.2625     8.4498     1.1186 C.ar    
  23 O23            6.9355     5.7810     0.5422 O.2     
  24 C24            1.1516     6.3893    -0.1081 C.2     
  25 C25            1.6640     7.6344    -0.0102 C.2     
  26 N26            2.9889     7.5393     0.1424 N.2     
  27 C27           10.5568     7.6858     1.2295 C.3     
  28 C28           10.4076     6.5788     2.2750 C.3     
  29 H29            5.7626    -0.2246    -3.9830 H       
  30 H30            4.4592     3.3910    -2.1161 H       
  31 H31            3.8625    -0.4369    -0.3002 H       
  32 H32            1.3633     3.5814    -0.1908 H       
  33 H33            5.5897     3.6669     0.3023 H       
  34 H34            4.9887     8.1686     0.3273 H       
  35 H35            5.9650    10.3227     0.8175 H       
  36 H36            8.0437    11.5920     1.3025 H       
  37 H37           10.1846    10.3438     1.4976 H       
  38 H38            0.1104     6.1326    -0.2364 H       
  39 H39            1.0975     8.5534    -0.0416 H       
  40 H40           10.8013     7.2432     0.2639 H       
  41 H41           11.3548     8.3647     1.5305 H       
  42 H42           11.3437     6.0262     2.3552 H       
  43 H43           10.1631     7.0215     3.2405 H       
  44 H44            9.6097     5.8999     1.9740 H       
@<TRIPOS>BOND
   1    1    2 ar
   2    1    6 ar
   3    2    3 ar
   4    2   29 1
   5    3    4 ar
   6    3    7 1
   7    4    5 ar
   8    4   30 1
   9    5    6 ar
  10    5    8 1
  11    6   31 1
  12    8    9 1
  13    9   12 1
  14    9   11 2
  15   10   11 1
  16   10   24 1
  17   10   14 1
  18   11   32 1
  19   12   13 2
  20   12   33 1
  21   13   14 1
  22   13   15 1
  23   14   26 2
  24   15   16 am
  25   15   23 2
  26   16   17 1
  27   16   34 1
  28   17   19 ar
  29   17   18 ar
  30   18   22 ar
  31   19   20 ar
  32   19   35 1
  33   20   21 ar
  34   20   36 1
  35   21   22 ar
  36   21   37 1
  37   22   27 1
  38   24   25 2
  39   24   38 1
  40   25   26 1
  41   25   39 1
  42   27   28 1
  43   27   40 1
  44   27   41 1
  45   28   42 1
  46   28   43 1
  47   28   44 1

#	End of record

