#	Name: ASD03091686
#	Creating user name:	WinNT
#	Creation time:	15. 06. 2019 20:31

#	Modifying user name:	WinNT
#	Modification time:	15. 06. 2019 20:31

#	Program:	/corina/corina34_cracker 3.40 0067  02.08.2006

@<TRIPOS>MOLECULE
ASD03091686
  39   41    0    0    0
SMALL
NO_CHARGES


@<TRIPOS>ATOM
   1 C1            -0.0169     1.3974     0.0097 C.ar    
   2 C2             0.0021    -0.0041     0.0020 C.ar    
   3 N3             1.1639    -0.6602    -0.0129 N.ar    
   4 C4             2.3169    -0.0324    -0.0208 C.ar    
   5 C5             2.3777     1.3539    -0.0140 C.ar    
   6 C6             1.2230     2.0821     0.0016 C.ar    
   7 S7            -1.6507    -0.6111     0.0155 S.3     
   8 C8            -2.3031     1.0177     0.0309 C.2     
   9 C9            -1.3183     1.9217     0.0306 C.2     
  10 C10           -3.7363     1.3436     0.0464 C.2     
  11 O11           -4.0958     2.5057     0.0559 O.2     
  12 N12           -4.6522     0.3548     0.0501 N.am    
  13 N13           -7.5893    -0.0619     1.8459 N.3     
  14 C14           -6.5393     0.9085     1.5087 C.3     
  15 C15           -6.0806     0.6796     0.0656 C.3     
  16 C16           -6.8795    -0.4873    -0.5285 C.3     
  17 C17           -8.3718    -0.1369    -0.4730 C.3     
  18 C18           -8.7671     0.1140     0.9850 C.3     
  19 C19           -7.0812    -1.4384     1.7671 C.3     
  20 C20           -6.6373    -1.7340     0.3317 C.3     
  21 H21            3.2330    -0.6043    -0.0325 H       
  22 H22            3.3346     1.8547    -0.0206 H       
  23 H23            1.2543     3.1617     0.0067 H       
  24 H24           -1.5115     2.9842     0.0393 H       
  25 H25           -4.3655    -0.5718     0.0425 H       
  26 H26           -6.9330     1.9200     1.6089 H       
  27 H27           -5.6936     0.7786     2.1839 H       
  28 H28           -6.2587     1.5805    -0.5216 H       
  29 H29           -6.5741    -0.6641    -1.5598 H       
  30 H30           -8.5582     0.7613    -1.0616 H       
  31 H31           -8.9566    -0.9655    -0.8725 H       
  32 H32           -9.5415    -0.5944     1.2789 H       
  33 H33           -9.1453     1.1309     1.0894 H       
  34 H34           -6.2320    -1.5517     2.4410 H       
  35 H35           -7.8695    -2.1341     2.0546 H       
  36 H36           -7.2151    -2.5690    -0.0646 H       
  37 H37           -5.5765    -1.9842     0.3217 H       
  38 Cl38           8.3346     8.1617     7.4410 Cl      
  39 H39            8.3346     9.5317     7.4410 H       
@<TRIPOS>BOND
   1    1    2 ar
   2    1    6 ar
   3    1    9 1
   4    2    3 ar
   5    2    7 1
   6    3    4 ar
   7    4    5 ar
   8    4   21 1
   9    5    6 ar
  10    5   22 1
  11    6   23 1
  12    7    8 1
  13    8    9 2
  14    8   10 1
  15    9   24 1
  16   10   11 2
  17   10   12 am
  18   12   15 1
  19   12   25 1
  20   13   14 1
  21   13   18 1
  22   13   19 1
  23   14   15 1
  24   14   26 1
  25   14   27 1
  26   15   16 1
  27   15   28 1
  28   16   17 1
  29   16   20 1
  30   16   29 1
  31   17   18 1
  32   17   30 1
  33   17   31 1
  34   18   32 1
  35   18   33 1
  36   19   20 1
  37   19   34 1
  38   19   35 1
  39   20   36 1
  40   20   37 1
  41   38   39 1

#	End of record

