#	Name: ASD03081135
#	Creating user name:	WinNT
#	Creation time:	15. 06. 2019 20:27

#	Modifying user name:	WinNT
#	Modification time:	15. 06. 2019 20:27

#	Program:	/corina/corina34_cracker 3.40 0067  02.08.2006

@<TRIPOS>MOLECULE
ASD03081135
  25   27    0    0    0
SMALL
NO_CHARGES


@<TRIPOS>ATOM
   1 O1            -0.0144     1.2085     0.0087 O.3     
   2 N2             0.0021    -0.0041     0.0020 N.2     
   3 C3             1.2348    -0.4424    -0.0121 C.2     
   4 N4             2.0460     0.6359    -0.0141 N.2     
   5 C5             1.2413     1.6828    -0.0008 C.2     
   6 C6             1.6454     3.1031     0.0023 C.ar    
   7 C7             0.6742     4.1089     0.0167 C.ar    
   8 C8             1.0593     5.4377     0.0199 C.ar    
   9 C9             2.4051     5.7714     0.0089 C.ar    
  10 C10            3.3721     4.7757    -0.0054 C.ar    
  11 C11            2.9990     3.4466    -0.0034 C.ar    
  12 F12            4.6815     5.1081    -0.0160 F       
  13 F13            2.7766     7.0703     0.0117 F       
  14 F14            0.1229     6.4115     0.0334 F       
  15 F15           -0.6371     3.7838     0.0269 F       
  16 C16            2.4332    -4.4281    -0.0438 C.ar    
  17 N17            1.1449    -4.1485    -0.0300 N.ar    
  18 C18            0.7212    -2.8963    -0.0194 C.ar    
  19 C19            1.6622    -1.8639    -0.0231 C.ar    
  20 C20            3.0164    -2.2061    -0.0379 C.ar    
  21 N21            3.3536    -3.4843    -0.0477 N.ar    
  22 H22            3.7530     2.6734    -0.0104 H       
  23 H23            2.7441    -5.4623    -0.0475 H       
  24 H24           -0.3358    -2.6749    -0.0084 H       
  25 H25            3.7761    -1.4384    -0.0416 H       
@<TRIPOS>BOND
   1    1    2 1
   2    1    5 1
   3    2    3 2
   4    3    4 1
   5    3   19 1
   6    4    5 2
   7    5    6 1
   8    6    7 ar
   9    6   11 ar
  10    7    8 ar
  11    7   15 1
  12    8    9 ar
  13    8   14 1
  14    9   10 ar
  15    9   13 1
  16   10   11 ar
  17   10   12 1
  18   11   22 1
  19   16   17 ar
  20   16   21 ar
  21   16   23 1
  22   17   18 ar
  23   18   19 ar
  24   18   24 1
  25   19   20 ar
  26   20   21 ar
  27   20   25 1

#	End of record

