#	Name: ASD05940064
#	Creating user name:	WinNT
#	Creation time:	15. 06. 2019 21:04

#	Modifying user name:	WinNT
#	Modification time:	15. 06. 2019 21:04

#	Program:	/corina/corina34_cracker 3.40 0067  02.08.2006

@<TRIPOS>MOLECULE
ASD05940064
  49   52    0    0    0
SMALL
NO_CHARGES


@<TRIPOS>ATOM
   1 N1            -0.0159     1.3182     0.0093 N.ar    
   2 C2             0.0021    -0.0041     0.0020 C.ar    
   3 N3             1.1319    -0.6930    -0.0105 N.ar    
   4 C4             2.3066    -0.0681    -0.0163 C.ar    
   5 C5             2.3274     1.3257    -0.0126 C.ar    
   6 C6             1.1197     2.0168     0.0022 C.ar    
   7 N7             3.5574     2.0049    -0.0281 N.am    
   8 N8             1.0977     3.4049     0.0098 N.pl3   
   9 O9            -1.1750    -0.6756     0.0081 O.3     
  10 C10           -2.3694     0.1089     0.0221 C.3     
  11 C11           -3.5875    -0.8168     0.0271 C.3     
  12 N12            3.4912    -0.7844    -0.0204 N.3     
  13 C13            4.5325    -0.1235    -0.8134 C.3     
  14 C14            4.6626     1.3204    -0.4025 C.2     
  15 O15            5.7474     1.8633    -0.4070 O.2     
  16 C16            3.2721    -2.1615    -0.4823 C.3     
  17 C17            4.6021    -2.8332    -0.7082 C.ar    
  18 C18            5.2202    -3.5243     0.3169 C.ar    
  19 C19            5.2184    -2.7706    -1.9484 C.ar    
  20 C20            6.4416    -3.4034    -2.1102 C.ar    
  21 C21            7.0017    -4.0707    -1.0376 C.ar    
  22 N22            6.3839    -4.1144     0.1268 N.ar    
  23 C23            8.3304    -4.7624    -1.2022 C.3     
  24 C24           -3.6572    -1.6094     1.3468 C.3     
  25 O25           -4.8656    -1.2157     2.0184 O.3     
  26 C26           -5.7915    -0.7805     0.9996 C.3     
  27 C27           -4.8964     0.0099     0.0114 C.3     
  28 H28            3.6127     2.9401     0.2234 H       
  29 H29            1.9299     3.9032     0.0049 H       
  30 H30            0.2501     3.8765     0.0201 H       
  31 H31           -2.3836     0.7330     0.9156 H       
  32 H32           -2.3983     0.7426    -0.8643 H       
  33 H33           -3.5528    -1.4962    -0.8245 H       
  34 H34            5.4839    -0.6312    -0.6548 H       
  35 H35            4.2696    -0.1760    -1.8699 H       
  36 H36            2.7102    -2.7126     0.2718 H       
  37 H37            2.7095    -2.1464    -1.4158 H       
  38 H38            4.7447    -3.5812     1.2850 H       
  39 H39            4.7566    -2.2418    -2.7691 H       
  40 H40            6.9500    -3.3754    -3.0627 H       
  41 H41            9.1343    -4.0677    -0.9585 H       
  42 H42            8.3778    -5.6219    -0.5336 H       
  43 H43            8.4402    -5.0977    -2.2335 H       
  44 H44           -3.6817    -2.6786     1.1362 H       
  45 H45           -2.7937    -1.3716     1.9680 H       
  46 H46           -6.2471    -1.6375     0.5035 H       
  47 H47           -6.5561    -0.1322     1.4275 H       
  48 H48           -4.7205     1.0236     0.3714 H       
  49 H49           -5.3359     0.0235    -0.9859 H       
@<TRIPOS>BOND
   1    1    2 ar
   2    1    6 ar
   3    2    3 ar
   4    2    9 1
   5    3    4 ar
   6    4    5 ar
   7    4   12 1
   8    5    6 ar
   9    5    7 1
  10    6    8 1
  11    7   14 am
  12    7   28 1
  13    8   29 1
  14    8   30 1
  15    9   10 1
  16   10   11 1
  17   10   31 1
  18   10   32 1
  19   11   24 1
  20   11   27 1
  21   11   33 1
  22   12   13 1
  23   12   16 1
  24   13   14 1
  25   13   34 1
  26   13   35 1
  27   14   15 2
  28   16   17 1
  29   16   36 1
  30   16   37 1
  31   17   18 ar
  32   17   19 ar
  33   18   22 ar
  34   18   38 1
  35   19   20 ar
  36   19   39 1
  37   20   21 ar
  38   20   40 1
  39   21   22 ar
  40   21   23 1
  41   23   41 1
  42   23   42 1
  43   23   43 1
  44   24   25 1
  45   24   44 1
  46   24   45 1
  47   25   26 1
  48   26   27 1
  49   26   46 1
  50   26   47 1
  51   27   48 1
  52   27   49 1

#	End of record

