#	Name: ASD01881930
#	Creating user name:	WinNT
#	Creation time:	15. 06. 2019 19:43

#	Modifying user name:	WinNT
#	Modification time:	15. 06. 2019 19:43

#	Program:	/corina/corina34_cracker 3.40 0067  02.08.2006

@<TRIPOS>MOLECULE
ASD01881930
  52   56    0    0    0
SMALL
NO_CHARGES


@<TRIPOS>ATOM
   1 C1            -0.3504     1.0877     0.5001 C.2     
   2 N2            -0.4209    -0.2323     0.7064 N.am    
   3 C3             0.8036    -0.7916     0.7695 C.2     
   4 C4             1.7848     0.3471     0.5737 C.3     
   5 N5             0.9179     1.5264     0.4075 N.am    
   6 O6            -1.3237     1.8091     0.4023 O.2     
   7 O7             1.0659    -1.9619     0.9467 O.2     
   8 C8            -1.6743    -0.9775     0.8471 C.3     
   9 C9             1.3523     2.9076     0.1839 C.3     
  10 C10            1.4713     3.6173     1.5080 C.ar    
  11 C11            2.6238     3.4817     2.2614 C.ar    
  12 C12            2.7384     4.1291     3.4745 C.ar    
  13 C13            1.6899     4.9211     3.9406 C.ar    
  14 C14            0.5313     5.0540     3.1774 C.ar    
  15 C15            0.4302     4.4062     1.9628 C.ar    
  16 C16            3.7560     2.6249     1.7563 C.3     
  17 C17            1.8606     7.7212     8.9140 C.2     
  18 N18            0.6590     8.3232     8.9200 N.am    
  19 C19           -0.0551     7.9645     7.6894 C.3     
  20 C20            0.8677     7.0558     6.9159 C.ar    
  21 C21            0.7558     6.4116     5.7087 C.ar    
  22 C22            1.8068     5.6190     5.2437 C.ar    
  23 C23            2.9672     5.4840     6.0066 C.ar    
  24 C24            3.0791     6.1299     7.2168 C.ar    
  25 C25            2.0282     6.9241     7.6847 C.ar    
  26 O26            2.6929     7.8234     9.7942 O.2     
  27 C27            0.1462     9.1936     9.9810 C.3     
  28 C28            0.0105     8.5946    11.3822 C.3     
  29 C29            1.1189     9.6071    11.0872 C.3     
  30 H30            2.4215     0.4598     1.4513 H       
  31 H31            2.3872     0.1849    -0.3201 H       
  32 H32           -2.0055    -1.3199    -0.1333 H       
  33 H33           -1.5146    -1.8376     1.4975 H       
  34 H34           -2.4354    -0.3296     1.2819 H       
  35 H35            2.3206     2.9074    -0.3165 H       
  36 H36            0.6211     3.4220    -0.4396 H       
  37 H37            3.6384     4.0223     4.0619 H       
  38 H38           -0.2840     5.6662     3.5335 H       
  39 H39           -0.4652     4.5122     1.3683 H       
  40 H40            4.4878     3.2526     1.2479 H       
  41 H41            4.2321     2.1196     2.5966 H       
  42 H42            3.3670     1.8828     1.0592 H       
  43 H43           -0.9798     7.4409     7.9320 H       
  44 H44           -0.2728     8.8604     7.1079 H       
  45 H45           -0.1432     6.5180     5.1198 H       
  46 H46            3.7798     4.8704     5.6467 H       
  47 H47            3.9786     6.0229     7.8050 H       
  48 H48           -0.6026     9.9223     9.6704 H       
  49 H49           -0.8274     8.9294    11.9937 H       
  50 H50            0.3027     7.5528    11.5147 H       
  51 H51            2.1403     9.2316    11.0256 H       
  52 H52            1.0102    10.6082    11.5046 H       
@<TRIPOS>BOND
   1    1    2 am
   2    1    5 am
   3    1    6 2
   4    2    3 am
   5    2    8 1
   6    3    4 1
   7    3    7 2
   8    4    5 1
   9    4   30 1
  10    4   31 1
  11    5    9 1
  12    8   32 1
  13    8   33 1
  14    8   34 1
  15    9   10 1
  16    9   35 1
  17    9   36 1
  18   10   11 ar
  19   10   15 ar
  20   11   12 ar
  21   11   16 1
  22   12   13 ar
  23   12   37 1
  24   13   14 ar
  25   13   22 1
  26   14   15 ar
  27   14   38 1
  28   15   39 1
  29   16   40 1
  30   16   41 1
  31   16   42 1
  32   17   18 am
  33   17   25 1
  34   17   26 2
  35   18   19 1
  36   18   27 1
  37   19   20 1
  38   19   43 1
  39   19   44 1
  40   20   21 ar
  41   20   25 ar
  42   21   22 ar
  43   21   45 1
  44   22   23 ar
  45   23   24 ar
  46   23   46 1
  47   24   25 ar
  48   24   47 1
  49   27   28 1
  50   27   29 1
  51   27   48 1
  52   28   29 1
  53   28   49 1
  54   28   50 1
  55   29   51 1
  56   29   52 1

#	End of record

