#	Name: ASD03451010
#	Creating user name:	WinNT
#	Creation time:	15. 06. 2019 20:42

#	Modifying user name:	WinNT
#	Modification time:	15. 06. 2019 20:42

#	Program:	/corina/corina34_cracker 3.40 0067  02.08.2006

@<TRIPOS>MOLECULE
ASD03451010
  40   43    0    0    0
SMALL
NO_CHARGES


@<TRIPOS>ATOM
   1 C1             0.0837     1.5498    -0.0954 C.ar    
   2 C2             0.1111     0.1745    -0.2467 C.ar    
   3 C3             1.3291    -0.4786    -0.2676 C.ar    
   4 C4             2.5051     0.2757    -0.1345 C.ar    
   5 C5             2.4023     1.6657     0.0089 C.ar    
   6 N6             1.1944     2.2413     0.0253 N.ar    
   7 C7             3.7878    -0.4409    -0.1478 C.2     
   8 N8             4.7847    -0.1567     0.6200 N.2     
   9 C9             4.7157     0.9467     1.5782 C.3     
  10 C10            4.5330     2.2342     0.8240 C.2     
  11 N11            3.4788     2.4818     0.1292 N.2     
  12 C12            3.9461    -1.5619    -1.1037 C.ar    
  13 C13            3.1555    -1.6204    -2.2511 C.ar    
  14 C14            3.3079    -2.6666    -3.1378 C.ar    
  15 C15            4.2427    -3.6561    -2.8905 C.ar    
  16 C16            5.0298    -3.6034    -1.7541 C.ar    
  17 C17            4.8903    -2.5595    -0.8626 C.ar    
  18 C18            3.5484     0.7360     2.5077 C.2     
  19 S19            2.5640     2.0157     3.2054 S.3     
  20 C20            1.5739     0.8337     4.0516 C.2     
  21 C21            2.0135    -0.3957     3.7784 C.2     
  22 C22            3.1001    -0.4498     2.9225 C.2     
  23 N23            5.5198     3.1736     0.8788 N.pl3   
  24 C24            5.3689     4.4376     0.1538 C.3     
  25 H25           -0.8661     2.0637    -0.0806 H       
  26 H26           -0.8089    -0.3823    -0.3469 H       
  27 H27            1.3751    -1.5513    -0.3841 H       
  28 H28            5.6404     0.9888     2.1539 H       
  29 H29            2.4253    -0.8488    -2.4451 H       
  30 H30            2.6961    -2.7133    -4.0266 H       
  31 H31            4.3581    -4.4731    -3.5873 H       
  32 H32            5.7578    -4.3788    -1.5663 H       
  33 H33            5.5056    -2.5193     0.0241 H       
  34 H34            0.7380     1.0675     4.6943 H       
  35 H35            1.5541    -1.2819     4.1908 H       
  36 H36            3.5547    -1.3813     2.6191 H       
  37 H37            6.3216     3.0050     1.3979 H       
  38 H38            5.2576     4.2345    -0.9113 H       
  39 H39            4.4854     4.9621     0.5179 H       
  40 H40            6.2513     5.0567     0.3153 H       
@<TRIPOS>BOND
   1    1    2 ar
   2    1    6 ar
   3    1   25 1
   4    2    3 ar
   5    2   26 1
   6    3    4 ar
   7    3   27 1
   8    4    5 ar
   9    4    7 1
  10    5    6 ar
  11    5   11 1
  12    7    8 2
  13    7   12 1
  14    8    9 1
  15    9   10 1
  16    9   18 1
  17    9   28 1
  18   10   11 2
  19   10   23 1
  20   12   13 ar
  21   12   17 ar
  22   13   14 ar
  23   13   29 1
  24   14   15 ar
  25   14   30 1
  26   15   16 ar
  27   15   31 1
  28   16   17 ar
  29   16   32 1
  30   17   33 1
  31   18   19 1
  32   18   22 2
  33   19   20 1
  34   20   21 2
  35   20   34 1
  36   21   22 1
  37   21   35 1
  38   22   36 1
  39   23   24 1
  40   23   37 1
  41   24   38 1
  42   24   39 1
  43   24   40 1

#	End of record

