#	Name: ASD01816154
#	Creating user name:	WinNT
#	Creation time:	15. 06. 2019 19:34

#	Modifying user name:	WinNT
#	Modification time:	15. 06. 2019 19:34

#	Program:	/corina/corina34_cracker 3.40 0067  02.08.2006

@<TRIPOS>MOLECULE
ASD01816154
  44   48    0    0    0
SMALL
NO_CHARGES


@<TRIPOS>ATOM
   1 C1             0.7392     2.0131     0.0813 C.ar    
   2 C2             0.4894     0.6505     0.1072 C.ar    
   3 C3             1.5281    -0.2559     0.0566 C.ar    
   4 C4             2.8415     0.1936    -0.0212 C.ar    
   5 C5             3.0915     1.5759    -0.0477 C.ar    
   6 C6             2.0355     2.4798     0.0039 C.ar    
   7 N7             3.8884    -0.7106    -0.0713 N.pl3   
   8 C8             5.1755    -0.3355    -0.1465 C.2     
   9 C9             5.5414     0.9871    -0.1790 C.2     
  10 C10            4.4924     2.0311    -0.1305 C.2     
  11 C11            6.8025     1.7180    -0.2555 C.2     
  12 N12            6.4785     3.0291    -0.2496 N.am    
  13 N13            5.0923     3.1860    -0.1743 N.2     
  14 O14            7.9240     1.2405    -0.3125 O.2     
  15 C15            3.5779    -2.1419    -0.0404 C.3     
  16 C16            3.7048    -2.6531     1.3716 C.ar    
  17 C17            7.4008     4.0815    -0.3102 C.ar    
  18 C18            7.3961     5.0698     0.6683 C.ar    
  19 C19            8.3257     4.1377    -1.3442 C.ar    
  20 C20            9.2340     5.1767    -1.4014 C.ar    
  21 C21            9.2238     6.1615    -0.4305 C.ar    
  22 C22            8.3086     6.1072     0.6045 C.ar    
  23 F23            6.5014     5.0168     1.6793 F       
  24 C24            2.5801    -2.7681     2.1702 C.ar    
  25 C25            2.6979    -3.2379     3.4675 C.ar    
  26 C26            3.9378    -3.5919     3.9649 C.ar    
  27 C27            5.0615    -3.4771     3.1685 C.ar    
  28 C28            4.9453    -3.0134     1.8689 C.ar    
  29 F29            6.0438    -2.9017     1.0905 F       
  30 F30            1.3680    -2.4217     1.6844 F       
  31 H31           -0.0833     2.7120     0.1174 H       
  32 H32           -0.5285     0.2946     0.1679 H       
  33 H33            1.3209    -1.3156     0.0778 H       
  34 H34            2.2293     3.5420    -0.0166 H       
  35 H35            5.9431    -1.0945    -0.1820 H       
  36 H36            2.5591    -2.3005    -0.3940 H       
  37 H37            4.2739    -2.6787    -0.6850 H       
  38 H38            8.3352     3.3693    -2.1031 H       
  39 H39            9.9535     5.2201    -2.2056 H       
  40 H40            9.9356     6.9723    -0.4781 H       
  41 H41            8.3033     6.8778     1.3611 H       
  42 H42            1.8206    -3.3274     4.0910 H       
  43 H43            4.0288    -3.9582     4.9768 H       
  44 H44            6.0300    -3.7533     3.5585 H       
@<TRIPOS>BOND
   1    1    2 ar
   2    1    6 ar
   3    1   31 1
   4    2    3 ar
   5    2   32 1
   6    3    4 ar
   7    3   33 1
   8    4    5 ar
   9    4    7 1
  10    5    6 ar
  11    5   10 1
  12    6   34 1
  13    7    8 1
  14    7   15 1
  15    8    9 2
  16    8   35 1
  17    9   10 1
  18    9   11 1
  19   10   13 2
  20   11   12 am
  21   11   14 2
  22   12   13 1
  23   12   17 1
  24   15   16 1
  25   15   36 1
  26   15   37 1
  27   16   24 ar
  28   16   28 ar
  29   17   18 ar
  30   17   19 ar
  31   18   23 1
  32   18   22 ar
  33   19   20 ar
  34   19   38 1
  35   20   21 ar
  36   20   39 1
  37   21   22 ar
  38   21   40 1
  39   22   41 1
  40   24   25 ar
  41   24   30 1
  42   25   26 ar
  43   25   42 1
  44   26   27 ar
  45   26   43 1
  46   27   28 ar
  47   27   44 1
  48   28   29 1

#	End of record

