#	Name: ASD01351015
#	Creating user name:	WinNT
#	Creation time:	15. 06. 2019 19:16

#	Modifying user name:	WinNT
#	Modification time:	15. 06. 2019 19:16

#	Program:	/corina/corina34_cracker 3.40 0067  02.08.2006

@<TRIPOS>MOLECULE
ASD01351015
  43   45    0    0    0
SMALL
NO_CHARGES


@<TRIPOS>ATOM
   1 C1            -0.0167     1.3781     0.0096 C.ar    
   2 C2            -1.3319     2.1138     0.0199 C.3     
   3 C3             1.1489     2.0505    -0.3070 C.ar    
   4 C4             0.0249     0.0323     0.3224 C.ar    
   5 C5            -1.5925     2.6851    -1.3492 C.ar    
   6 N6            -1.2802     3.1836     1.0213 N.3     
   7 C7             2.3561     1.3770    -0.3108 C.ar    
   8 C8             1.2321    -0.6412     0.3186 C.ar    
   9 C9            -2.0931     3.9577    -1.5233 C.ar    
  10 C10           -1.3168     1.8966    -2.4578 C.ar    
  11 C11           -2.4844     4.0246     0.9312 C.3     
  12 C12            2.3977     0.0312     0.0025 C.ar    
  13 C13           -2.4023     4.8533    -0.3512 C.3     
  14 C14           -2.3215     4.4406    -2.8027 C.ar    
  15 C15           -1.5438     2.3799    -3.7322 C.ar    
  16 C16           -2.0482     3.6549    -3.9047 C.ar    
  17 H17           -1.1726     2.8045     1.9502 H       
  18 Cl18          -0.6827     0.2950    -2.2419 Cl      
  19 C19           -5.2404     0.7428     3.5011 C.3     
  20 C20           -5.1077     1.4957     2.1758 C.3     
  21 C21           -3.8624     2.3837     2.2162 C.3     
  22 C22           -3.7297     3.1366     0.8908 C.3     
  23 H23           -2.1305     1.4182     0.2774 H       
  24 H24            1.1164     3.1019    -0.5517 H       
  25 H25           -0.8857    -0.4929     0.5700 H       
  26 H26            3.2667     1.9021    -0.5588 H       
  27 H27            1.2646    -1.6926     0.5636 H       
  28 H28           -2.5345     4.6864     1.7958 H       
  29 H29            3.3408    -0.4951    -0.0008 H       
  30 H30           -1.6153     5.6006    -0.2493 H       
  31 H31           -3.3554     5.3544    -0.5200 H       
  32 H32           -2.7158     5.4369    -2.9381 H       
  33 H33           -1.3272     1.7627    -4.5916 H       
  34 H34           -2.2286     4.0356    -4.8992 H       
  35 H35           -4.3572     0.1233     3.6570 H       
  36 H36           -5.3309     1.4586     4.3181 H       
  37 H37           -6.1276     0.1102     3.4723 H       
  38 H38           -5.0172     0.7799     1.3588 H       
  39 H39           -5.9908     2.1153     2.0199 H       
  40 H40           -3.9529     3.0995     3.0332 H       
  41 H41           -2.9793     1.7641     2.3721 H       
  42 H42           -4.6129     3.7561     0.7349 H       
  43 H43           -3.6392     2.4208     0.0738 H       
@<TRIPOS>BOND
   1    1    3 ar
   2    1    4 ar
   3    1    2 1
   4    2    5 1
   5    2    6 1
   6    2   23 1
   7    3    7 ar
   8    3   24 1
   9    4    8 ar
  10    4   25 1
  11    5    9 ar
  12    5   10 ar
  13    6   11 1
  14    6   17 1
  15    7   12 ar
  16    7   26 1
  17    8   12 ar
  18    8   27 1
  19    9   13 1
  20    9   14 ar
  21   10   18 1
  22   10   15 ar
  23   11   22 1
  24   11   13 1
  25   11   28 1
  26   12   29 1
  27   13   30 1
  28   13   31 1
  29   14   16 ar
  30   14   32 1
  31   15   16 ar
  32   15   33 1
  33   16   34 1
  34   19   20 1
  35   19   35 1
  36   19   36 1
  37   19   37 1
  38   20   21 1
  39   20   38 1
  40   20   39 1
  41   21   22 1
  42   21   40 1
  43   21   41 1
  44   22   42 1
  45   22   43 1

#	End of record

