#	Name: ASD02401014
#	Creating user name:	WinNT
#	Creation time:	15. 06. 2019 20:20

#	Modifying user name:	WinNT
#	Modification time:	15. 06. 2019 20:20

#	Program:	/corina/corina34_cracker 3.40 0067  02.08.2006

@<TRIPOS>MOLECULE
ASD02401014
  34   35    0    0    0
SMALL
NO_CHARGES


@<TRIPOS>ATOM
   1 C1             0.0343     2.1748    -0.2562 C.ar    
   2 C2             0.3340     0.8184    -0.3653 C.ar    
   3 C3            -0.6868    -0.1171    -0.3388 C.ar    
   4 C4            -2.0001     0.2954    -0.2048 C.ar    
   5 C5            -2.2982     1.6409    -0.0964 C.ar    
   6 C6            -1.2846     2.5807    -0.1162 C.ar    
   7 C7            -3.7313     2.0838     0.0494 C.3     
   8 C8            -4.4745     1.8104    -1.2327 C.ar    
   9 C9            -4.7262     0.5073    -1.6193 C.ar    
  10 C10           -5.4083     0.2502    -2.7947 C.ar    
  11 C11           -5.8412     1.2993    -3.5882 C.ar    
  12 C12           -5.5880     2.6131    -3.1993 C.ar    
  13 C13           -4.9080     2.8634    -2.0165 C.ar    
  14 O14           -6.5117     1.0479    -4.7445 O.3     
  15 N15            1.0619     3.1247    -0.2818 N.pl3   
  16 O16            1.6258     0.4142    -0.4980 O.3     
  17 N17           -6.0228     3.6774    -3.9975 N.pl3   
  18 C18           -4.3895     1.3123     1.1950 C.3     
  19 H19           -0.4573    -1.1691    -0.4232 H       
  20 H20           -2.7948    -0.4356    -0.1850 H       
  21 H21           -1.5203     3.6312    -0.0311 H       
  22 H22           -3.7612     3.1516     0.2661 H       
  23 H23           -4.3891    -0.3123    -1.0020 H       
  24 H24           -5.6030    -0.7691    -3.0940 H       
  25 H25           -4.7103     3.8806    -1.7120 H       
  26 H26           -7.4713     0.9922    -4.6387 H       
  27 H27            1.9842     2.8391    -0.3757 H       
  28 H28            0.8518     4.0686    -0.2058 H       
  29 H29            2.0726     0.2427     0.3423 H       
  30 H30           -6.5011     3.5009    -4.8226 H       
  31 H31           -5.8458     4.5915    -3.7255 H       
  32 H32           -4.3595     0.2444     0.9783 H       
  33 H33           -3.8519     1.5100     2.1223 H       
  34 H34           -5.4260     1.6326     1.3005 H       
@<TRIPOS>BOND
   1    1    2 ar
   2    1   15 1
   3    1    6 ar
   4    2    3 ar
   5    2   16 1
   6    3    4 ar
   7    3   19 1
   8    4    5 ar
   9    4   20 1
  10    5    6 ar
  11    5    7 1
  12    6   21 1
  13    7    8 1
  14    7   18 1
  15    7   22 1
  16    8    9 ar
  17    8   13 ar
  18    9   10 ar
  19    9   23 1
  20   10   11 ar
  21   10   24 1
  22   11   12 ar
  23   11   14 1
  24   12   13 ar
  25   12   17 1
  26   13   25 1
  27   14   26 1
  28   15   27 1
  29   15   28 1
  30   16   29 1
  31   17   30 1
  32   17   31 1
  33   18   32 1
  34   18   33 1
  35   18   34 1

#	End of record

