#	Name: ASD01901061
#	Creating user name:	WinNT
#	Creation time:	15. 06. 2019 19:53

#	Modifying user name:	WinNT
#	Modification time:	15. 06. 2019 19:53

#	Program:	/corina/corina34_cracker 3.40 0067  02.08.2006

@<TRIPOS>MOLECULE
ASD01901061
  48   50    0    0    0
SMALL
NO_CHARGES


@<TRIPOS>ATOM
   1 C1             1.1197     3.3013     1.0697 C.ar    
   2 C2             1.4841     2.0627     1.5935 C.ar    
   3 C3             2.8274     1.7285     1.6589 C.ar    
   4 C4             3.7601     2.6448     1.1981 C.ar    
   5 C5             3.3261     3.8584     0.6895 C.ar    
   6 N6             2.0446     4.1502     0.6390 N.ar    
   7 C7            -0.3123     3.6713     0.9871 C.2     
   8 O8            -1.1636     2.8958     1.3754 O.2     
   9 N9            -0.6710     4.8679     0.4814 N.am    
  10 C10           -2.0236     5.1749     0.3040 C.ar    
  11 C11           -2.4696     6.4776     0.4800 C.ar    
  12 C12           -3.8108     6.7779     0.3028 C.ar    
  13 C13           -4.7047     5.7764    -0.0501 C.ar    
  14 C14           -4.2592     4.4801    -0.2245 C.ar    
  15 C15           -2.9219     4.1777    -0.0544 C.ar    
  16 S16           -6.4100     6.1584    -0.2754 S.o2    
  17 O17           -6.4585     7.2752    -1.1527 O.2     
  18 O18           -7.0645     4.9269    -0.5481 O.2     
  19 N19           -6.9914     6.6841     1.1833 N.am    
  20 C20           -7.0956     5.7928     2.2574 C.ar    
  21 C21           -8.1031     5.9567     3.2061 C.ar    
  22 C22           -8.2017     5.0716     4.2664 C.ar    
  23 C23           -7.3013     4.0280     4.3826 C.ar    
  24 C24           -6.3014     3.8650     3.4424 C.ar    
  25 C25           -6.1999     4.7408     2.3773 C.ar    
  26 O26           -8.9873     6.9838     3.0910 O.3     
  27 C27           -9.9934     7.0898     4.1002 C.3     
  28 O28           -4.2507     8.0522     0.4748 O.3     
  29 C29           -3.2756     9.0316     0.8382 C.3     
  30 H30            0.7304     1.3731     1.9439 H       
  31 H31            3.1406     0.7759     2.0601 H       
  32 H32            4.8147     2.4151     1.2354 H       
  33 H33            4.0500     4.5747     0.3300 H       
  34 H34            0.0091     5.5163     0.2405 H       
  35 H35           -1.7727     7.2556     0.7550 H       
  36 H36           -4.9569     3.7027    -0.4988 H       
  37 H37           -2.5754     3.1645    -0.1957 H       
  38 H38           -7.2599     7.6097     1.2933 H       
  39 H39           -8.9816     5.1964     5.0030 H       
  40 H40           -7.3795     3.3389     5.2105 H       
  41 H41           -5.6002     3.0491     3.5377 H       
  42 H42           -5.4204     4.6085     1.6416 H       
  43 H43          -10.5977     6.1827     4.1076 H       
  44 H44           -9.5197     7.2188     5.0734 H       
  45 H45          -10.6303     7.9489     3.8895 H       
  46 H46           -2.5109     9.0879     0.0635 H       
  47 H47           -3.7583    10.0032     0.9434 H       
  48 H48           -2.8139     8.7509     1.7848 H       
@<TRIPOS>BOND
   1    1    2 ar
   2    1    6 ar
   3    1    7 1
   4    2    3 ar
   5    2   30 1
   6    3    4 ar
   7    3   31 1
   8    4    5 ar
   9    4   32 1
  10    5    6 ar
  11    5   33 1
  12    7    8 2
  13    7    9 am
  14    9   10 1
  15    9   34 1
  16   10   11 ar
  17   10   15 ar
  18   11   12 ar
  19   11   35 1
  20   12   13 ar
  21   12   28 1
  22   13   14 ar
  23   13   16 1
  24   14   15 ar
  25   14   36 1
  26   15   37 1
  27   16   17 2
  28   16   18 2
  29   16   19 am
  30   19   20 1
  31   19   38 1
  32   20   21 ar
  33   20   25 ar
  34   21   22 ar
  35   21   26 1
  36   22   23 ar
  37   22   39 1
  38   23   24 ar
  39   23   40 1
  40   24   25 ar
  41   24   41 1
  42   25   42 1
  43   26   27 1
  44   27   43 1
  45   27   44 1
  46   27   45 1
  47   28   29 1
  48   29   46 1
  49   29   47 1
  50   29   48 1

#	End of record

