#	Name: ASD02030237
#	Creating user name:	WinNT
#	Creation time:	15. 06. 2019 20:14

#	Modifying user name:	WinNT
#	Modification time:	15. 06. 2019 20:14

#	Program:	/corina/corina34_cracker 3.40 0067  02.08.2006

@<TRIPOS>MOLECULE
ASD02030237
  55   59    0    0    0
SMALL
NO_CHARGES


@<TRIPOS>ATOM
   1 N1            -0.0428     1.8296     0.0668 N.am    
   2 C2             0.1914     0.3979    -0.1682 C.3     
   3 C3            -0.5669    -0.4040     0.8967 C.3     
   4 N4            -1.9509     0.0867     0.9570 N.am    
   5 C5            -2.1851     1.5184     1.1920 C.3     
   6 C6            -1.4268     2.3194     0.1326 C.3     
   7 C7             0.9931     2.6773     0.2246 C.2     
   8 C8             2.3751     2.1547     0.2726 C.2     
   9 N9             3.4574     2.8529     0.5409 N.2     
  10 N10            2.7472     0.8799     0.0552 N.2     
  11 C11            4.0478     0.8260     0.1897 C.2     
  12 N12            4.4780     2.0677     0.4936 N.pl3   
  13 C13            5.8098     2.4409     0.7197 C.ar    
  14 O14            0.7909     3.8715     0.3275 O.2     
  15 C15           -2.9868    -0.7610     0.7992 C.2     
  16 C16           -2.7395    -2.1651     0.4420 C.2     
  17 O17           -4.1264    -0.3639     0.9523 O.2     
  18 C18            6.1203     3.7587     1.0259 C.ar    
  19 C19            7.4352     4.1236     1.2483 C.ar    
  20 C20            8.4405     3.1763     1.1654 C.ar    
  21 C21            8.1332     1.8631     0.8601 C.ar    
  22 C22            6.8208     1.4917     0.6435 C.ar    
  23 C23           -3.6822     1.8173     1.0905 C.3     
  24 C24           -3.6997    -3.0721     0.1263 C.2     
  25 Cl25           7.8252     5.7712     1.6313 Cl      
  26 C26           -2.9979    -4.3238    -0.1556 C.ar    
  27 C27           -1.6313    -4.0433     0.0233 C.ar    
  28 O28           -1.5236    -2.7463     0.3727 O.3     
  29 C29           -3.4068    -5.6065    -0.5307 C.ar    
  30 C30           -2.4746    -6.5862    -0.7229 C.ar    
  31 C31           -1.1238    -6.3167    -0.5482 C.ar    
  32 C32           -0.6987    -5.0574    -0.1781 C.ar    
  33 F33            0.6188    -4.8091    -0.0111 F       
  34 C34           -5.1874    -2.8364     0.0764 C.3     
  35 H35           -0.1721     0.1255    -1.1591 H       
  36 H36            1.2580     0.1850    -0.0959 H       
  37 H37           -0.5648    -1.4607     0.6293 H       
  38 H38           -0.0882    -0.2685     1.8665 H       
  39 H39           -1.8216     1.7908     2.1828 H       
  40 H40           -1.4298     3.3758     0.4012 H       
  41 H41           -1.9035     2.1849    -0.8383 H       
  42 H42            4.6646    -0.0539     0.0805 H       
  43 H43            5.3358     4.4981     1.0899 H       
  44 H44            9.4671     3.4632     1.3391 H       
  45 H45            8.9199     1.1261     0.7954 H       
  46 H46            6.5818     0.4657     0.4054 H       
  47 H47           -4.2069     1.3280     1.9111 H       
  48 H48           -3.8425     2.8939     1.1473 H       
  49 H49           -4.0639     1.4428     0.1406 H       
  50 H50           -4.4561    -5.8224    -0.6678 H       
  51 H51           -2.7904    -7.5776    -1.0125 H       
  52 H52           -0.3981    -7.1013    -0.7037 H       
  53 H53           -5.4709    -2.5150    -0.9258 H       
  54 H54           -5.7101    -3.7606     0.3230 H       
  55 H55           -5.4571    -2.0633     0.7959 H       
@<TRIPOS>BOND
   1    1    2 1
   2    1    7 am
   3    1    6 1
   4    2    3 1
   5    2   35 1
   6    2   36 1
   7    3    4 1
   8    3   37 1
   9    3   38 1
  10    4    5 1
  11    4   15 am
  12    5    6 1
  13    5   23 1
  14    5   39 1
  15    6   40 1
  16    6   41 1
  17    7    8 1
  18    7   14 2
  19    8    9 2
  20    8   10 1
  21    9   12 1
  22   10   11 2
  23   11   12 1
  24   11   42 1
  25   12   13 1
  26   13   18 ar
  27   13   22 ar
  28   15   16 1
  29   15   17 2
  30   16   24 2
  31   16   28 1
  32   18   19 ar
  33   18   43 1
  34   19   20 ar
  35   19   25 1
  36   20   21 ar
  37   20   44 1
  38   21   22 ar
  39   21   45 1
  40   22   46 1
  41   23   47 1
  42   23   48 1
  43   23   49 1
  44   24   26 1
  45   24   34 1
  46   26   27 ar
  47   26   29 ar
  48   27   28 1
  49   27   32 ar
  50   29   30 ar
  51   29   50 1
  52   30   31 ar
  53   30   51 1
  54   31   32 ar
  55   31   52 1
  56   32   33 1
  57   34   53 1
  58   34   54 1
  59   34   55 1

#	End of record

