#	Name: ASD01411029
#	Creating user name:	WinNT
#	Creation time:	15. 06. 2019 19:19

#	Modifying user name:	WinNT
#	Modification time:	15. 06. 2019 19:19

#	Program:	/corina/corina34_cracker 3.40 0067  02.08.2006

@<TRIPOS>MOLECULE
ASD01411029
  30   31    0    0    0
SMALL
NO_CHARGES


@<TRIPOS>ATOM
   1 C1            -0.1830     1.7694    -0.8533 C.2     
   2 S2            -0.0936     0.0135    -0.6304 S.3     
   3 C3            -1.8212    -0.1716    -0.2680 C.2     
   4 C4            -2.3518     1.1962    -0.3516 C.2     
   5 N5            -1.4566     2.1237    -0.6477 N.am    
   6 O6            -3.5247     1.4563    -0.1583 O.2     
   7 S7             1.1144     2.8140    -1.2489 S.2     
   8 C8            -2.4959    -1.3122     0.0198 C.2     
   9 C9            -1.8249    -2.6143    -0.1043 C.ar    
  10 C10           -1.8589     3.5279    -0.7602 C.3     
  11 C11           -2.3240    -3.7303     0.5760 C.ar    
  12 C12           -1.6887    -4.9481     0.4543 C.ar    
  13 C13           -0.5604    -5.0681    -0.3380 C.ar    
  14 C14           -0.0598    -3.9685    -1.0140 C.ar    
  15 C15           -0.6867    -2.7454    -0.9080 C.ar    
  16 C16           -1.7325     4.1960     0.5847 C.2     
  17 O17           -1.3461     3.5640     1.5392 O.2     
  18 O18           -2.0493     5.4931     0.7221 O.3     
  19 C19            1.1701    -4.1105    -1.8732 C.3     
  20 F20            1.6197    -5.4345    -1.8286 F       
  21 F21            0.8587    -3.7680    -3.1934 F       
  22 F22            2.1735    -3.2609    -1.3953 F       
  23 H23           -3.5262    -1.2640     0.3401 H       
  24 H24           -1.2146     4.0339    -1.4793 H       
  25 H25           -2.8938     3.5834    -1.0977 H       
  26 H26           -3.2042    -3.6383     1.1950 H       
  27 H27           -2.0725    -5.8105     0.9790 H       
  28 H28           -0.0674    -6.0246    -0.4291 H       
  29 H29           -0.2953    -1.8887    -1.4363 H       
  30 H30           -1.9521     5.8777     1.6040 H       
@<TRIPOS>BOND
   1    1    2 1
   2    1    7 2
   3    1    5 am
   4    2    3 1
   5    3    4 1
   6    3    8 2
   7    4    5 am
   8    4    6 2
   9    5   10 1
  10    8    9 1
  11    8   23 1
  12    9   11 ar
  13    9   15 ar
  14   10   16 1
  15   10   24 1
  16   10   25 1
  17   11   12 ar
  18   11   26 1
  19   12   13 ar
  20   12   27 1
  21   13   14 ar
  22   13   28 1
  23   14   15 ar
  24   14   19 1
  25   15   29 1
  26   16   17 2
  27   16   18 1
  28   18   30 1
  29   19   20 1
  30   19   21 1
  31   19   22 1

#	End of record

