#	Name: ASD07930637
#	Creating user name:	WinNT
#	Creation time:	15. 06. 2019 21:12

#	Modifying user name:	WinNT
#	Modification time:	15. 06. 2019 21:12

#	Program:	/corina/corina34_cracker 3.40 0067  02.08.2006

@<TRIPOS>MOLECULE
ASD07930637
  45   47    0    0    0
SMALL
NO_CHARGES


@<TRIPOS>ATOM
   1 C1            -0.0388     1.1019     0.0274 C.3     
   2 N2             0.7710     0.9828    -2.8433 N.2     
   3 N3            -0.3445     3.0305    -2.9969 N.pl3   
   4 C4            -1.7304     3.4050    -3.2970 C.3     
   5 C5            -2.5313     3.4711    -1.9892 C.3     
   6 S6            -2.3884     1.8618    -1.1501 S.o2    
   7 N7            -0.7450     1.5869    -1.1610 N.am    
   8 C8            -0.0782     1.8404    -2.3513 C.2     
   9 C9            -2.3527     2.3597    -4.2249 C.3     
  10 C10           -1.7530     4.7534    -3.9696 C.ar    
  11 C11           -0.5819     5.4708    -4.1165 C.ar    
  12 C12           -0.6019     6.7135    -4.7363 C.ar    
  13 C13           -1.8000     7.2332    -5.2076 C.ar    
  14 C14           -2.9709     6.5122    -5.0589 C.ar    
  15 C15           -2.9466     5.2692    -4.4446 C.ar    
  16 O16           -2.7220     1.9793     0.2262 O.2     
  17 O17           -2.9300     0.8235    -1.9550 O.2     
  18 N18            0.5840     7.4412    -4.8852 N.am    
  19 C19            0.7747     8.2023    -5.9811 C.2     
  20 O20           -0.0384     8.1814    -6.8845 O.2     
  21 C21            1.9729     9.0626    -6.0845 C.ar    
  22 N22            2.8641     9.0859    -5.0949 N.ar    
  23 F23           -4.0908     4.5656    -4.2998 F       
  24 C24            3.9298     9.8517    -5.1877 C.ar    
  25 C25            4.1271    10.6403    -6.3224 C.ar    
  26 N26            3.2409    10.6184    -7.3087 N.ar    
  27 C27            2.1736     9.8459    -7.2206 C.ar    
  28 O28            5.2247    11.4290    -6.4161 O.3     
  29 H29           -0.0279     0.0119     0.0239 H       
  30 H30            0.9851     1.4755     0.0193 H       
  31 H31           -0.5482     1.4573     0.9230 H       
  32 F32           -4.1376     7.0166    -5.5170 F       
  33 H33            0.9459     0.1509    -2.3762 H       
  34 H34            0.3839     3.6165    -3.2555 H       
  35 H35           -2.1269     4.2560    -1.3500 H       
  36 H36           -3.5783     3.6790    -2.2096 H       
  37 H37           -2.3376     1.3854    -3.7364 H       
  38 H38           -3.3827     2.6386    -4.4475 H       
  39 H39           -1.7812     2.3104    -5.1517 H       
  40 H40            0.3493     5.0655    -3.7491 H       
  41 H41           -1.8177     8.1996    -5.6895 H       
  42 H42            1.2689     7.3980    -4.1996 H       
  43 H43            4.6524     9.8704    -4.3853 H       
  44 H44            1.4517     9.8280    -8.0237 H       
  45 H45            5.9862    10.9964    -6.8261 H       
@<TRIPOS>BOND
   1    1   29 1
   2    1   30 1
   3    1   31 1
   4    1    7 1
   5    2    8 2
   6    2   33 1
   7    3    4 1
   8    3    8 1
   9    3   34 1
  10    4    5 1
  11    4    9 1
  12    4   10 1
  13    5    6 1
  14    5   35 1
  15    5   36 1
  16    6    7 am
  17    6   16 2
  18    6   17 2
  19    7    8 1
  20    9   37 1
  21    9   38 1
  22    9   39 1
  23   10   11 ar
  24   10   15 ar
  25   11   12 ar
  26   11   40 1
  27   12   13 ar
  28   12   18 1
  29   13   14 ar
  30   13   41 1
  31   14   15 ar
  32   14   32 1
  33   15   23 1
  34   18   19 am
  35   18   42 1
  36   19   20 2
  37   19   21 1
  38   21   22 ar
  39   21   27 ar
  40   22   24 ar
  41   24   25 ar
  42   24   43 1
  43   25   26 ar
  44   25   28 1
  45   26   27 ar
  46   27   44 1
  47   28   45 1

#	End of record

