#	Name: ASD02560417
#	Creating user name:	WinNT
#	Creation time:	15. 06. 2019 20:25

#	Modifying user name:	WinNT
#	Modification time:	15. 06. 2019 20:25

#	Program:	/corina/corina34_cracker 3.40 0067  02.08.2006

@<TRIPOS>MOLECULE
ASD02560417
  40   43    0    0    0
SMALL
NO_CHARGES


@<TRIPOS>ATOM
   1 C1             0.1330     1.3898     1.0934 C.2     
   2 C2             0.1544    -0.0164     1.0830 C.2     
   3 C3             1.2835    -0.6782     0.7602 C.2     
   4 N4             2.4247     0.0064     0.4385 N.pl3   
   5 C5             2.4341     1.3826     0.4400 C.2     
   6 C6             1.2571     2.0850     0.7761 C.2     
   7 C7             3.6776    -0.4087     0.0814 C.2     
   8 C8             4.4298     0.7280    -0.1289 C.2     
   9 N9             3.6431     1.7960     0.0978 N.2     
  10 C10            5.8547     0.7665    -0.5331 C.ar    
  11 N11            4.1117    -1.7283    -0.0455 N.3     
  12 C12            2.9882    -2.6665     0.0801 C.3     
  13 C13            3.3169    -3.9827    -0.6460 C.3     
  14 C14            6.3150     1.7740    -1.3799 C.ar    
  15 C15            6.7421    -0.2019    -0.0634 C.ar    
  16 C16            7.6442     1.8045    -1.7531 C.ar    
  17 C17            8.5183     0.8371    -1.2884 C.ar    
  18 C18            8.0679    -0.1613    -0.4430 C.ar    
  19 C19            2.7631    -3.0257     1.5634 C.3     
  20 C20            2.3694    -4.5235     1.5359 C.3     
  21 C21            3.2801    -5.0959     0.4214 C.3     
  22 Br22           8.2711     3.1698    -2.9014 Br      
  23 H23           -0.7751     1.9157     1.3483 H       
  24 H24           -0.7385    -0.5690     1.3354 H       
  25 H25            1.2881    -1.7582     0.7557 H       
  26 H26            1.2498     3.1650     0.7818 H       
  27 H27            4.6017    -1.8656    -0.9168 H       
  28 H28            2.0844    -2.2244    -0.3391 H       
  29 H29            2.5721    -4.1799    -1.4170 H       
  30 H30            4.3100    -3.9254    -1.0916 H       
  31 H31            5.6333     2.5288    -1.7434 H       
  32 H32            6.3920    -0.9818     0.5966 H       
  33 H33            9.5569     0.8644    -1.5831 H       
  34 H34            8.7545    -0.9135    -0.0837 H       
  35 H35            3.6808    -2.8829     2.1340 H       
  36 H36            1.9549    -2.4265     1.9826 H       
  37 H37            2.5861    -4.9975     2.4932 H       
  38 H38            1.3179    -4.6418     1.2743 H       
  39 H39            2.8491    -6.0074     0.0072 H       
  40 H40            4.2812    -5.2874     0.8076 H       
@<TRIPOS>BOND
   1    1    2 1
   2    1    6 2
   3    1   23 1
   4    2    3 2
   5    2   24 1
   6    3    4 1
   7    3   25 1
   8    4    5 1
   9    4    7 1
  10    5    6 1
  11    5    9 2
  12    6   26 1
  13    7    8 2
  14    7   11 1
  15    8    9 1
  16    8   10 1
  17   10   14 ar
  18   10   15 ar
  19   11   12 1
  20   11   27 1
  21   12   13 1
  22   12   19 1
  23   12   28 1
  24   13   21 1
  25   13   29 1
  26   13   30 1
  27   14   16 ar
  28   14   31 1
  29   15   18 ar
  30   15   32 1
  31   16   17 ar
  32   16   22 1
  33   17   18 ar
  34   17   33 1
  35   18   34 1
  36   19   20 1
  37   19   35 1
  38   19   36 1
  39   20   21 1
  40   20   37 1
  41   20   38 1
  42   21   39 1
  43   21   40 1

#	End of record

