#	Name: ASD03330627
#	Creating user name:	WinNT
#	Creation time:	15. 06. 2019 20:37

#	Modifying user name:	WinNT
#	Modification time:	15. 06. 2019 20:37

#	Program:	/corina/corina34_cracker 3.40 0067  02.08.2006

@<TRIPOS>MOLECULE
ASD03330627
  64   66    0    0    0
SMALL
NO_CHARGES


@<TRIPOS>ATOM
   1 C1            -0.3237     1.1660     0.8387 C.2     
   2 N2            -0.3551    -0.1674     1.0710 N.pl3   
   3 C3             0.9819     1.5520     0.8873 C.2     
   4 N4             1.7275     0.4520     1.1300 N.2     
   5 C5             0.9326    -0.5867     1.2360 C.2     
   6 C6             1.3612    -1.9797     1.4923 C.ar    
   7 C7             1.4898     2.9235     0.7070 C.2     
   8 O8             0.7146     3.8357     0.4920 O.2     
   9 C9             3.3183     4.5306     0.6012 C.3     
  10 N10            2.8133     3.1671     0.7804 N.am    
  11 C11            3.4973     4.8161    -0.8912 C.3     
  12 C12            2.1315     4.8018    -1.5807 C.3     
  13 C13            4.1462     6.1896    -1.0735 C.3     
  14 C14            4.3932     3.7423    -1.5120 C.3     
  15 C15            4.6448     4.6712     1.3022 C.2     
  16 N16            5.1818     5.8931     1.4896 N.am    
  17 O17            5.2293     3.6849     1.6978 O.2     
  18 C18            6.5042     6.0254     2.1061 C.3     
  19 C19           -1.5661    -0.9896     1.1426 C.3     
  20 C20           -2.4701    -0.6586    -0.0488 C.3     
  21 C21           -3.3818     0.5119     0.3059 C.3     
  22 N22           -2.7051     1.4524     1.2014 N.3     
  23 C23           -1.5192     2.0401     0.5608 C.3     
  24 C24           -3.6281     2.4987     1.6609 C.3     
  25 C25            2.6124    -2.4145     1.0629 C.ar    
  26 C26            3.0099    -3.7276     1.3074 C.ar    
  27 C27            2.1525    -4.5997     1.9809 C.ar    
  28 C28            0.9109    -4.1621     2.4050 C.ar    
  29 C29            0.5142    -2.8584     2.1699 C.ar    
  30 C30            4.3370    -4.1965     0.8540 C.2     
  31 O31            5.0823    -3.4364     0.2674 O.2     
  32 N32            4.7201    -5.4667     1.0911 N.am    
  33 F33            0.0847    -5.0100     3.0560 F       
  34 H34            2.6069     5.2400     1.0240 H       
  35 H35            3.4316     2.4396     0.9519 H       
  36 H36            1.4932     5.5667    -1.1384 H       
  37 H37            2.2590     5.0051    -2.6439 H       
  38 H38            1.6692     3.8232    -1.4508 H       
  39 H39            5.1048     6.2102    -0.5551 H       
  40 H40            4.3033     6.3792    -2.1353 H       
  41 H41            3.4929     6.9579    -0.6600 H       
  42 H42            3.9309     2.7638    -1.3821 H       
  43 H43            4.5207     3.9457    -2.5752 H       
  44 H44            5.3662     3.7525    -1.0208 H       
  45 H45            4.6927     6.6849     1.2163 H       
  46 H46            7.2427     5.5038     1.4973 H       
  47 H47            6.7694     7.0804     2.1743 H       
  48 H48            6.4844     5.5904     3.1053 H       
  49 H49           -1.2928    -2.0443     1.1104 H       
  50 H50           -2.0957    -0.7779     2.0715 H       
  51 H51           -1.8545    -0.3913    -0.9077 H       
  52 H52           -3.0775    -1.5293    -0.2960 H       
  53 H53           -3.6691     1.0316    -0.6082 H       
  54 H54           -4.2776     0.1317     0.7969 H       
  55 H55           -1.3433     3.0371     0.9648 H       
  56 H56           -1.6808     2.1051    -0.5151 H       
  57 H57           -4.4583     2.0404     2.1982 H       
  58 H58           -3.0998     3.1835     2.3243 H       
  59 H59           -4.0110     3.0486     0.8012 H       
  60 H60            3.2723    -1.7366     0.5420 H       
  61 H61            2.4592    -5.6177     2.1707 H       
  62 H62           -0.4564    -2.5219     2.5032 H       
  63 H63            4.1253    -6.0733     1.5593 H       
  64 H64            5.5906    -5.7743     0.7937 H       
@<TRIPOS>BOND
   1    1    2 1
   2    1    3 2
   3    1   23 1
   4    2   19 1
   5    2    5 1
   6    3    4 1
   7    3    7 1
   8    4    5 2
   9    5    6 1
  10    6   25 ar
  11    6   29 ar
  12    7    8 2
  13    7   10 am
  14    9   10 1
  15    9   11 1
  16    9   15 1
  17    9   34 1
  18   10   35 1
  19   11   12 1
  20   11   13 1
  21   11   14 1
  22   12   36 1
  23   12   37 1
  24   12   38 1
  25   13   39 1
  26   13   40 1
  27   13   41 1
  28   14   42 1
  29   14   43 1
  30   14   44 1
  31   15   16 am
  32   15   17 2
  33   16   18 1
  34   16   45 1
  35   18   46 1
  36   18   47 1
  37   18   48 1
  38   19   20 1
  39   19   49 1
  40   19   50 1
  41   20   21 1
  42   20   51 1
  43   20   52 1
  44   21   22 1
  45   21   53 1
  46   21   54 1
  47   22   23 1
  48   22   24 1
  49   23   55 1
  50   23   56 1
  51   24   57 1
  52   24   58 1
  53   24   59 1
  54   25   26 ar
  55   25   60 1
  56   26   27 ar
  57   26   30 1
  58   27   28 ar
  59   27   61 1
  60   28   29 ar
  61   28   33 1
  62   29   62 1
  63   30   31 2
  64   30   32 am
  65   32   63 1
  66   32   64 1

#	End of record

