#	Name: ASD01910834
#	Creating user name:	WinNT
#	Creation time:	15. 06. 2019 19:56

#	Modifying user name:	WinNT
#	Modification time:	15. 06. 2019 19:56

#	Program:	/corina/corina34_cracker 3.40 0067  02.08.2006

@<TRIPOS>MOLECULE
ASD01910834
  52   55    0    0    0
SMALL
NO_CHARGES


@<TRIPOS>ATOM
   1 C1            12.4972    -1.8876     4.2593 C.ar    
   2 C2            13.1145    -2.0504     3.0264 C.ar    
   3 C3            12.4015    -1.7335     1.8840 C.ar    
   4 C4            11.0977    -1.2652     2.0086 C.ar    
   5 N5            10.5439    -1.1231     3.2031 N.ar    
   6 C6            11.1999    -1.4178     4.3092 C.ar    
   7 N7            10.3697    -0.9430     0.8691 N.3     
   8 C8             9.0237    -0.4707     1.2203 C.3     
   9 C9             8.3209     0.0428    -0.0409 C.3     
  10 N10            8.3621    -1.0148    -1.0622 N.am    
  11 C11            9.6599    -1.6343    -1.3705 C.3     
  12 C12           10.3100    -2.0818    -0.0570 C.3     
  13 C13            7.2404    -1.4055    -1.6989 C.2     
  14 C14            7.3212    -2.3799    -2.8081 C.ar    
  15 O15            6.1623    -0.9569    -1.3614 O.2     
  16 C16            6.3496    -3.3732    -2.9398 C.ar    
  17 C17            6.4281    -4.2811    -3.9762 C.ar    
  18 C18            7.4669    -4.2104    -4.8857 C.ar    
  19 C19            8.4384    -3.2260    -4.7624 C.ar    
  20 C20            8.3658    -2.3063    -3.7300 C.ar    
  21 O21            9.4579    -3.1618    -5.6589 O.3     
  22 C22            9.4671    -4.1386    -6.7018 C.3     
  23 C23           10.6619    -3.9118    -7.5919 C.ar    
  24 C24           11.8585    -4.5371    -7.3100 C.ar    
  25 C25           12.9645    -4.3261    -8.1361 C.ar    
  26 C26           12.8503    -3.4827    -9.2428 C.ar    
  27 C27           11.6473    -2.8636    -9.5131 C.ar    
  28 C28           10.5543    -3.0812    -8.6935 C.ar    
  29 C29           14.2101    -4.9717    -7.8492 C.1     
  30 N30           15.1983    -5.4837    -7.6216 N.1     
  31 H31           13.0250    -2.1301     5.1698 H       
  32 H32           14.1287    -2.4158     2.9606 H       
  33 H33           12.8511    -1.8479     0.9088 H       
  34 H34           10.7160    -1.2893     5.2662 H       
  35 H35            8.4496    -1.2930     1.6473 H       
  36 H36            9.1001     0.3367     1.9485 H       
  37 H37            7.2844     0.2874     0.1914 H       
  38 H38            8.8352     0.9297    -0.4112 H       
  39 H39            9.5087    -2.4985    -2.0173 H       
  40 H40           10.3029    -0.9086    -1.8686 H       
  41 H41           11.3192    -2.4428    -0.2551 H       
  42 H42            9.7180    -2.8817     0.3878 H       
  43 H43            5.5369    -3.4314    -2.2309 H       
  44 H44            5.6758    -5.0494    -4.0769 H       
  45 H45            7.5232    -4.9236    -5.6947 H       
  46 H46            9.1206    -1.5399    -3.6332 H       
  47 H47            9.5234    -5.1358    -6.2653 H       
  48 H48            8.5538    -4.0505    -7.2902 H       
  49 H49           11.9401    -5.1881    -6.4521 H       
  50 H50           13.7018    -3.3149    -9.8856 H       
  51 H51           11.5577    -2.2106   -10.3687 H       
  52 H52            9.6149    -2.5941    -8.9097 H       
@<TRIPOS>BOND
   1    1    2 ar
   2    1    6 ar
   3    1   31 1
   4    2    3 ar
   5    2   32 1
   6    3    4 ar
   7    3   33 1
   8    4    5 ar
   9    4    7 1
  10    5    6 ar
  11    6   34 1
  12    7    8 1
  13    7   12 1
  14    8    9 1
  15    8   35 1
  16    8   36 1
  17    9   10 1
  18    9   37 1
  19    9   38 1
  20   10   11 1
  21   10   13 am
  22   11   12 1
  23   11   39 1
  24   11   40 1
  25   12   41 1
  26   12   42 1
  27   13   14 1
  28   13   15 2
  29   14   16 ar
  30   14   20 ar
  31   16   17 ar
  32   16   43 1
  33   17   18 ar
  34   17   44 1
  35   18   19 ar
  36   18   45 1
  37   19   20 ar
  38   19   21 1
  39   20   46 1
  40   21   22 1
  41   22   23 1
  42   22   47 1
  43   22   48 1
  44   23   24 ar
  45   23   28 ar
  46   24   25 ar
  47   24   49 1
  48   25   26 ar
  49   25   29 1
  50   26   27 ar
  51   26   50 1
  52   27   28 ar
  53   27   51 1
  54   28   52 1
  55   29   30 3

#	End of record

