#	Name: ASD05250046
#	Creating user name:	WinNT
#	Creation time:	15. 06. 2019 20:58

#	Modifying user name:	WinNT
#	Modification time:	15. 06. 2019 20:58

#	Program:	/corina/corina34_cracker 3.40 0067  02.08.2006

@<TRIPOS>MOLECULE
ASD05250046
  56   59    0    0    0
SMALL
NO_CHARGES


@<TRIPOS>ATOM
   1 C1            -0.2396     0.4306     0.0598 C.ar    
   2 C2            -0.0287    -0.9223    -0.1184 C.ar    
   3 C3             1.2520    -1.4138    -0.3206 C.ar    
   4 C4             2.3296    -0.5529    -0.3459 C.ar    
   5 C5             2.1247     0.8184    -0.1851 C.ar    
   6 C6             0.8322     1.3111     0.0283 C.ar    
   7 C7             3.7242    -1.0909    -0.5212 C.3     
   8 C8             4.5680    -0.1277    -1.3559 C.3     
   9 C9             4.5074     1.2558    -0.7981 C.2     
  10 C10            3.2739     1.7415    -0.2703 C.2     
  11 C11            5.9578    -0.6885    -1.5486 C.3     
  12 C12            7.0595     0.1512    -0.9111 C.3     
  13 C13            6.8869     1.6157    -1.3542 C.3     
  14 C14            5.5654     2.0869    -0.7861 C.2     
  15 C15            8.4144    -0.3632    -1.4018 C.3     
  16 C16            9.5339     0.5382    -0.9780 C.2     
  17 C17            9.3351     1.8572    -0.6527 C.2     
  18 C18            7.9864     2.4253    -0.6955 C.2     
  19 O19            0.6287     2.6413     0.2032 O.3     
  20 Cl20           1.5001    -3.1176    -0.5422 Cl      
  21 O21            4.3302    -1.2595     0.7619 O.3     
  22 C22            3.6582    -2.4470    -1.2267 C.3     
  23 O23            3.1710     2.8961     0.1035 O.2     
  24 O24            5.4494     3.3281    -0.2733 O.3     
  25 O25            6.9118     1.7339    -2.7780 O.3     
  26 O26            7.7548     3.5163    -0.2166 O.2     
  27 N27            8.6454    -1.7057    -0.8518 N.3     
  28 C28            9.7537    -2.3752    -1.5455 C.3     
  29 C29            8.8892    -1.6468     0.5956 C.3     
  30 C30           10.4767     2.6990    -0.2607 C.2     
  31 O31           10.7120     2.8949     0.9165 O.2     
  32 N32           11.2614     3.2530    -1.2060 N.am    
  33 O33           10.7766     0.0377    -0.9137 O.3     
  34 H34           -1.2403     0.8042     0.2193 H       
  35 H35           -0.8673    -1.6026    -0.0998 H       
  36 H36            4.1128    -0.0900    -2.3456 H       
  37 H37            5.9911    -1.6894    -1.1183 H       
  38 H38            6.1555    -0.7668    -2.6176 H       
  39 H39            6.9979     0.0820     0.1750 H       
  40 H40            8.3990    -0.4238    -2.4900 H       
  41 H41            0.4633     3.1251    -0.6175 H       
  42 H42            3.8577    -1.8713     1.3427 H       
  43 H43            2.8650    -2.4294    -1.9741 H       
  44 H44            4.6119    -2.6500    -1.7136 H       
  45 H45            3.4504    -3.2275    -0.4948 H       
  46 H46            5.2587     4.0439    -0.8949 H       
  47 H47            6.8064     2.6399    -3.0994 H       
  48 H48           10.6702    -1.8026    -1.4033 H       
  49 H49            9.8847    -3.3777    -1.1381 H       
  50 H50            9.5286    -2.4422    -2.6100 H       
  51 H51            8.0535    -1.1463     1.0847 H       
  52 H52            8.9874    -2.6586     0.9890 H       
  53 H53            9.8075    -1.0918     0.7871 H       
  54 H54           11.0325     3.1571    -2.1437 H       
  55 H55           12.0552     3.7475    -0.9487 H       
  56 H56           11.4663     0.6187    -0.5646 H       
@<TRIPOS>BOND
   1    1    2 ar
   2    1    6 ar
   3    1   34 1
   4    2    3 ar
   5    2   35 1
   6    3    4 ar
   7    3   20 1
   8    4    5 ar
   9    4    7 1
  10    5    6 ar
  11    5   10 1
  12    6   19 1
  13    7    8 1
  14    7   21 1
  15    7   22 1
  16    8    9 1
  17    8   11 1
  18    8   36 1
  19    9   10 1
  20    9   14 2
  21   10   23 2
  22   11   12 1
  23   11   37 1
  24   11   38 1
  25   12   13 1
  26   12   15 1
  27   12   39 1
  28   13   14 1
  29   13   25 1
  30   13   18 1
  31   14   24 1
  32   15   16 1
  33   15   27 1
  34   15   40 1
  35   16   17 2
  36   16   33 1
  37   17   18 1
  38   17   30 1
  39   18   26 2
  40   19   41 1
  41   21   42 1
  42   22   43 1
  43   22   44 1
  44   22   45 1
  45   24   46 1
  46   25   47 1
  47   27   28 1
  48   27   29 1
  49   28   48 1
  50   28   49 1
  51   28   50 1
  52   29   51 1
  53   29   52 1
  54   29   53 1
  55   30   31 2
  56   30   32 am
  57   32   54 1
  58   32   55 1
  59   33   56 1

#	End of record

