#	Name: ASD04590632
#	Creating user name:	WinNT
#	Creation time:	15. 06. 2019 20:51

#	Modifying user name:	WinNT
#	Modification time:	15. 06. 2019 20:51

#	Program:	/corina/corina34_cracker 3.40 0067  02.08.2006

@<TRIPOS>MOLECULE
ASD04590632
  70   75    0    0    0
SMALL
NO_CHARGES


@<TRIPOS>ATOM
   1 N1            -0.0171     1.3233    -0.0119 N.ar    
   2 C2             0.0017    -0.0035    -0.0051 C.ar    
   3 N3             1.1297    -0.6949    -0.0122 N.ar    
   4 C4             2.3049    -0.0726    -0.0266 C.ar    
   5 C5             2.3189     1.3369    -0.0341 C.ar    
   6 C6             1.1070     2.0204    -0.0261 C.ar    
   7 N7             3.6028    -0.5182    -0.0366 N.pl3   
   8 C8             4.4811     0.5530    -0.0505 C.ar    
   9 C9             3.7311     1.7391    -0.0495 C.ar    
  10 C10            5.8732     0.6490    -0.0642 C.ar    
  11 N11            6.4600     1.8327    -0.0759 N.ar    
  12 C12            5.7733     2.9631    -0.0753 C.ar    
  13 C13            4.4064     2.9618    -0.0630 C.ar    
  14 N14           -1.2020    -0.6888     0.0103 N.pl3   
  15 C15           -2.4019     0.0119     0.1313 C.ar    
  16 C16            4.0029    -1.9275    -0.0326 C.3     
  17 C17            3.4025    -2.6438     1.1947 C.3     
  18 C18            3.4401    -2.6387    -1.2756 C.3     
  19 C19            2.5173    -3.7625    -0.7603 C.3     
  20 C20            2.1038    -3.2944     0.6571 C.3     
  21 N21           -2.3783     1.3196     0.3318 N.ar    
  22 C22           -3.4884     2.0230     0.4517 C.ar    
  23 C23           -4.7291     1.4088     0.3708 C.ar    
  24 C24           -4.7935     0.0322     0.1601 C.ar    
  25 C25           -3.6094    -0.6709     0.0340 C.ar    
  26 N26           -5.9022     2.1618     0.4995 N.3     
  27 C27           -6.7515     1.6333     1.5746 C.3     
  28 C28           -8.0838     2.3860     1.5908 C.3     
  29 C29           -5.5953     3.5816     0.7146 C.3     
  30 C30           -6.8932     4.3925     0.7051 C.3     
  31 C31           -7.8189     3.8780     1.8109 C.3     
  32 N32           -9.0898     4.6136     1.7691 N.3     
  33 C33          -10.0042     4.1447     2.8188 C.3     
  34 C34           -8.8638     6.0612     1.8758 C.3     
  35 O35            6.6281    -0.4790    -0.0650 O.3     
  36 C36            8.0470    -0.3101    -0.0794 C.3     
  37 H37            1.0845     3.1002    -0.0319 H       
  38 H38            6.3023     3.9046    -0.0852 H       
  39 H39            3.8572     3.8916    -0.0629 H       
  40 H40           -1.2104    -1.6560    -0.0630 H       
  41 H41            5.0899    -2.0066    -0.0173 H       
  42 H42            4.0873    -3.4074     1.5635 H       
  43 H43            3.1720    -1.9250     1.9810 H       
  44 H44            2.8692    -1.9354    -1.8818 H       
  45 H45            4.2539    -3.0638    -1.8631 H       
  46 H46            1.6407    -3.8600    -1.4007 H       
  47 H47            3.0591    -4.7068    -0.7072 H       
  48 H48            1.8129    -4.1439     1.2749 H       
  49 H49            1.2987    -2.5616     0.6023 H       
  50 H50           -3.4300     3.0889     0.6151 H       
  51 H51           -5.7459    -0.4726     0.0932 H       
  52 H52           -3.6222    -1.7383    -0.1302 H       
  53 H53           -6.9356     0.5726     1.4038 H       
  54 H54           -6.2484     1.7647     2.5326 H       
  55 H55           -8.5938     2.2437     0.6380 H       
  56 H56           -8.7078     2.0041     2.3988 H       
  57 H57           -5.0977     3.7039     1.6767 H       
  58 H58           -4.9398     3.9361    -0.0808 H       
  59 H59           -6.6665     5.4442     0.8804 H       
  60 H60           -7.3844     4.2818    -0.2616 H       
  61 H61           -7.3440     4.0243     2.7810 H       
  62 H62           -9.5446     4.2964     3.7954 H       
  63 H63          -10.9371     4.7059     2.7652 H       
  64 H64          -10.2095     3.0840     2.6746 H       
  65 H65           -8.2401     6.3937     1.0461 H       
  66 H66           -9.8209     6.5817     1.8422 H       
  67 H67           -8.3629     6.2822     2.8183 H       
  68 H68            8.3386     0.2380    -0.9752 H       
  69 H69            8.3554     0.2480     0.8046 H       
  70 H70            8.5293    -1.2876    -0.0785 H       
@<TRIPOS>BOND
   1    1    2 ar
   2    1    6 ar
   3    2    3 ar
   4    2   14 1
   5    3    4 ar
   6    4    5 ar
   7    4    7 1
   8    5    6 ar
   9    5    9 1
  10    6   37 1
  11    7    8 1
  12    7   16 1
  13    8    9 ar
  14    8   10 ar
  15    9   13 ar
  16   10   11 ar
  17   10   35 1
  18   11   12 ar
  19   12   13 ar
  20   12   38 1
  21   13   39 1
  22   14   15 1
  23   14   40 1
  24   15   21 ar
  25   15   25 ar
  26   16   18 1
  27   16   17 1
  28   16   41 1
  29   17   20 1
  30   17   42 1
  31   17   43 1
  32   18   19 1
  33   18   44 1
  34   18   45 1
  35   19   20 1
  36   19   46 1
  37   19   47 1
  38   20   48 1
  39   20   49 1
  40   21   22 ar
  41   22   23 ar
  42   22   50 1
  43   23   24 ar
  44   23   26 1
  45   24   25 ar
  46   24   51 1
  47   25   52 1
  48   26   29 1
  49   26   27 1
  50   27   28 1
  51   27   53 1
  52   27   54 1
  53   28   31 1
  54   28   55 1
  55   28   56 1
  56   29   30 1
  57   29   57 1
  58   29   58 1
  59   30   31 1
  60   30   59 1
  61   30   60 1
  62   31   32 1
  63   31   61 1
  64   32   33 1
  65   32   34 1
  66   33   62 1
  67   33   63 1
  68   33   64 1
  69   34   65 1
  70   34   66 1
  71   34   67 1
  72   35   36 1
  73   36   68 1
  74   36   69 1
  75   36   70 1

#	End of record

