#	Name: ASD01810510
#	Creating user name:	WinNT
#	Creation time:	15. 06. 2019 19:24

#	Modifying user name:	WinNT
#	Modification time:	15. 06. 2019 19:24

#	Program:	/corina/corina34_cracker 3.40 0067  02.08.2006

@<TRIPOS>MOLECULE
ASD01810510
  92   97    0    0    0
SMALL
NO_CHARGES


@<TRIPOS>ATOM
   1 C1             3.7288     5.3104     0.5162 C.ar    
   2 C2             4.9852     5.8646     0.4142 C.ar    
   3 C3             6.1031     5.0502     0.3001 C.ar    
   4 C4             5.9753     3.6770     0.2875 C.ar    
   5 C5             4.7119     3.0947     0.3902 C.ar    
   6 C6             3.5834     3.9227     0.5049 C.ar    
   7 N7             4.5703     1.7233     0.3793 N.pl3   
   8 C8             3.3810     1.1160     0.4749 C.2     
   9 C9             2.2014     1.8235     0.5921 C.2     
  10 C10            2.2535     3.2942     0.6126 C.2     
  11 O11            1.2408     3.9642     0.7144 O.2     
  12 C12            0.9150     1.1199     0.6941 C.2     
  13 O13            0.8837    -0.0952     0.6756 O.2     
  14 O14           -0.2301     1.8220     0.8081 O.3     
  15 C15            5.7727     0.8952     0.2575 C.3     
  16 C16            6.0239     0.5851    -1.1957 C.ar    
  17 C17            6.6965     1.4831    -1.9660 C.ar    
  18 C18            6.9332     1.1974    -3.3215 C.ar    
  19 C19            6.4659    -0.0257    -3.8654 C.ar    
  20 C20            5.7749    -0.9283    -3.0382 C.ar    
  21 C21            5.5690    -0.6196    -1.7289 C.ar    
  22 C22            7.6237     2.1013    -4.1471 C.ar    
  23 C23            7.8356     1.7939    -5.4550 C.ar    
  24 C24            7.3757     0.5884    -5.9935 C.ar    
  25 C25            6.7011    -0.3127    -5.2196 C.ar    
  26 O26            7.6028     0.3095    -7.3039 O.3     
  27 N27           11.9590     3.4994   -17.0429 N.am    
  28 C28           13.2838     3.4561   -17.1526 C.2     
  29 C29           11.2531     4.5815   -17.7297 C.3     
  30 S30           12.5758     5.7942   -18.1012 S.3     
  31 C31           13.9261     4.5496   -17.9840 C.3     
  32 C32           10.6228     4.0931   -19.0278 C.3     
  33 C33            9.4749     3.1321   -18.7039 C.3     
  34 N34            8.4879     3.8166   -17.8591 N.3     
  35 C35            9.0739     4.2217   -16.5748 C.3     
  36 C36           10.2079     5.2207   -16.8243 C.3     
  37 O37           13.9421     2.5898   -16.6167 O.2     
  38 C38           15.1446     5.1340   -17.2666 C.3     
  39 C39           15.7563     6.2448   -18.1227 C.3     
  40 F40            7.0725     2.8968     0.1755 F       
  41 C41            8.3134     1.2903    -8.0623 C.3     
  42 C42            8.4721     0.8036    -9.5041 C.3     
  43 C43            9.2329     1.8537   -10.3160 C.3     
  44 C44            9.3915     1.3670   -11.7579 C.3     
  45 C45           10.1524     2.4172   -12.5698 C.3     
  46 C46           10.3110     1.9305   -14.0116 C.3     
  47 C47           11.0719     2.9806   -14.8236 C.3     
  48 C48           11.2305     2.4939   -16.2654 C.3     
  49 H49            2.8609     5.9464     0.6090 H       
  50 H50            5.1012     6.9383     0.4226 H       
  51 H51            7.0833     5.4964     0.2201 H       
  52 H52            3.3432     0.0368     0.4594 H       
  53 H53           -1.0512     1.3153     0.8722 H       
  54 H54            6.6275     1.4333     0.6672 H       
  55 H55            5.6307    -0.0347     0.8082 H       
  56 H56            7.0463     2.4109    -1.5379 H       
  57 H57            5.4131    -1.8637    -3.4388 H       
  58 H58            5.0382    -1.3150    -1.0956 H       
  59 H59            7.9843     3.0364    -3.7446 H       
  60 H60            8.3662     2.4910    -6.0865 H       
  61 H61            6.3507    -1.2406    -5.6469 H       
  62 H62           14.1976     4.1775   -18.9719 H       
  63 H63           10.2370     4.9450   -19.5878 H       
  64 H64           11.3737     3.5750   -19.6243 H       
  65 H65            8.9991     2.8091   -19.6299 H       
  66 H66            9.8665     2.2636   -18.1743 H       
  67 H67            8.0877     4.6085   -18.3397 H       
  68 H68            8.3073     4.6890   -15.9568 H       
  69 H69            9.4687     3.3442   -16.0627 H       
  70 H70           10.6676     5.4938   -15.8745 H       
  71 H71            9.8073     6.1132   -17.3049 H       
  72 H72           14.8377     5.5441   -16.3045 H       
  73 H73           15.8839     4.3489   -17.1078 H       
  74 H74           16.0632     5.8347   -19.0849 H       
  75 H75           15.0170     7.0299   -18.2816 H       
  76 H76           16.6244     6.6611   -17.6117 H       
  77 H77            7.7580     2.2282    -8.0544 H       
  78 H78            9.2978     1.4473    -7.6214 H       
  79 H79            9.0275    -0.1342    -9.5120 H       
  80 H80            7.4876     0.6466    -9.9450 H       
  81 H81            8.6775     2.7916   -10.3082 H       
  82 H82           10.2173     2.0108    -9.8752 H       
  83 H83            9.9469     0.4292   -11.7657 H       
  84 H84            8.4071     1.2100   -12.1987 H       
  85 H85            9.5970     3.3550   -12.5620 H       
  86 H86           11.1368     2.5742   -12.1290 H       
  87 H87           10.8664     0.9926   -14.0195 H       
  88 H88            9.3266     1.7735   -14.4525 H       
  89 H89           10.5165     3.9184   -14.8157 H       
  90 H90           12.0563     3.1376   -14.3827 H       
  91 H91           10.2461     2.3369   -16.7063 H       
  92 H92           11.7859     1.5560   -16.2733 H       
@<TRIPOS>BOND
   1    1    2 ar
   2    1    6 ar
   3    1   49 1
   4    2    3 ar
   5    2   50 1
   6    3    4 ar
   7    3   51 1
   8    4    5 ar
   9    4   40 1
  10    5    6 ar
  11    5    7 1
  12    6   10 1
  13    7    8 1
  14    7   15 1
  15    8    9 2
  16    8   52 1
  17    9   10 1
  18    9   12 1
  19   10   11 2
  20   12   13 2
  21   12   14 1
  22   14   53 1
  23   15   16 1
  24   15   54 1
  25   15   55 1
  26   16   17 ar
  27   16   21 ar
  28   17   18 ar
  29   17   56 1
  30   18   19 ar
  31   18   22 ar
  32   19   20 ar
  33   19   25 ar
  34   20   21 ar
  35   20   57 1
  36   21   58 1
  37   22   23 ar
  38   22   59 1
  39   23   24 ar
  40   23   60 1
  41   24   25 ar
  42   24   26 1
  43   25   61 1
  44   26   41 1
  45   27   48 1
  46   27   28 am
  47   27   29 1
  48   28   37 2
  49   28   31 1
  50   29   30 1
  51   29   32 1
  52   29   36 1
  53   30   31 1
  54   31   38 1
  55   31   62 1
  56   32   33 1
  57   32   63 1
  58   32   64 1
  59   33   34 1
  60   33   65 1
  61   33   66 1
  62   34   35 1
  63   34   67 1
  64   35   36 1
  65   35   68 1
  66   35   69 1
  67   36   70 1
  68   36   71 1
  69   38   39 1
  70   38   72 1
  71   38   73 1
  72   39   74 1
  73   39   75 1
  74   39   76 1
  75   41   42 1
  76   41   77 1
  77   41   78 1
  78   42   43 1
  79   42   79 1
  80   42   80 1
  81   43   44 1
  82   43   81 1
  83   43   82 1
  84   44   45 1
  85   44   83 1
  86   44   84 1
  87   45   46 1
  88   45   85 1
  89   45   86 1
  90   46   47 1
  91   46   87 1
  92   46   88 1
  93   47   48 1
  94   47   89 1
  95   47   90 1
  96   48   91 1
  97   48   92 1

#	End of record

