#	Name: ASD03200032
#	Creating user name:	WinNT
#	Creation time:	15. 06. 2019 20:34

#	Modifying user name:	WinNT
#	Modification time:	15. 06. 2019 20:34

#	Program:	/corina/corina34_cracker 3.40 0067  02.08.2006

@<TRIPOS>MOLECULE
ASD03200032
  53   56    0    0    0
SMALL
NO_CHARGES


@<TRIPOS>ATOM
   1 C1             0.9683    -1.0252    -0.1636 C.3     
   2 N2            -0.0313     0.0388    -0.0051 N.3     
   3 C3             0.2998     0.9140     1.1266 C.3     
   4 C4             1.6466     1.5940     0.8703 C.3     
   5 C5             2.7279     0.5241     0.6951 C.3     
   6 C6             2.3351    -0.4031    -0.4584 C.3     
   7 C7            -1.3115    -0.4952     0.1341 C.ar    
   8 C8            -2.0158    -0.3617     1.3281 C.ar    
   9 C9            -3.2810    -0.9045     1.4264 C.ar    
  10 N10           -3.8265    -1.5441     0.4093 N.ar    
  11 C11           -3.1962    -1.6946    -0.7405 C.ar    
  12 C12           -1.9257    -1.1749    -0.9246 C.ar    
  13 N13           -1.2605    -1.3373    -2.1474 N.am    
  14 C14           -1.4444    -2.4596    -2.8707 C.2     
  15 C15           -0.8501    -2.5769    -4.2049 C.2     
  16 O16           -2.1043    -3.3759    -2.4155 O.2     
  17 C17           -1.0854    -3.6517    -5.0343 C.2     
  18 S18           -0.1858    -3.3945    -6.5273 S.3     
  19 C19            0.4266    -1.8663    -5.9054 C.2     
  20 N20           -0.0417    -1.6502    -4.7187 N.2     
  21 C21            1.3380    -0.9590    -6.6348 C.ar    
  22 N22            1.9873     2.4533     2.0121 N.3     
  23 N23           -1.8848    -4.7393    -4.7460 N.pl3   
  24 C24            1.6957    -1.2373    -7.9545 C.ar    
  25 C25            2.5467    -0.3865    -8.6296 C.ar    
  26 C26            3.0451     0.7404    -8.0009 C.ar    
  27 C27            2.6943     1.0222    -6.6923 C.ar    
  28 C28            1.8398     0.1829    -6.0081 C.ar    
  29 C29            2.9344    -0.6858   -10.0548 C.3     
  30 H30            1.0257    -1.6094     0.7548 H       
  31 H31            0.6793    -1.6750    -0.9897 H       
  32 H32           -0.4749     1.6728     1.2376 H       
  33 H33            0.3602     0.3208     2.0390 H       
  34 H34            1.5827     2.1985    -0.0345 H       
  35 H35            3.6808     1.0028     0.4694 H       
  36 H36            2.8190    -0.0556     1.6136 H       
  37 H37            3.0798    -1.1924    -0.5605 H       
  38 H38            2.2821     0.1699    -1.3841 H       
  39 H39           -1.5775     0.1594     2.1664 H       
  40 H40           -3.8325    -0.8045     2.3496 H       
  41 H41           -3.6783    -2.2250    -1.5483 H       
  42 H42           -0.6678    -0.6420    -2.4732 H       
  43 H43            2.8733     2.9136     1.8665 H       
  44 H44            1.2557     3.1249     2.1902 H       
  45 H45           -2.3419    -4.7925    -3.8921 H       
  46 H46           -1.9895    -5.4505    -5.3972 H       
  47 H47            1.3075    -2.1170    -8.4464 H       
  48 H48            3.7111     1.4030    -8.5336 H       
  49 H49            3.0868     1.9036    -6.2071 H       
  50 H50            1.5666     0.4041    -4.9869 H       
  51 H51            2.2212    -0.2156   -10.7318 H       
  52 H52            3.9328    -0.2941   -10.2496 H       
  53 H53            2.9298    -1.7641   -10.2138 H       
@<TRIPOS>BOND
   1    1    2 1
   2    1    6 1
   3    1   30 1
   4    1   31 1
   5    2    3 1
   6    2    7 1
   7    3    4 1
   8    3   32 1
   9    3   33 1
  10    4    5 1
  11    4   22 1
  12    4   34 1
  13    5    6 1
  14    5   35 1
  15    5   36 1
  16    6   37 1
  17    6   38 1
  18    7    8 ar
  19    7   12 ar
  20    8    9 ar
  21    8   39 1
  22    9   10 ar
  23    9   40 1
  24   10   11 ar
  25   11   12 ar
  26   11   41 1
  27   12   13 1
  28   13   14 am
  29   13   42 1
  30   14   15 1
  31   14   16 2
  32   15   17 2
  33   15   20 1
  34   17   18 1
  35   17   23 1
  36   18   19 1
  37   19   20 2
  38   19   21 1
  39   21   24 ar
  40   21   28 ar
  41   22   43 1
  42   22   44 1
  43   23   45 1
  44   23   46 1
  45   24   25 ar
  46   24   47 1
  47   25   26 ar
  48   25   29 1
  49   26   27 ar
  50   26   48 1
  51   27   28 ar
  52   27   49 1
  53   28   50 1
  54   29   51 1
  55   29   52 1
  56   29   53 1

#	End of record

