#	Name: ASD07930420
#	Creating user name:	WinNT
#	Creation time:	15. 06. 2019 21:12

#	Modifying user name:	WinNT
#	Modification time:	15. 06. 2019 21:12

#	Program:	/corina/corina34_cracker 3.40 0067  02.08.2006

@<TRIPOS>MOLECULE
ASD07930420
  44   46    0    0    0
SMALL
NO_CHARGES


@<TRIPOS>ATOM
   1 N1             0.1946     0.8899     0.9069 N.2     
   2 N2            -1.0820    -1.0334     0.5428 N.pl3   
   3 C3            -1.2787    -1.9099    -0.6165 C.3     
   4 C4            -0.2382    -3.0378    -0.5805 C.3     
   5 S5             1.4184    -2.2850    -0.5229 S.o2    
   6 N6             1.2766    -1.1805     0.7166 N.am    
   7 C7             0.1296    -0.3995     0.7279 C.2     
   8 C8             2.3116    -1.0410     1.7441 C.3     
   9 C9            -1.1101    -1.1002    -1.9037 C.3     
  10 C10           -2.6639    -2.5016    -0.5709 C.ar    
  11 C11           -2.9094    -3.7494    -1.1126 C.ar    
  12 N12           -4.1176    -4.2771    -1.0790 N.ar    
  13 C13           -5.1365    -3.6450    -0.5321 C.ar    
  14 C14           -4.9690    -2.3874     0.0335 C.ar    
  15 C15           -3.7048    -1.8035     0.0196 C.ar    
  16 O16            2.3819    -3.2210    -0.0593 O.2     
  17 O17            1.6539    -1.4951    -1.6804 O.2     
  18 N18           -6.0530    -1.7197     0.6130 N.am    
  19 C19           -6.1418    -0.3776     0.5270 C.2     
  20 O20           -5.2386     0.2604     0.0208 O.2     
  21 C21           -7.3337     0.3168     1.0464 C.2     
  22 C22           -7.5598     1.6589     1.0279 C.2     
  23 O23           -8.7583     1.8617     1.5981 O.3     
  24 C24           -9.2577     0.6712     1.9590 C.2     
  25 N25           -8.4176    -0.2636     1.6293 N.2     
  26 C26          -10.5868     0.4512     2.6344 C.3     
  27 H27            1.0550     1.3190     1.0352 H       
  28 H28           -1.8038    -0.8963     1.1762 H       
  29 H29           -0.3934    -3.6527     0.3060 H       
  30 H30           -0.3315    -3.6526    -1.4757 H       
  31 H31            3.0440    -0.3000     1.4238 H       
  32 H32            1.8539    -0.7189     2.6794 H       
  33 H33            2.8069    -2.0004     1.8934 H       
  34 H34           -0.1072    -0.6746    -1.9365 H       
  35 H35           -1.2564    -1.7522    -2.7649 H       
  36 H36           -1.8466    -0.2971    -1.9268 H       
  37 H37           -2.1006    -4.2997    -1.5701 H       
  38 H38           -6.1116    -4.1093    -0.5238 H       
  39 H39           -3.5417    -0.8270     0.4510 H       
  40 H40           -6.7406    -2.2226     1.0768 H       
  41 H41           -6.9004     2.4165     0.6308 H       
  42 H42          -11.0814     1.4108     2.7846 H       
  43 H43          -11.2116    -0.1856     2.0081 H       
  44 H44          -10.4287    -0.0310     3.5992 H       
@<TRIPOS>BOND
   1    1    7 2
   2    1   27 1
   3    2    3 1
   4    2    7 1
   5    2   28 1
   6    3    4 1
   7    3    9 1
   8    3   10 1
   9    4    5 1
  10    4   29 1
  11    4   30 1
  12    5    6 am
  13    5   16 2
  14    5   17 2
  15    6    7 1
  16    6    8 1
  17    8   31 1
  18    8   32 1
  19    8   33 1
  20    9   34 1
  21    9   35 1
  22    9   36 1
  23   10   11 ar
  24   10   15 ar
  25   11   12 ar
  26   11   37 1
  27   12   13 ar
  28   13   14 ar
  29   13   38 1
  30   14   15 ar
  31   14   18 1
  32   15   39 1
  33   18   19 am
  34   18   40 1
  35   19   20 2
  36   19   21 1
  37   21   22 2
  38   21   25 1
  39   22   23 1
  40   22   41 1
  41   23   24 1
  42   24   25 2
  43   24   26 1
  44   26   42 1
  45   26   43 1
  46   26   44 1

#	End of record

