#	Name: ASD06660034
#	Creating user name:	WinNT
#	Creation time:	15. 06. 2019 21:07

#	Modifying user name:	WinNT
#	Modification time:	15. 06. 2019 21:07

#	Program:	/corina/corina34_cracker 3.40 0067  02.08.2006

@<TRIPOS>MOLECULE
ASD06660034
  71   74    0    0    0
SMALL
NO_CHARGES


@<TRIPOS>ATOM
   1 C1            -0.4391     1.5263     1.0353 C.2     
   2 C2            -0.2904     0.0819     0.6322 C.3     
   3 C3            -1.3002    -0.2469    -0.4691 C.3     
   4 O4             0.4937     2.2853     0.9184 O.2     
   5 O5            -1.6096     1.9710     1.5190 O.3     
   6 C6            -1.2515    -1.7225    -0.7712 C.ar    
   7 C7            -2.0401    -2.5999    -0.0485 C.ar    
   8 C8            -1.9997    -3.9521    -0.3200 C.ar    
   9 C9            -1.1617    -4.4339    -1.3258 C.ar    
  10 C10           -0.3693    -3.5440    -2.0512 C.ar    
  11 C11           -0.4226    -2.1934    -1.7737 C.ar    
  12 O12           -1.8531    -6.7956    -0.9580 O.3     
  13 C13           -1.1132    -5.8831    -1.6218 C.2     
  14 N14           -0.3562    -6.3923    -2.5427 N.2     
  15 C15           -0.5688    -7.8526    -2.5674 C.3     
  16 C16           -1.8744    -8.0017    -1.7489 C.3     
  17 C17           -0.7622    -8.3525    -4.0005 C.3     
  18 N18            0.3923    -7.9625    -4.8137 N.pl3   
  19 C19            0.4432    -8.3080    -6.1591 C.ar    
  20 C20           -0.6057    -9.0241    -6.7273 C.ar    
  21 C21           -0.5420    -9.3612    -8.0670 C.ar    
  22 C22            0.5728    -8.9693    -8.7968 C.ar    
  23 C23            1.5769    -8.2604    -8.1689 C.ar    
  24 N24            1.4869    -7.9479    -6.8899 N.ar    
  25 C25            2.0902    -0.2835     1.0018 C.2     
  26 C26            3.4753    -0.4246     0.4980 C.ar    
  27 C27            4.0445    -1.6926     0.3682 C.ar    
  28 C28            5.3332    -1.8251    -0.1000 C.ar    
  29 C29            6.0711    -0.6889    -0.4457 C.ar    
  30 C30            5.4999     0.5803    -0.3157 C.ar    
  31 C31            4.2087     0.7099     0.1480 C.ar    
  32 O32            1.8751    -0.2894     2.1979 O.2     
  33 N33            1.0679    -0.1487     0.1340 N.am    
  34 C34            3.5904     2.0776     0.2825 C.3     
  35 C35            3.2488    -2.9170     0.7408 C.3     
  36 C36            2.4167    -3.3696    -0.4606 C.3     
  37 C37            7.4503    -0.8292    -0.9463 C.2     
  38 O38            7.9453    -1.9301    -1.0585 O.2     
  39 C39            8.2450     0.3958    -1.3187 C.3     
  40 H40           -0.4739    -0.5571     1.4960 H       
  41 H41           -2.3023     0.0228    -0.1356 H       
  42 H42           -1.0529     0.3165    -1.3689 H       
  43 H43           -1.6569     2.9052     1.7641 H       
  44 H44           -2.6885    -2.2257     0.7299 H       
  45 H45           -2.6152    -4.6362     0.2453 H       
  46 H46            0.2817    -3.9110    -2.8309 H       
  47 H47            0.1873    -1.5030    -2.3373 H       
  48 H48            0.2563    -8.3744    -2.0826 H       
  49 H49           -1.8393    -8.8869    -1.1138 H       
  50 H50           -2.7460    -8.0256    -2.4030 H       
  51 H51           -0.8541    -9.4386    -3.9971 H       
  52 H52           -1.6671    -7.9126    -4.4197 H       
  53 H53            1.1212    -7.4633    -4.4132 H       
  54 H54           -1.4579    -9.3132    -6.1301 H       
  55 H55           -1.3410    -9.9169    -8.5352 H       
  56 H56            0.6533    -9.2170    -9.8449 H       
  57 H57            2.4455    -7.9537    -8.7327 H       
  58 H58            5.7735    -2.8062    -0.1997 H       
  59 H59            6.0689     1.4587    -0.5821 H       
  60 H60            1.2315    -0.2043    -0.8205 H       
  61 H61            3.7976     2.4738     1.2766 H       
  62 H62            4.0140     2.7433    -0.4695 H       
  63 H63            2.5125     2.0049     0.1376 H       
  64 H64            3.9289    -3.7169     1.0339 H       
  65 H65            2.5862    -2.6802     1.5733 H       
  66 H66            1.8095    -2.5372    -0.8163 H       
  67 H67            3.0810    -3.7017    -1.2584 H       
  68 H68            1.7666    -4.1924    -0.1630 H       
  69 H69            8.7922     0.7530    -0.4463 H       
  70 H70            8.9495     0.1447    -2.1117 H       
  71 H71            7.5683     1.1758    -1.6675 H       
@<TRIPOS>BOND
   1    1    2 1
   2    1    4 2
   3    1    5 1
   4    2    3 1
   5    2   33 1
   6    2   40 1
   7    3    6 1
   8    3   41 1
   9    3   42 1
  10    5   43 1
  11    6    7 ar
  12    6   11 ar
  13    7    8 ar
  14    7   44 1
  15    8    9 ar
  16    8   45 1
  17    9   10 ar
  18    9   13 1
  19   10   11 ar
  20   10   46 1
  21   11   47 1
  22   12   13 1
  23   12   16 1
  24   13   14 2
  25   14   15 1
  26   15   16 1
  27   15   17 1
  28   15   48 1
  29   16   49 1
  30   16   50 1
  31   17   18 1
  32   17   51 1
  33   17   52 1
  34   18   19 1
  35   18   53 1
  36   19   20 ar
  37   19   24 ar
  38   20   21 ar
  39   20   54 1
  40   21   22 ar
  41   21   55 1
  42   22   23 ar
  43   22   56 1
  44   23   24 ar
  45   23   57 1
  46   25   26 1
  47   25   32 2
  48   25   33 am
  49   26   27 ar
  50   26   31 ar
  51   27   28 ar
  52   27   35 1
  53   28   29 ar
  54   28   58 1
  55   29   30 ar
  56   29   37 1
  57   30   31 ar
  58   30   59 1
  59   31   34 1
  60   33   60 1
  61   34   61 1
  62   34   62 1
  63   34   63 1
  64   35   36 1
  65   35   64 1
  66   35   65 1
  67   36   66 1
  68   36   67 1
  69   36   68 1
  70   37   38 2
  71   37   39 1
  72   39   69 1
  73   39   70 1
  74   39   71 1

#	End of record

