#	Name: ASD07930102
#	Creating user name:	WinNT
#	Creation time:	15. 06. 2019 21:11

#	Modifying user name:	WinNT
#	Modification time:	15. 06. 2019 21:11

#	Program:	/corina/corina34_cracker 3.40 0067  02.08.2006

@<TRIPOS>MOLECULE
ASD07930102
  24   24    0    0    0
SMALL
NO_CHARGES


@<TRIPOS>ATOM
   1 C1            -0.0164     1.3567     0.0095 C.2     
   2 C2             0.0021    -0.0041     0.0020 C.2     
   3 C3             1.2370    -0.6881    -0.0135 C.2     
   4 C4             2.4079     0.0403    -0.0208 C.2     
   5 C5             2.3453     1.4465    -0.0127 C.2     
   6 N6             1.1532     2.0715     0.0022 N.am    
   7 C7            -1.3102     2.0708     0.0195 C.2     
   8 O8            -2.3502     1.4434     0.0210 O.2     
   9 O9            -1.3362     3.4180     0.0269 O.3     
  10 O10            3.3750     2.1010    -0.0190 O.2     
  11 C11            0.8402    -2.9071     0.9699 C.2     
  12 N12            1.0375    -4.1419     0.5976 N.2     
  13 C13            1.5936    -4.1560    -0.6239 C.2     
  14 C14            1.7497    -2.8816    -1.0303 C.2     
  15 N15            1.2723    -2.0818    -0.0209 N.pl3   
  16 Cl16           2.0354    -5.5727    -1.5246 Cl      
  17 H17           -0.9246    -0.5587     0.0083 H       
  18 H18            3.3633    -0.4631    -0.0323 H       
  19 H19            1.1214     3.0409     0.0077 H       
  20 H20           -2.2060     3.8403     0.0334 H       
  21 H21            0.4027    -2.5932     1.9061 H       
  22 H22            2.1699    -2.5519    -1.9689 H       
  23 Cl23           8.3750     8.8403     6.9061 Cl      
  24 H24            8.3750    10.2103     6.9061 H       
@<TRIPOS>BOND
   1    1    2 2
   2    1    6 1
   3    1    7 1
   4    2    3 1
   5    2   17 1
   6    3    4 2
   7    3   15 1
   8    4    5 1
   9    4   18 1
  10    5    6 am
  11    5   10 2
  12    6   19 1
  13    7    8 2
  14    7    9 1
  15    9   20 1
  16   11   12 2
  17   11   15 1
  18   11   21 1
  19   12   13 1
  20   13   14 2
  21   13   16 1
  22   14   15 1
  23   14   22 1
  24   23   24 1

#	End of record

