#	Name: ASD01900400
#	Creating user name:	WinNT
#	Creation time:	15. 06. 2019 19:51

#	Modifying user name:	WinNT
#	Modification time:	15. 06. 2019 19:51

#	Program:	/corina/corina34_cracker 3.40 0067  02.08.2006

@<TRIPOS>MOLECULE
ASD01900400
  28   30    0    0    0
SMALL
NO_CHARGES


@<TRIPOS>ATOM
   1 C1            -0.0295     1.3946     0.1782 C.ar    
   2 C2            -0.0009    -0.0062     0.0395 C.ar    
   3 C3             1.2152    -0.6751     0.1738 C.ar    
   4 C4             2.3460     0.0720     0.4389 C.ar    
   5 C5             2.2442     1.4515     0.5632 C.ar    
   6 N6             1.0907     2.0664     0.4335 N.ar    
   7 N7            -2.1214     0.7104    -0.2400 N.2     
   8 N8            -1.2848    -0.4102    -0.2156 N.pl3   
   9 C9            -1.4269     1.7925    -0.0076 C.2     
  10 N10           -1.9266     3.0975     0.0450 N.pl3   
  11 C11           -3.7912     4.5248    -0.5374 C.ar    
  12 C12           -3.3028     3.3226    -0.0404 C.ar    
  13 C13           -4.2058     2.3449     0.3710 C.ar    
  14 C14           -5.5605     2.6148     0.2664 C.ar    
  15 C15           -5.9691     3.8351    -0.2386 C.ar    
  16 N16           -5.0887     4.7400    -0.6201 N.ar    
  17 C17           -6.5773     1.5895     0.6976 C.3     
  18 H18            1.2713    -1.7490     0.0735 H       
  19 H19            3.3042    -0.4139     0.5493 H       
  20 H20            3.1318     2.0306     0.7710 H       
  21 H21           -1.5683    -1.3269    -0.3571 H       
  22 H22           -1.3177     3.8465     0.1407 H       
  23 H23           -3.1007     5.2920    -0.8552 H       
  24 H24           -3.8584     1.3998     0.7615 H       
  25 H25           -7.0241     4.0503    -0.3222 H       
  26 H26           -6.8173     1.7364     1.7507 H       
  27 H27           -7.4819     1.7011     0.0999 H       
  28 H28           -6.1682     0.5894     0.5543 H       
@<TRIPOS>BOND
   1    1    2 ar
   2    1    6 ar
   3    1    9 1
   4    2    3 ar
   5    2    8 1
   6    3    4 ar
   7    3   18 1
   8    4    5 ar
   9    4   19 1
  10    5    6 ar
  11    5   20 1
  12    7    8 1
  13    7    9 2
  14    8   21 1
  15    9   10 1
  16   10   12 1
  17   10   22 1
  18   11   12 ar
  19   11   16 ar
  20   11   23 1
  21   12   13 ar
  22   13   14 ar
  23   13   24 1
  24   14   15 ar
  25   14   17 1
  26   15   16 ar
  27   15   25 1
  28   17   26 1
  29   17   27 1
  30   17   28 1

#	End of record

