#	Name: ASD00068007
#	Creating user name:	WinNT
#	Creation time:	15. 06. 2019 18:29

#	Modifying user name:	WinNT
#	Modification time:	15. 06. 2019 18:29

#	Program:	/corina/corina34_cracker 3.40 0067  02.08.2006

@<TRIPOS>MOLECULE
ASD00068007
  47   49    0    0    0
SMALL
NO_CHARGES


@<TRIPOS>ATOM
   1 C1            -0.0187     1.5258     0.0104 C.3     
   2 C2             0.0021    -0.0041     0.0020 C.3     
   3 C3            -1.4333    -0.5336     0.0129 C.3     
   4 C4            -1.4129    -2.0405     0.0046 C.2     
   5 S5             1.6831     2.1537    -0.0024 S.3     
   6 O6            -0.3545    -2.6325    -0.0087 O.2     
   7 N7            -2.5708    -2.7302     0.0119 N.am    
   8 C8            -2.5734    -4.2010     0.0041 C.3     
   9 C9            -3.4743    -4.6922     1.1422 C.3     
  10 N10           -4.7983    -4.0680     1.0187 N.3     
  11 C11           -4.7152    -2.6087     1.1652 C.3     
  12 C12           -3.8651    -2.0321     0.0342 C.3     
  13 C13           -5.7430    -4.6413     1.9866 C.3     
  14 C14           -7.0062    -3.8196     2.0028 C.ar    
  15 C15           -7.2117    -2.9001     2.9854 C.ar    
  16 C16           -8.3733    -2.1313     3.0168 C.ar    
  17 C17           -9.3362    -2.2769     2.0656 C.ar    
  18 C18           -9.1592    -3.2157     1.0353 C.ar    
  19 C19          -10.1311    -3.3947     0.0360 C.ar    
  20 C20           -9.9255    -4.3139    -0.9463 C.ar    
  21 C21           -8.7637    -5.0832    -0.9775 C.ar    
  22 C22           -7.8011    -4.9377    -0.0266 C.ar    
  23 C23           -7.9753    -3.9944     1.0006 C.ar    
  24 H24           -0.5459     1.8868    -0.8726 H       
  25 H25           -0.5289     1.8773     0.9072 H       
  26 H26            0.5123    -0.3556    -0.8948 H       
  27 H27            0.5293    -0.3651     0.8851 H       
  28 H28           -1.9435    -0.1821     0.9097 H       
  29 H29           -1.9605    -0.1726    -0.8702 H       
  30 H30            1.5135     3.4879     0.0063 H       
  31 H31           -2.9590    -4.5613    -0.9496 H       
  32 H32           -1.5589    -4.5698     0.1549 H       
  33 H33           -3.5762    -5.7758     1.0836 H       
  34 H34           -3.0315    -4.4194     2.1001 H       
  35 H35           -5.7170    -2.1812     1.1233 H       
  36 H36           -4.2551    -2.3649     2.1228 H       
  37 H37           -3.7042    -0.9676     0.2049 H       
  38 H38           -4.3773    -2.1799    -0.9166 H       
  39 H39           -5.9798    -5.6659     1.7000 H       
  40 H40           -5.2936    -4.6363     2.9796 H       
  41 H41           -6.4634    -2.7649     3.7522 H       
  42 H42           -8.5120    -1.4092     3.8078 H       
  43 H43          -10.2316    -1.6742     2.1029 H       
  44 H44          -11.0366    -2.8062     0.0478 H       
  45 H45          -10.6740    -4.4494    -1.7130 H       
  46 H46           -8.6255    -5.8059    -1.7681 H       
  47 H47           -6.9062    -5.5413    -0.0632 H       
@<TRIPOS>BOND
   1    1    2 1
   2    1    5 1
   3    1   24 1
   4    1   25 1
   5    2    3 1
   6    2   26 1
   7    2   27 1
   8    3    4 1
   9    3   28 1
  10    3   29 1
  11    4    6 2
  12    4    7 am
  13    5   30 1
  14    7    8 1
  15    7   12 1
  16    8    9 1
  17    8   31 1
  18    8   32 1
  19    9   10 1
  20    9   33 1
  21    9   34 1
  22   10   11 1
  23   10   13 1
  24   11   12 1
  25   11   35 1
  26   11   36 1
  27   12   37 1
  28   12   38 1
  29   13   14 1
  30   13   39 1
  31   13   40 1
  32   14   15 ar
  33   14   23 ar
  34   15   16 ar
  35   15   41 1
  36   16   17 ar
  37   16   42 1
  38   17   18 ar
  39   17   43 1
  40   18   19 ar
  41   18   23 ar
  42   19   20 ar
  43   19   44 1
  44   20   21 ar
  45   20   45 1
  46   21   22 ar
  47   21   46 1
  48   22   23 ar
  49   22   47 1

#	End of record

