#	Name: ASD08170001
#	Creating user name:	WinNT
#	Creation time:	15. 06. 2019 21:17

#	Modifying user name:	WinNT
#	Modification time:	15. 06. 2019 21:17

#	Program:	/corina/corina34_cracker 3.40 0067  02.08.2006

@<TRIPOS>MOLECULE
ASD08170001
  59   62    0    0    0
SMALL
NO_CHARGES


@<TRIPOS>ATOM
   1 C1            -0.0167     1.3781     0.0096 C.ar    
   2 C2             0.0021    -0.0041     0.0020 C.ar    
   3 C3             1.2084    -0.6789    -0.0132 C.ar    
   4 C4             2.3960     0.0285    -0.0212 C.ar    
   5 C5             2.3773     1.4107    -0.0145 C.ar    
   6 C6             1.1709     2.0855     0.0021 C.ar    
   7 C7             3.7112    -0.7071    -0.0368 C.3     
   8 C8             4.1362    -0.9461    -1.4627 C.2     
   9 N9             5.2903    -1.5919    -1.7226 N.am    
  10 O10            3.4398    -0.5574    -2.3764 O.2     
  11 C11            5.6826    -1.8125    -3.0386 C.2     
  12 N12            5.0246    -1.4448    -4.0964 N.2     
  13 N13            5.5222    -1.7242    -5.2226 N.2     
  14 C14            6.6523    -2.3570    -5.2160 C.2     
  15 S15            7.1172    -2.6075    -3.5329 S.3     
  16 C16            7.4325    -2.7956    -6.4284 C.3     
  17 C17            8.4017    -1.6857    -6.8402 C.3     
  18 S18            9.3409    -2.2136    -8.2996 S.3     
  19 C19           10.4162    -0.7905    -8.6296 C.3     
  20 C20           11.2876    -1.0825    -9.8529 C.3     
  21 C21           12.1809     0.0998   -10.1271 C.2     
  22 N22           13.3683     0.2881    -9.6452 N.2     
  23 N23           13.9592     1.3469    -9.9969 N.2     
  24 C24           13.3316     2.1483   -10.8037 C.2     
  25 S25           11.8003     1.4721   -11.1680 S.3     
  26 N26           13.8231     3.3532   -11.2943 N.am    
  27 C27           15.0515     3.7760   -10.9355 C.2     
  28 C28           15.5841     5.0817   -11.4672 C.3     
  29 O29           15.7283     3.1057   -10.1848 O.2     
  30 C30           16.9671     5.3208   -10.9182 C.ar    
  31 C31           18.0731     4.8560   -11.6048 C.ar    
  32 C32           19.3417     5.0753   -11.1013 C.ar    
  33 C33           19.5042     5.7599    -9.9114 C.ar    
  34 C34           18.3982     6.2255    -9.2253 C.ar    
  35 C35           17.1298     6.0099    -9.7310 C.ar    
  36 H36           -0.9592     1.9054     0.0170 H       
  37 H37           -0.9258    -0.5567     0.0083 H       
  38 H38            1.2231    -1.7588    -0.0184 H       
  39 H39            3.3051     1.9634    -0.0201 H       
  40 H40            1.1563     3.1654     0.0069 H       
  41 H41            4.4676    -0.1100     0.4726 H       
  42 H42            3.5986    -1.6635     0.4740 H       
  43 H43            5.8473    -1.9028    -0.9919 H       
  44 H44            7.9943    -3.6992    -6.1916 H       
  45 H45            6.7446    -3.0001    -7.2488 H       
  46 H46            7.8399    -0.7821    -7.0770 H       
  47 H47            9.0897    -1.4812    -6.0198 H       
  48 H48            9.8040     0.0907    -8.8217 H       
  49 H49           11.0538    -0.6084    -7.7645 H       
  50 H50           11.8998    -1.9637    -9.6608 H       
  51 H51           10.6500    -1.2646   -10.7180 H       
  52 H52           13.2818     3.8893   -11.8947 H       
  53 H53           15.6273     5.0402   -12.5555 H       
  54 H54           14.9259     5.8945   -11.1603 H       
  55 H55           17.9462     4.3211   -12.5345 H       
  56 H56           20.2058     4.7115   -11.6374 H       
  57 H57           20.4953     5.9306    -9.5176 H       
  58 H58           18.5251     6.7600    -8.2954 H       
  59 H59           16.2657     6.3737    -9.1950 H       
@<TRIPOS>BOND
   1    1    2 ar
   2    1    6 ar
   3    1   36 1
   4    2    3 ar
   5    2   37 1
   6    3    4 ar
   7    3   38 1
   8    4    5 ar
   9    4    7 1
  10    5    6 ar
  11    5   39 1
  12    6   40 1
  13    7    8 1
  14    7   41 1
  15    7   42 1
  16    8    9 am
  17    8   10 2
  18    9   11 1
  19    9   43 1
  20   11   12 2
  21   11   15 1
  22   12   13 1
  23   13   14 2
  24   14   15 1
  25   14   16 1
  26   16   17 1
  27   16   44 1
  28   16   45 1
  29   17   18 1
  30   17   46 1
  31   17   47 1
  32   18   19 1
  33   19   20 1
  34   19   48 1
  35   19   49 1
  36   20   21 1
  37   20   50 1
  38   20   51 1
  39   21   22 2
  40   21   25 1
  41   22   23 1
  42   23   24 2
  43   24   25 1
  44   24   26 1
  45   26   27 am
  46   26   52 1
  47   27   28 1
  48   27   29 2
  49   28   30 1
  50   28   53 1
  51   28   54 1
  52   30   31 ar
  53   30   35 ar
  54   31   32 ar
  55   31   55 1
  56   32   33 ar
  57   32   56 1
  58   33   34 ar
  59   33   57 1
  60   34   35 ar
  61   34   58 1
  62   35   59 1

#	End of record

