#	Name: ASD02038763
#	Creating user name:	WinNT
#	Creation time:	15. 06. 2019 20:17

#	Modifying user name:	WinNT
#	Modification time:	15. 06. 2019 20:17

#	Program:	/corina/corina34_cracker 3.40 0067  02.08.2006

@<TRIPOS>MOLECULE
ASD02038763
  47   49    0    0    0
SMALL
NO_CHARGES


@<TRIPOS>ATOM
   1 C1            -1.2779    -0.8486     0.4651 C.2     
   2 C2            -0.0609    -0.0346     0.3014 C.2     
   3 N3             1.1366    -0.6350     0.1536 N.am    
   4 C4             1.2421    -2.0929     0.2509 C.3     
   5 C5             1.2143    -2.6920    -1.1317 C.ar    
   6 C6             2.3329     0.1704    -0.1044 C.3     
   7 O7            -0.1369     1.1793     0.2998 O.2     
   8 N8            -1.3381    -2.2045     0.4968 N.2     
   9 C9            -2.5782    -2.5672     0.6552 C.2     
  10 N10           -3.3575    -1.4570     0.7307 N.pl3   
  11 C11           -2.5488    -0.3772     0.6183 C.2     
  12 C12            2.3976    -3.0137    -1.7684 C.ar    
  13 C13            0.0048    -2.9243    -1.7595 C.ar    
  14 C14           -0.0241    -3.4739    -3.0282 C.ar    
  15 C15            1.1562    -3.7921    -3.6712 C.ar    
  16 C16            2.3713    -3.5651    -3.0409 C.ar    
  17 C17            2.1204     1.0144    -1.3649 C.3     
  18 C18            3.3429     1.9099    -1.5820 C.3     
  19 O19            3.5430     2.7288    -0.4281 O.3     
  20 C20            3.7936     1.9946     0.7720 C.3     
  21 C21            2.5892     1.1025     1.0838 C.3     
  22 O22            3.5340    -3.8768    -3.6717 O.3     
  23 C23            3.4311    -4.4354    -4.9830 C.3     
  24 C24           -4.8115    -1.4327     0.9083 C.3     
  25 H25            2.1781    -2.3575     0.7428 H       
  26 H26            0.4045    -2.4798     0.8314 H       
  27 H27            3.1911    -0.4866    -0.2459 H       
  28 H28           -2.9307    -3.5862     0.7163 H       
  29 H29           -2.8526     0.6590     0.6385 H       
  30 H30            3.3421    -2.8358    -1.2758 H       
  31 H31           -0.9192    -2.6765    -1.2582 H       
  32 H32           -0.9702    -3.6548    -3.5164 H       
  33 H33            1.1332    -4.2213    -4.6620 H       
  34 H34            1.9922     0.3580    -2.2255 H       
  35 H35            1.2320     1.6341    -1.2427 H       
  36 H36            4.2240     1.2891    -1.7444 H       
  37 H37            3.1790     2.5437    -2.4536 H       
  38 H38            4.6806     1.3749     0.6404 H       
  39 H39            3.9544     2.6894     1.5963 H       
  40 H40            1.7103     1.7240     1.2554 H       
  41 H41            2.7963     0.5090     1.9743 H       
  42 H42            2.8636    -5.3650    -4.9385 H       
  43 H43            2.9218    -3.7299    -5.6395 H       
  44 H44            4.4294    -4.6373    -5.3713 H       
  45 H45           -5.0472    -1.4079     1.9722 H       
  46 H46           -5.2219    -0.5464     0.4245 H       
  47 H47           -5.2473    -2.3258     0.4603 H       
@<TRIPOS>BOND
   1    1    2 1
   2    1    8 1
   3    1   11 2
   4    2    3 am
   5    2    7 2
   6    3    4 1
   7    3    6 1
   8    4    5 1
   9    4   25 1
  10    4   26 1
  11    5   12 ar
  12    5   13 ar
  13    6   17 1
  14    6   21 1
  15    6   27 1
  16    8    9 2
  17    9   10 1
  18    9   28 1
  19   10   11 1
  20   10   24 1
  21   11   29 1
  22   12   16 ar
  23   12   30 1
  24   13   14 ar
  25   13   31 1
  26   14   15 ar
  27   14   32 1
  28   15   16 ar
  29   15   33 1
  30   16   22 1
  31   17   18 1
  32   17   34 1
  33   17   35 1
  34   18   19 1
  35   18   36 1
  36   18   37 1
  37   19   20 1
  38   20   21 1
  39   20   38 1
  40   20   39 1
  41   21   40 1
  42   21   41 1
  43   22   23 1
  44   23   42 1
  45   23   43 1
  46   23   44 1
  47   24   45 1
  48   24   46 1
  49   24   47 1

#	End of record

