#	Name: ASD03430982
#	Creating user name:	WinNT
#	Creation time:	15. 06. 2019 20:41

#	Modifying user name:	WinNT
#	Modification time:	15. 06. 2019 20:41

#	Program:	/corina/corina34_cracker 3.40 0067  02.08.2006

@<TRIPOS>MOLECULE
ASD03430982
  47   52    0    0    0
SMALL
NO_CHARGES


@<TRIPOS>ATOM
   1 O1             0.0017     1.6979     0.5881 O.3     
   2 C2             0.1159     0.2797     0.7492 C.3     
   3 C3             0.9957     0.0055     1.9763 C.3     
   4 O4             2.2789     0.5984     1.7502 O.3     
   5 C5             2.2893     1.8723     1.2693 C.ar    
   6 C6             1.1529     2.4186     0.6841 C.ar    
   7 C7             3.4466     2.6260     1.3697 C.ar    
   8 C8             3.4853     3.9280     0.8811 C.ar    
   9 C9             2.3472     4.4580     0.2809 C.ar    
  10 C10            1.1906     3.7129     0.1886 C.ar    
  11 O11            4.5025     4.8365     0.8994 O.3     
  12 C12            2.7084     5.8469    -0.1734 C.3     
  13 C13            4.2401     5.8627    -0.0768 C.3     
  14 N14            1.4434     7.2157    -1.4969 N.am    
  15 C15            2.2358     6.1279    -1.5712 C.2     
  16 C16            2.0817     6.9096     0.6792 C.ar    
  17 C17            2.1232     7.1972     2.0253 C.ar    
  18 C18            1.4180     8.2773     2.5254 C.ar    
  19 C19            0.6711     9.0673     1.6706 C.ar    
  20 C20            0.6259     8.7833     0.3216 C.ar    
  21 C21            1.3328     7.6981    -0.1906 C.ar    
  22 O22            2.5129     5.4993    -2.5707 O.2     
  23 C23            0.7759     7.8216    -2.6517 C.3     
  24 C24            1.6239     8.9452    -3.1896 C.ar    
  25 C25            2.4737     8.7107    -4.2559 C.ar    
  26 C26            3.2497     9.7525    -4.7430 C.ar    
  27 C27            3.1414    10.9949    -4.1371 C.ar    
  28 C28            2.2705    11.1534    -3.0760 C.ar    
  29 N29            1.5437    10.1420    -2.6422 N.ar    
  30 Cl30           2.5681     7.1333    -4.9747 Cl      
  31 H31           -0.8726    -0.1539     0.9012 H       
  32 H32            0.5763    -0.1552    -0.1379 H       
  33 H33            0.5383     0.4459     2.8623 H       
  34 H34            1.1072    -1.0698     2.1157 H       
  35 H35            4.3254     2.2001     1.8309 H       
  36 H36            0.3111     4.1389    -0.2712 H       
  37 H37            4.5958     6.8312     0.2747 H       
  38 H38            4.6910     5.6086    -1.0361 H       
  39 H39            2.7067     6.5788     2.6913 H       
  40 H40            1.4503     8.5028     3.5811 H       
  41 H41            0.1203     9.9102     2.0612 H       
  42 H42            0.0404     9.4047    -0.3397 H       
  43 H43            0.6363     7.0684    -3.4271 H       
  44 H44           -0.1946     8.2128    -2.3463 H       
  45 H45            3.9224     9.5993    -5.5739 H       
  46 H46            3.7307    11.8284    -4.4899 H       
  47 H47            2.1810    12.1181    -2.5988 H       
@<TRIPOS>BOND
   1    1    2 1
   2    1    6 1
   3    2    3 1
   4    2   31 1
   5    2   32 1
   6    3    4 1
   7    3   33 1
   8    3   34 1
   9    4    5 1
  10    5    6 ar
  11    5    7 ar
  12    6   10 ar
  13    7    8 ar
  14    7   35 1
  15    8    9 ar
  16    8   11 1
  17    9   10 ar
  18    9   12 1
  19   10   36 1
  20   11   13 1
  21   12   13 1
  22   12   15 1
  23   12   16 1
  24   13   37 1
  25   13   38 1
  26   14   15 am
  27   14   21 1
  28   14   23 1
  29   15   22 2
  30   16   17 ar
  31   16   21 ar
  32   17   18 ar
  33   17   39 1
  34   18   19 ar
  35   18   40 1
  36   19   20 ar
  37   19   41 1
  38   20   21 ar
  39   20   42 1
  40   23   24 1
  41   23   43 1
  42   23   44 1
  43   24   25 ar
  44   24   29 ar
  45   25   26 ar
  46   25   30 1
  47   26   27 ar
  48   26   45 1
  49   27   28 ar
  50   27   46 1
  51   28   29 ar
  52   28   47 1

#	End of record

