#	Name: ASD01911638
#	Creating user name:	WinNT
#	Creation time:	15. 06. 2019 19:58

#	Modifying user name:	WinNT
#	Modification time:	15. 06. 2019 19:58

#	Program:	/corina/corina34_cracker 3.40 0067  02.08.2006

@<TRIPOS>MOLECULE
ASD01911638
  63   67    0    0    0
SMALL
NO_CHARGES


@<TRIPOS>ATOM
   1 C1            -0.0118     1.3457     0.5108 C.ar    
   2 C2             0.0225    -0.0326     0.4597 C.ar    
   3 C3             1.1879    -0.6842     0.0613 C.ar    
   4 C4             2.3140     0.0597    -0.2838 C.ar    
   5 C5             2.2711     1.4381    -0.2299 C.ar    
   6 C6             1.1105     2.0818     0.1668 C.ar    
   7 F7             1.0727     3.4313     0.2182 F       
   8 C8             3.4888     2.2439    -0.6025 C.3     
   9 C9             1.2296    -2.1669     0.0053 C.2     
  10 N10            2.2907    -2.8989    -0.2630 N.2     
  11 C11            0.1449    -3.0298     0.2355 C.2     
  12 C12            0.5930    -4.3100     0.0900 C.2     
  13 N13            1.9198    -4.2487    -0.2189 N.pl3   
  14 C14           -0.2134    -5.5415     0.2430 C.ar    
  15 C15           -1.3836    -5.5227     1.0020 C.ar    
  16 C16           -2.1310    -6.6741     1.1409 C.ar    
  17 C17           -1.7221    -7.8457     0.5293 C.ar    
  18 C18           -0.5625    -7.8708    -0.2248 C.ar    
  19 C19            0.1906    -6.7246    -0.3760 C.ar    
  20 C20            2.8018    -5.3930    -0.4614 C.3     
  21 C21            2.8632    -5.6754    -1.9404 C.2     
  22 N22            3.6192    -6.6913    -2.4017 N.am    
  23 O23            2.2323    -4.9884    -2.7156 O.2     
  24 C24            3.6933    -6.9841    -3.8412 C.3     
  25 C25            4.3969    -7.5328    -1.4796 C.3     
  26 C26            5.8434    -7.5965    -1.9812 C.3     
  27 N27            5.8535    -8.0372    -3.3825 N.3     
  28 C28            5.1689    -7.0705    -4.2451 C.3     
  29 C29            7.1482    -8.2631    -3.8229 C.ar    
  30 N30            8.1823    -8.0763    -3.0053 N.ar    
  31 C31            7.3864    -8.6943    -5.1253 C.ar    
  32 C32            8.7019    -8.9064    -5.5182 C.ar    
  33 N33            9.6803    -8.6918    -4.6432 N.ar    
  34 C34            9.4154    -8.2890    -3.4168 C.ar    
  35 O35            8.9842    -9.3266    -6.7756 O.3     
  36 C36           10.3622    -9.5210    -7.1005 C.3     
  37 H37           -0.9161     1.8517     0.8152 H       
  38 H38           -0.8526    -0.6056     0.7284 H       
  39 H39            3.2194    -0.4415    -0.5927 H       
  40 H40            3.4647     2.4665    -1.6692 H       
  41 H41            3.4949     3.1757    -0.0369 H       
  42 H42            4.3876     1.6724    -0.3708 H       
  43 H43           -0.8633    -2.7326     0.4837 H       
  44 H44           -1.7037    -4.6088     1.4803 H       
  45 H45           -3.0370    -6.6609     1.7286 H       
  46 H46           -2.3103    -8.7445     0.6412 H       
  47 H47           -0.2484    -8.7885    -0.6999 H       
  48 H48            1.0956    -6.7454    -0.9649 H       
  49 H49            3.8021    -5.1652    -0.0932 H       
  50 H50            2.4133    -6.2681     0.0597 H       
  51 H51            3.2010    -7.9345    -4.0473 H       
  52 H52            3.2061    -6.1868    -4.4025 H       
  53 H53            4.3747    -7.0981    -0.4802 H       
  54 H54            3.9734    -8.5369    -1.4547 H       
  55 H55            6.2978    -6.6085    -1.9074 H       
  56 H56            6.4083    -8.3034    -1.3735 H       
  57 H57            5.2392    -7.3956    -5.2831 H       
  58 H58            5.6368    -6.0919    -4.1376 H       
  59 H59            6.5695    -8.8598    -5.8121 H       
  60 H60           10.2331    -8.1239    -2.7309 H       
  61 H61           10.9005    -8.5812    -6.9779 H       
  62 H62           10.7891   -10.2735    -6.4374 H       
  63 H63           10.4479    -9.8568    -8.1339 H       
@<TRIPOS>BOND
   1    1    2 ar
   2    1    6 ar
   3    1   37 1
   4    2    3 ar
   5    2   38 1
   6    3    4 ar
   7    3    9 1
   8    4    5 ar
   9    4   39 1
  10    5    6 ar
  11    5    8 1
  12    6    7 1
  13    8   40 1
  14    8   41 1
  15    8   42 1
  16    9   10 2
  17    9   11 1
  18   10   13 1
  19   11   12 2
  20   11   43 1
  21   12   13 1
  22   12   14 1
  23   13   20 1
  24   14   15 ar
  25   14   19 ar
  26   15   16 ar
  27   15   44 1
  28   16   17 ar
  29   16   45 1
  30   17   18 ar
  31   17   46 1
  32   18   19 ar
  33   18   47 1
  34   19   48 1
  35   20   21 1
  36   20   49 1
  37   20   50 1
  38   21   22 am
  39   21   23 2
  40   22   24 1
  41   22   25 1
  42   24   28 1
  43   24   51 1
  44   24   52 1
  45   25   26 1
  46   25   53 1
  47   25   54 1
  48   26   27 1
  49   26   55 1
  50   26   56 1
  51   27   28 1
  52   27   29 1
  53   28   57 1
  54   28   58 1
  55   29   30 ar
  56   29   31 ar
  57   30   34 ar
  58   31   32 ar
  59   31   59 1
  60   32   33 ar
  61   32   35 1
  62   33   34 ar
  63   34   60 1
  64   35   36 1
  65   36   61 1
  66   36   62 1
  67   36   63 1

#	End of record

