#	Name: ASD01885502
#	Creating user name:	WinNT
#	Creation time:	15. 06. 2019 19:49

#	Modifying user name:	WinNT
#	Modification time:	15. 06. 2019 19:49

#	Program:	/corina/corina34_cracker 3.40 0067  02.08.2006

@<TRIPOS>MOLECULE
ASD01885502
  35   37    0    0    0
SMALL
NO_CHARGES


@<TRIPOS>ATOM
   1 C1            -0.0388     1.4167     0.0072 C.ar    
   2 C2            -0.0161     0.0212     0.0397 C.ar    
   3 N3            -1.1307    -0.7508     0.0521 N.2     
   4 C4            -2.1918    -0.5676    -0.6472 C.2     
   5 C5            -2.3337     0.6067    -1.5797 C.3     
   6 C6            -2.2855     1.8690    -0.7564 C.2     
   7 N7            -1.2068     2.1680    -0.0336 N.am    
   8 C8             1.1632     2.1195     0.0093 C.ar    
   9 C9             2.3792     1.4404     0.0378 C.ar    
  10 C10            2.3930     0.0424     0.0646 C.ar    
  11 C11            1.2211    -0.6500     0.0658 C.ar    
  12 C12           -3.2991    -1.5313    -0.5349 C.ar    
  13 O13           -3.2377     2.6203    -0.7534 O.2     
  14 C14           -3.1341    -2.7063     0.2063 C.ar    
  15 C15           -4.1719    -3.6103     0.3121 C.ar    
  16 C16           -5.3787    -3.3628    -0.3116 C.ar    
  17 C17           -5.5586    -2.1932    -1.0557 C.ar    
  18 C18           -4.5187    -1.2725    -1.1630 C.ar    
  19 C19            3.6487     2.1940     0.0393 C.2     
  20 O20            3.6341     3.4096     0.0156 O.2     
  21 N21            4.8238     1.5346     0.0670 N.am    
  22 *22            6.1137     2.3003     0.0685 Du      
  23 C23           -6.8111    -1.9394    -1.7018 C.1     
  24 N24           -7.8047    -1.7381    -2.2143 N.1     
  25 H25           -1.5155     0.6056    -2.2998 H       
  26 H26           -3.2869     0.5462    -2.1050 H       
  27 H27           -1.2398     2.9715     0.5088 H       
  28 H28            1.1526     3.1992    -0.0118 H       
  29 H29            3.3336    -0.4880     0.0845 H       
  30 H30            1.2406    -1.7296     0.0865 H       
  31 H31           -2.1928    -2.9066     0.6965 H       
  32 H32           -4.0391    -4.5160     0.8852 H       
  33 H33           -6.1859    -4.0750    -0.2245 H       
  34 H34           -4.6525    -0.3671    -1.7364 H       
  35 H35            4.8354     0.5649     0.0859 H       
@<TRIPOS>BOND
   1    1    2 ar
   2    1    8 ar
   3    1    7 1
   4    2    3 1
   5    2   11 ar
   6    3    4 2
   7    4    5 1
   8    4   12 1
   9    5    6 1
  10    5   25 1
  11    5   26 1
  12    6    7 am
  13    6   13 2
  14    7   27 1
  15    8    9 ar
  16    8   28 1
  17    9   10 ar
  18    9   19 1
  19   10   11 ar
  20   10   29 1
  21   11   30 1
  22   12   14 ar
  23   12   18 ar
  24   14   15 ar
  25   14   31 1
  26   15   16 ar
  27   15   32 1
  28   16   17 ar
  29   16   33 1
  30   17   23 1
  31   17   18 ar
  32   18   34 1
  33   19   20 2
  34   19   21 am
  35   21   22 1
  36   21   35 1
  37   23   24 3

#	End of record

