#	Name: ASD05173002
#	Creating user name:	WinNT
#	Creation time:	15. 06. 2019 20:57

#	Modifying user name:	WinNT
#	Modification time:	15. 06. 2019 20:57

#	Program:	/corina/corina34_cracker 3.40 0067  02.08.2006

@<TRIPOS>MOLECULE
ASD05173002
  31   33    0    0    0
SMALL
NO_CHARGES


@<TRIPOS>ATOM
   1 C1             0.0026     1.3531     0.0599 C.ar    
   2 C2             0.0180    -0.0314     0.0877 C.ar    
   3 C3            -1.1655    -0.7329     0.0855 C.ar    
   4 C4            -2.3975    -0.0574     0.0552 C.ar    
   5 C5            -2.4091     1.3367     0.0313 C.ar    
   6 C6            -1.1985     2.0305     0.0374 C.ar    
   7 I7             1.8057     2.4198     0.0607 I       
   8 N8            -3.5182    -0.8239     0.0460 N.2     
   9 C9            -4.5934    -0.6057     0.7111 C.2     
  10 C10           -4.7477     0.6061     1.5922 C.3     
  11 C11           -4.6695     1.8341     0.7208 C.2     
  12 N12           -3.5711     2.0969     0.0109 N.am    
  13 O13           -5.6156     2.5910     0.6646 O.2     
  14 C14           -5.7059    -1.5657     0.6108 C.ar    
  15 C15           -5.6433    -2.6183    -0.3082 C.ar    
  16 C16           -6.6853    -3.5188    -0.4026 C.ar    
  17 C17           -7.7955    -3.3879     0.4078 C.ar    
  18 C18           -7.8724    -2.3412     1.3309 C.ar    
  19 C19           -6.8230    -1.4310     1.4364 C.ar    
  20 C20           -9.0252    -2.2076     2.1698 C.1     
  21 N21           -9.9398    -2.1016     2.8353 N.1     
  22 H22            0.9592    -0.5606     0.1108 H       
  23 H23           -1.1476    -1.8125     0.1068 H       
  24 H24           -1.2020     3.1103     0.0162 H       
  25 H25           -5.7135     0.5737     2.0964 H       
  26 H26           -3.9468     0.6279     2.3312 H       
  27 H27           -3.5850     2.8788    -0.5629 H       
  28 H28           -4.7781    -2.7265    -0.9455 H       
  29 H29           -6.6320    -4.3295    -1.1141 H       
  30 H30           -8.6070    -4.0961     0.3279 H       
  31 H31           -6.8771    -0.6206     2.1482 H       
@<TRIPOS>BOND
   1    1    2 ar
   2    1    7 1
   3    1    6 ar
   4    2    3 ar
   5    2   22 1
   6    3    4 ar
   7    3   23 1
   8    4    5 ar
   9    4    8 1
  10    5    6 ar
  11    5   12 1
  12    6   24 1
  13    8    9 2
  14    9   10 1
  15    9   14 1
  16   10   11 1
  17   10   25 1
  18   10   26 1
  19   11   12 am
  20   11   13 2
  21   12   27 1
  22   14   15 ar
  23   14   19 ar
  24   15   16 ar
  25   15   28 1
  26   16   17 ar
  27   16   29 1
  28   17   18 ar
  29   17   30 1
  30   18   19 ar
  31   18   20 1
  32   19   31 1
  33   20   21 3

#	End of record

