#	Name: ASD06170148
#	Creating user name:	WinNT
#	Creation time:	15. 06. 2019 21:05

#	Modifying user name:	WinNT
#	Modification time:	15. 06. 2019 21:05

#	Program:	/corina/corina34_cracker 3.40 0067  02.08.2006

@<TRIPOS>MOLECULE
ASD06170148
  74   79    0    0    0
SMALL
NO_CHARGES


@<TRIPOS>ATOM
   1 N1             0.0735     1.6288    -0.1895 N.pl3   
   2 N2             0.0642     0.2855     0.1978 N.am    
   3 C3             1.3373    -0.1110     0.4039 C.2     
   4 C4             2.1888     1.0570     0.1279 C.2     
   5 C5             1.3396     2.0857    -0.2303 C.2     
   6 C6             3.6528     1.1170     0.2159 C.2     
   7 O7             4.2358     2.1538    -0.0411 O.2     
   8 N8             4.3513     0.0238     0.5813 N.am    
   9 C9            -1.0741    -0.5134     0.3473 C.ar    
  10 C10           -2.0778    -0.4812    -0.6121 C.ar    
  11 C11           -3.2003    -1.2716    -0.4617 C.ar    
  12 C12           -3.3255    -2.0944     0.6427 C.ar    
  13 C13           -2.3282    -2.1284     1.6000 C.ar    
  14 C14           -1.2006    -1.3447     1.4527 C.ar    
  15 O15            1.7084    -1.2170     0.7500 O.2     
  16 C16            1.7593     3.4839    -0.6044 C.3     
  17 C17           -1.1171     2.4201    -0.5095 C.3     
  18 C18           -1.7060     2.9992     0.7784 C.3     
  19 C19           -0.6666     3.8934     1.4575 C.3     
  20 C20           -2.9494     3.8257     0.4442 C.3     
  21 O21           -2.0654     1.9330     1.6594 O.3     
  22 C22            5.7497     0.0296     0.5079 C.ar    
  23 C23            6.4463     1.2257     0.6217 C.ar    
  24 C24            7.8266     1.2304     0.5490 C.ar    
  25 C25            8.5160     0.0382     0.3621 C.ar    
  26 C26            7.8196    -1.1552     0.2481 C.ar    
  27 C27            6.4403    -1.1611     0.3269 C.ar    
  28 F28            8.5052     2.3934     0.6591 F       
  29 O29            9.8741     0.0423     0.2905 O.3     
  30 C30           12.6688     0.3596     2.6452 C.ar    
  31 C31           11.9760     0.1515     1.4493 C.ar    
  32 C32           10.5721     0.2390     1.4378 C.ar    
  33 C33            9.9177     0.5308     2.6236 C.ar    
  34 C34           10.6649     0.7257     3.7757 C.ar    
  35 N35           11.9706     0.6402     3.7664 N.ar    
  36 C36           14.0584     0.2326     2.4902 C.2     
  37 C37           14.4778    -0.0594     1.2540 C.2     
  38 S38           13.1160    -0.1936     0.1551 S.3     
  39 C39           15.8868    -0.2367     0.8675 C.2     
  40 O40           16.7653    -0.1182     1.7002 O.2     
  41 N41           16.2035    -0.5305    -0.4091 N.am    
  42 C42           17.4420    -0.7748    -1.1635 C.3     
  43 C43           16.7115    -0.2777    -2.4187 C.3     
  44 C44           15.4622    -0.7541    -1.6595 C.3     
  45 H45            3.8853    -0.7669     0.8952 H       
  46 H46           -1.9807     0.1614    -1.4747 H       
  47 H47           -3.9813    -1.2468    -1.2072 H       
  48 H48           -4.2043    -2.7115     0.7579 H       
  49 H49           -2.4292    -2.7718     2.4615 H       
  50 H50           -0.4200    -1.3750     2.1984 H       
  51 H51            1.7894     4.1058     0.2903 H       
  52 H52            2.7485     3.4564    -1.0613 H       
  53 H53            1.0434     3.9009    -1.3127 H       
  54 H54           -0.8430     3.2334    -1.1815 H       
  55 H55           -1.8576     1.7831    -0.9933 H       
  56 H56           -0.3925     4.7067     0.7855 H       
  57 H57           -1.0862     4.3059     2.3750 H       
  58 H58            0.2192     3.3046     1.6956 H       
  59 H59           -3.6899     3.1886    -0.0396 H       
  60 H60           -3.3689     4.2382     1.3618 H       
  61 H61           -2.6753     4.6390    -0.2277 H       
  62 H62           -2.7223     1.3249     1.2934 H       
  63 H63            5.9098     2.1518     0.7666 H       
  64 H64            8.3558    -2.0812     0.1022 H       
  65 H65            5.8988    -2.0918     0.2429 H       
  66 H66            8.8407     0.6057     2.6504 H       
  67 H67           10.1575     0.9537     4.7014 H       
  68 H68           14.7436     0.3625     3.3148 H       
  69 H69           18.2690    -0.1330    -0.8599 H       
  70 H70           17.7205    -1.8275    -1.2116 H       
  71 H71           16.7634     0.8007    -2.5684 H       
  72 H72           16.9301    -0.8511    -3.3196 H       
  73 H73           15.2187    -1.8014    -1.8383 H       
  74 H74           14.6025    -0.0947    -1.7783 H       
@<TRIPOS>BOND
   1    1    2 1
   2    1    5 1
   3    1   17 1
   4    2    3 am
   5    2    9 1
   6    3    4 1
   7    3   15 2
   8    4    5 2
   9    4    6 1
  10    5   16 1
  11    6    7 2
  12    6    8 am
  13    8   22 1
  14    8   45 1
  15    9   10 ar
  16    9   14 ar
  17   10   11 ar
  18   10   46 1
  19   11   12 ar
  20   11   47 1
  21   12   13 ar
  22   12   48 1
  23   13   14 ar
  24   13   49 1
  25   14   50 1
  26   16   51 1
  27   16   52 1
  28   16   53 1
  29   17   18 1
  30   17   54 1
  31   17   55 1
  32   18   19 1
  33   18   20 1
  34   18   21 1
  35   19   56 1
  36   19   57 1
  37   19   58 1
  38   20   59 1
  39   20   60 1
  40   20   61 1
  41   21   62 1
  42   22   23 ar
  43   22   27 ar
  44   23   24 ar
  45   23   63 1
  46   24   25 ar
  47   24   28 1
  48   25   26 ar
  49   25   29 1
  50   26   27 ar
  51   26   64 1
  52   27   65 1
  53   29   32 1
  54   30   31 ar
  55   30   35 ar
  56   30   36 1
  57   31   32 ar
  58   31   38 1
  59   32   33 ar
  60   33   34 ar
  61   33   66 1
  62   34   35 ar
  63   34   67 1
  64   36   37 2
  65   36   68 1
  66   37   38 1
  67   37   39 1
  68   39   40 2
  69   39   41 am
  70   41   42 1
  71   41   44 1
  72   42   43 1
  73   42   69 1
  74   42   70 1
  75   43   44 1
  76   43   71 1
  77   43   72 1
  78   44   73 1
  79   44   74 1

#	End of record

