#	Name: ASD01813577
#	Creating user name:	WinNT
#	Creation time:	15. 06. 2019 19:30

#	Modifying user name:	WinNT
#	Modification time:	15. 06. 2019 19:30

#	Program:	/corina/corina34_cracker 3.40 0067  02.08.2006

@<TRIPOS>MOLECULE
ASD01813577
  50   53    0    0    0
SMALL
NO_CHARGES


@<TRIPOS>ATOM
   1 C1             0.0066     1.3735    -0.0527 C.ar    
   2 C2             0.0184    -0.0129    -0.0572 C.ar    
   3 C3             1.2104    -0.7083    -0.0553 C.ar    
   4 C4             2.4204    -0.0168    -0.0492 C.ar    
   5 C5             2.4070     1.3884    -0.0451 C.ar    
   6 C6             1.1928     2.0797    -0.0467 C.ar    
   7 N7             3.6180    -0.7007    -0.0462 N.pl3   
   8 C8             4.8059    -0.0830    -0.0394 C.2     
   9 C9             4.9194     1.2926    -0.0344 C.2     
  10 C10            3.6933     2.1075    -0.0387 C.2     
  11 O11            3.7401     3.3252    -0.0351 O.2     
  12 C12            6.2420     1.9331    -0.0260 C.2     
  13 O13            6.3398     3.2776    -0.0212 O.3     
  14 O14            7.2479     1.2505    -0.0233 O.2     
  15 C15            3.5891    -2.1654    -0.0501 C.3     
  16 C16            3.4412    -2.6612    -1.4655 C.ar    
  17 N17            2.2401    -2.7586    -1.9977 N.ar    
  18 C18            2.0626    -3.1895    -3.2399 C.ar    
  19 C19            3.1534    -3.5555    -4.0249 C.ar    
  20 C20            4.4275    -3.4632    -3.4912 C.ar    
  21 C21            4.5686    -3.0023    -2.1901 C.ar    
  22 F22            1.2043    -2.0593    -0.0589 F       
  23 F23            1.1797     3.4306    -0.0431 F       
  24 C24            0.6909    -3.2827    -3.7973 C.ar    
  25 C25            0.4864    -3.8314    -5.0620 C.ar    
  26 C26           -0.7909    -3.9170    -5.5795 C.ar    
  27 C27           -1.8697    -3.4597    -4.8471 C.ar    
  28 C28           -1.6752    -2.9115    -3.5850 C.ar    
  29 C29           -0.3965    -2.8272    -3.0558 C.ar    
  30 N30           -2.7702    -2.4490    -2.8465 N.am    
  31 C31           -3.8151    -1.8771    -3.4770 C.2     
  32 C32           -5.0450    -1.4891    -2.6974 C.3     
  33 O33           -3.7655    -1.6746    -4.6718 O.2     
  34 H34           -0.9345     1.9033    -0.0584 H       
  35 H35           -0.9159    -0.5547    -0.0620 H       
  36 H36            5.7052    -0.6810    -0.0374 H       
  37 H37            7.2310     3.6529    -0.0157 H       
  38 H38            4.5175    -2.5482     0.3738 H       
  39 H39            2.7463    -2.5139     0.5469 H       
  40 H40            3.0074    -3.9068    -5.0357 H       
  41 H41            5.2924    -3.7399    -4.0758 H       
  42 H42            5.5489    -2.9187    -1.7447 H       
  43 H43            1.3272    -4.1895    -5.6375 H       
  44 H44           -0.9472    -4.3423    -6.5599 H       
  45 H45           -2.8666    -3.5283    -5.2567 H       
  46 H46           -0.2431    -2.4015    -2.0752 H       
  47 H47           -2.7772    -2.5401    -1.8808 H       
  48 H48           -4.9058    -1.7464    -1.6474 H       
  49 H49           -5.2101    -0.4156    -2.7896 H       
  50 H50           -5.9088    -2.0246    -3.0913 H       
@<TRIPOS>BOND
   1    1    2 ar
   2    1    6 ar
   3    1   34 1
   4    2    3 ar
   5    2   35 1
   6    3    4 ar
   7    3   22 1
   8    4    5 ar
   9    4    7 1
  10    5    6 ar
  11    5   10 1
  12    6   23 1
  13    7    8 1
  14    7   15 1
  15    8    9 2
  16    8   36 1
  17    9   10 1
  18    9   12 1
  19   10   11 2
  20   12   13 1
  21   12   14 2
  22   13   37 1
  23   15   16 1
  24   15   38 1
  25   15   39 1
  26   16   17 ar
  27   16   21 ar
  28   17   18 ar
  29   18   19 ar
  30   18   24 1
  31   19   20 ar
  32   19   40 1
  33   20   21 ar
  34   20   41 1
  35   21   42 1
  36   24   25 ar
  37   24   29 ar
  38   25   26 ar
  39   25   43 1
  40   26   27 ar
  41   26   44 1
  42   27   28 ar
  43   27   45 1
  44   28   29 ar
  45   28   30 1
  46   29   46 1
  47   30   31 am
  48   30   47 1
  49   31   32 1
  50   31   33 2
  51   32   48 1
  52   32   49 1
  53   32   50 1

#	End of record

