#	Name: ASD01816570
#	Creating user name:	WinNT
#	Creation time:	15. 06. 2019 19:35

#	Modifying user name:	WinNT
#	Modification time:	15. 06. 2019 19:35

#	Program:	/corina/corina34_cracker 3.40 0067  02.08.2006

@<TRIPOS>MOLECULE
ASD01816570
  53   58    0    0    0
SMALL
NO_CHARGES


@<TRIPOS>ATOM
   1 C1            -0.0167     1.3813     0.0096 C.ar    
   2 C2             0.0021    -0.0041     0.0020 C.ar    
   3 C3             1.1984    -0.6909    -0.0131 C.ar    
   4 C4             2.4015     0.0059    -0.0204 C.ar    
   5 C5             2.3790     1.4106    -0.0127 C.ar    
   6 C6             1.1663     2.0916     0.0022 C.ar    
   7 N7             3.6053    -0.6772    -0.0347 N.pl3   
   8 C8             4.7970    -0.0586    -0.0423 C.2     
   9 C9             4.9000     1.3103    -0.0359 C.2     
  10 C10            3.6670     2.1301    -0.0207 C.2     
  11 C11            5.9971     2.2729    -0.0408 C.2     
  12 N12            5.4246     3.4960    -0.0295 N.am    
  13 N13            4.0323     3.3799    -0.0176 N.2     
  14 C14            6.1265     4.7081    -0.0291 C.ar    
  15 O15            7.1915     2.0229    -0.0524 O.2     
  16 C16            3.5779    -2.1419    -0.0413 C.3     
  17 C17            3.5555    -2.6375    -1.4643 C.ar    
  18 C18            4.7443    -2.8865    -2.1258 C.ar    
  19 C19            4.7304    -3.3410    -3.4292 C.ar    
  20 C20            3.5159    -3.5492    -4.0789 C.ar    
  21 C21            2.3198    -3.2967    -3.4075 C.ar    
  22 C22            2.3460    -2.8472    -2.1017 C.ar    
  23 C23            6.4004     5.3550     1.1717 C.ar    
  24 C24            3.4948    -4.0372    -5.4800 C.ar    
  25 C25            2.6982    -5.1271    -5.8403 C.ar    
  26 C26            6.5554     5.2640    -1.2265 C.ar    
  27 C27            7.2475     6.4599    -1.2231 C.ar    
  28 C28            7.5141     7.1036    -0.0290 C.ar    
  29 C29            7.0935     6.5513     1.1673 C.ar    
  30 F30            5.9895     4.8153     2.3400 F       
  31 Cl31           0.8014    -3.5526    -4.2092 Cl      
  32 C32            2.7138    -5.5439    -7.1605 C.ar    
  33 C33            3.5096    -4.8745    -8.0718 C.ar    
  34 N34            4.2513    -3.8482    -7.7020 N.ar    
  35 C35            4.2647    -3.4123    -6.4591 C.ar    
  36 H36           -0.9602     1.9068     0.0170 H       
  37 H37           -0.9289    -0.5516     0.0083 H       
  38 H38            1.2004    -1.7709    -0.0189 H       
  39 H39            1.1506     3.1715     0.0081 H       
  40 H40            5.6983    -0.6536    -0.0534 H       
  41 H41            4.4656    -2.5242     0.4626 H       
  42 H42            2.6861    -2.4910     0.4791 H       
  43 H43            5.6856    -2.7245    -1.6217 H       
  44 H44            5.6596    -3.5345    -3.9445 H       
  45 H45            1.4207    -2.6515    -1.5802 H       
  46 H46            2.0862    -5.6319    -5.1075 H       
  47 H47            6.3485     4.7620    -2.1601 H       
  48 H48            7.5812     6.8922    -2.1548 H       
  49 H49            8.0557     8.0380    -0.0300 H       
  50 H50            7.3034     7.0568     2.0983 H       
  51 H51            2.1111    -6.3831    -7.4752 H       
  52 H52            3.5244    -5.1971    -9.1024 H       
  53 H53            4.8849    -2.5686    -6.1945 H       
@<TRIPOS>BOND
   1    1    2 ar
   2    1    6 ar
   3    1   36 1
   4    2    3 ar
   5    2   37 1
   6    3    4 ar
   7    3   38 1
   8    4    5 ar
   9    4    7 1
  10    5    6 ar
  11    5   10 1
  12    6   39 1
  13    7    8 1
  14    7   16 1
  15    8    9 2
  16    8   40 1
  17    9   10 1
  18    9   11 1
  19   10   13 2
  20   11   12 am
  21   11   15 2
  22   12   13 1
  23   12   14 1
  24   14   26 ar
  25   14   23 ar
  26   16   17 1
  27   16   41 1
  28   16   42 1
  29   17   18 ar
  30   17   22 ar
  31   18   19 ar
  32   18   43 1
  33   19   20 ar
  34   19   44 1
  35   20   21 ar
  36   20   24 1
  37   21   22 ar
  38   21   31 1
  39   22   45 1
  40   23   30 1
  41   23   29 ar
  42   24   25 ar
  43   24   35 ar
  44   25   32 ar
  45   25   46 1
  46   26   27 ar
  47   26   47 1
  48   27   28 ar
  49   27   48 1
  50   28   29 ar
  51   28   49 1
  52   29   50 1
  53   32   33 ar
  54   32   51 1
  55   33   34 ar
  56   33   52 1
  57   34   35 ar
  58   35   53 1

#	End of record

