#	Name: ASD01912002
#	Creating user name:	WinNT
#	Creation time:	15. 06. 2019 19:58

#	Modifying user name:	WinNT
#	Modification time:	15. 06. 2019 19:58

#	Program:	/corina/corina34_cracker 3.40 0067  02.08.2006

@<TRIPOS>MOLECULE
ASD01912002
  38   41    0    0    0
SMALL
NO_CHARGES


@<TRIPOS>ATOM
   1 C1             0.2252     0.9417    -0.9696 C.ar    
   2 C2            -0.0723     0.1569     0.1299 C.ar    
   3 C3             0.8899    -0.0865     1.0940 C.ar    
   4 C4             2.1529     0.4531     0.9638 C.ar    
   5 C5             2.4590     1.2454    -0.1427 C.ar    
   6 C6             1.4850     1.4871    -1.1111 C.ar    
   7 C7             3.8129     1.8281    -0.2883 C.ar    
   8 N8             4.8950     1.0678    -0.1545 N.ar    
   9 C9             6.1066     1.5851    -0.2839 C.ar    
  10 N10            6.2994     2.8705    -0.5495 N.ar    
  11 C11            5.2810     3.6973    -0.6981 C.ar    
  12 C12            3.9777     3.2001    -0.5774 C.ar    
  13 C13            2.8441     4.0614    -0.7310 C.1     
  14 N14            1.9447     4.7447    -0.8529 N.1     
  15 N15            7.2072     0.7588    -0.1371 N.pl3   
  16 C16            8.4800     1.2753    -0.2675 C.2     
  17 O17            9.6156     0.5658    -0.1452 O.3     
  18 C18           10.6598     1.4041    -0.3367 C.ar    
  19 C19           10.1100     2.6709    -0.5843 C.ar    
  20 N20            8.7577     2.5254    -0.5338 N.2     
  21 C21           12.0355     1.2392    -0.3306 C.ar    
  22 C22           12.8591     2.3210    -0.5679 C.ar    
  23 C23           12.3199     3.5747    -0.8130 C.ar    
  24 C24           10.9544     3.7564    -0.8223 C.ar    
  25 C25            3.1996     0.1875     2.0150 C.3     
  26 H26           -0.5286     1.1245    -1.7210 H       
  27 H27           -1.0597    -0.2674     0.2364 H       
  28 H28            0.6516    -0.6998     1.9505 H       
  29 H29            1.7162     2.0994    -1.9701 H       
  30 H30            5.4508     4.7418    -0.9137 H       
  31 H31            7.0838    -0.1834     0.0576 H       
  32 H32           12.4627     0.2658    -0.1401 H       
  33 H33           13.9311     2.1902    -0.5623 H       
  34 H34           12.9743     4.4138    -0.9974 H       
  35 H35           10.5389     4.7347    -1.0138 H       
  36 H36            3.8187    -0.6550     1.7066 H       
  37 H37            3.8245     1.0721     2.1372 H       
  38 H38            2.7125    -0.0469     2.9616 H       
@<TRIPOS>BOND
   1    1    2 ar
   2    1    6 ar
   3    1   26 1
   4    2    3 ar
   5    2   27 1
   6    3    4 ar
   7    3   28 1
   8    4    5 ar
   9    4   25 1
  10    5    6 ar
  11    5    7 1
  12    6   29 1
  13    7    8 ar
  14    7   12 ar
  15    8    9 ar
  16    9   10 ar
  17    9   15 1
  18   10   11 ar
  19   11   12 ar
  20   11   30 1
  21   12   13 1
  22   13   14 3
  23   15   16 1
  24   15   31 1
  25   16   17 1
  26   16   20 2
  27   17   18 1
  28   18   19 ar
  29   18   21 ar
  30   19   20 1
  31   19   24 ar
  32   21   22 ar
  33   21   32 1
  34   22   23 ar
  35   22   33 1
  36   23   24 ar
  37   23   34 1
  38   24   35 1
  39   25   36 1
  40   25   37 1
  41   25   38 1

#	End of record

