#	Name: ASD01883230
#	Creating user name:	WinNT
#	Creation time:	15. 06. 2019 19:46

#	Modifying user name:	WinNT
#	Modification time:	15. 06. 2019 19:46

#	Program:	/corina/corina34_cracker 3.40 0067  02.08.2006

@<TRIPOS>MOLECULE
ASD01883230
  52   53    0    0    0
SMALL
NO_CHARGES


@<TRIPOS>ATOM
   1 N1            -0.0162     1.3417     0.0094 N.am    
   2 C2             0.0021    -0.0041     0.0020 C.2     
   3 C3            -1.2167    -0.7275     0.0102 C.2     
   4 C4            -2.4257    -0.0118     0.0261 C.2     
   5 C5            -2.3786     1.3953     0.0332 C.2     
   6 C6            -1.1848     2.0319     0.0299 C.2     
   7 O7             1.0656    -0.6000    -0.0121 O.2     
   8 C8            -1.2158    -2.1595     0.0021 C.1     
   9 N9            -1.2152    -3.2954    -0.0044 N.1     
  10 C10            1.2511     2.0766     0.0013 C.3     
  11 C11            1.6785     2.3402    -1.4440 C.3     
  12 C12            3.0021     3.1077    -1.4525 C.3     
  13 C13            4.1048     2.2294    -0.8581 C.3     
  14 C14            3.3665     3.4800    -2.8911 C.3     
  15 C15           -3.7229    -0.7230     0.0347 C.ar    
  16 C16           -4.5711    -0.6186     1.1371 C.ar    
  17 C17           -5.7838    -1.2872     1.1381 C.ar    
  18 C18           -6.1528    -2.0586     0.0444 C.ar    
  19 C19           -5.3127    -2.1634    -1.0491 C.ar    
  20 C20           -4.1051    -1.4965    -1.0630 C.ar    
  21 C21           -7.4733    -2.7847     0.0491 C.3     
  22 N22           -8.5466    -1.8485    -0.2940 N.am    
  23 O23           -6.6129    -1.1885     2.2104 O.3     
  24 C24           -6.1696    -0.3783     3.3009 C.3     
  25 C25           -9.8228    -2.2781    -0.3513 C.2     
  26 C26          -10.9269    -1.3151    -0.7042 C.3     
  27 O27          -10.0826    -3.4397    -0.1189 O.2     
  28 H28           -3.2952     1.9664     0.0453 H       
  29 H29           -1.1613     3.1116     0.0354 H       
  30 H30            1.1239     3.0260     0.5214 H       
  31 H31            2.0167     1.4863     0.5046 H       
  32 H32            1.8057     1.3908    -1.9642 H       
  33 H33            0.9129     2.9306    -1.9474 H       
  34 H34            2.8998     4.0150    -0.8572 H       
  35 H35            4.2071     1.3221    -1.4534 H       
  36 H36            5.0477     2.7762    -0.8642 H       
  37 H37            3.8452     1.9641     0.1668 H       
  38 H38            2.5809     4.1058    -3.3145 H       
  39 H39            4.3094     4.0268    -2.8971 H       
  40 H40            3.4688     2.5727    -3.4864 H       
  41 H41           -4.2827    -0.0185     1.9874 H       
  42 H42           -5.6051    -2.7653    -1.8968 H       
  43 H43           -3.4515    -1.5802    -1.9187 H       
  44 H44           -7.4469    -3.5915    -0.6834 H       
  45 H45           -7.6562    -3.1998     1.0402 H       
  46 H46           -8.3388    -0.9195    -0.4798 H       
  47 H47           -5.2324    -0.7752     3.6909 H       
  48 H48           -6.0153     0.6438     2.9549 H       
  49 H49           -6.9230    -0.3854     4.0886 H       
  50 H50          -11.0723    -1.3090    -1.7845 H       
  51 H51          -11.8501    -1.6257    -0.2151 H       
  52 H52          -10.6569    -0.3139    -0.3683 H       
@<TRIPOS>BOND
   1    1    2 am
   2    1   10 1
   3    1    6 1
   4    2    3 1
   5    2    7 2
   6    3    4 2
   7    3    8 1
   8    4    5 1
   9    4   15 1
  10    5    6 2
  11    5   28 1
  12    6   29 1
  13    8    9 3
  14   10   11 1
  15   10   30 1
  16   10   31 1
  17   11   12 1
  18   11   32 1
  19   11   33 1
  20   12   13 1
  21   12   14 1
  22   12   34 1
  23   13   35 1
  24   13   36 1
  25   13   37 1
  26   14   38 1
  27   14   39 1
  28   14   40 1
  29   15   16 ar
  30   15   20 ar
  31   16   17 ar
  32   16   41 1
  33   17   18 ar
  34   17   23 1
  35   18   19 ar
  36   18   21 1
  37   19   20 ar
  38   19   42 1
  39   20   43 1
  40   21   22 1
  41   21   44 1
  42   21   45 1
  43   22   25 am
  44   22   46 1
  45   23   24 1
  46   24   47 1
  47   24   48 1
  48   24   49 1
  49   25   26 1
  50   25   27 2
  51   26   50 1
  52   26   51 1
  53   26   52 1

#	End of record

