#	Name: ASD01884710
#	Creating user name:	WinNT
#	Creation time:	15. 06. 2019 19:48

#	Modifying user name:	WinNT
#	Modification time:	15. 06. 2019 19:48

#	Program:	/corina/corina34_cracker 3.40 0067  02.08.2006

@<TRIPOS>MOLECULE
ASD01884710
  52   55    0    0    0
SMALL
NO_CHARGES


@<TRIPOS>ATOM
   1 C1            -0.0168     1.3860     0.0097 C.2     
   2 C2             0.0021    -0.0041     0.0020 C.2     
   3 C3            -1.2195    -0.6996     0.0099 C.2     
   4 C4            -2.4056     0.0015     0.0249 C.2     
   5 N5            -2.4135     1.3555     0.0323 N.am    
   6 C6            -1.2663     2.0589     0.0311 C.2     
   7 O7            -1.3004     3.2774     0.0385 O.2     
   8 C8            -3.6938     2.0673     0.0483 C.3     
   9 C9             1.2076     2.1287     0.0020 C.1     
  10 N10            2.1789     2.7178    -0.0041 N.1     
  11 C11           -4.1258     2.3073     1.4963 C.3     
  12 C12           -5.4630     3.0507     1.5130 C.3     
  13 C13           -6.5498     2.1592     0.9089 C.3     
  14 C14           -5.8339     3.4007     2.9555 C.3     
  15 C15           -1.2316    -2.1841     0.0015 C.ar    
  16 C16           -0.7397    -2.8746    -1.0970 C.ar    
  17 C17           -0.7560    -4.2694    -1.0929 C.ar    
  18 C18           -1.2684    -4.9629     0.0193 C.ar    
  19 C19           -1.7564    -4.2493     1.1097 C.ar    
  20 C20           -1.7334    -2.8843     1.1032 C.ar    
  21 C21           -0.3315    -5.2942    -2.0507 C.2     
  22 C22           -0.5966    -6.4865    -1.4942 C.2     
  23 N23           -1.1570    -6.3100    -0.2565 N.pl3   
  24 C24           -1.5567    -7.3429     0.6008 C.ar    
  25 C25           -2.3625    -8.3691     0.1255 C.ar    
  26 C26           -2.7550    -9.3861     0.9735 C.ar    
  27 C27           -2.3467    -9.3831     2.2947 C.ar    
  28 C28           -1.5442    -8.3626     2.7710 C.ar    
  29 C29           -1.1433    -7.3459     1.9265 C.ar    
  30 H30            0.9394    -0.5405    -0.0101 H       
  31 H31           -3.3420    -0.5365     0.0306 H       
  32 H32           -3.5838     3.0244    -0.4615 H       
  33 H33           -4.4487     1.4687    -0.4616 H       
  34 H34           -4.2359     1.3502     2.0060 H       
  35 H35           -3.3710     2.9059     2.0062 H       
  36 H36           -5.3771     3.9662     0.9276 H       
  37 H37           -6.6357     1.2437     1.4942 H       
  38 H38           -7.5024     2.6888     0.9208 H       
  39 H39           -6.2855     1.9099    -0.1188 H       
  40 H40           -5.0597     4.0359     3.3859 H       
  41 H41           -6.7865     3.9303     2.9674 H       
  42 H42           -5.9199     2.4853     3.5409 H       
  43 H43           -0.3480    -2.3368    -1.9478 H       
  44 H44           -2.1510    -4.7770     1.9655 H       
  45 H45           -2.1141    -2.3394     1.9544 H       
  46 H46            0.1107    -5.1225    -3.0210 H       
  47 H47           -0.3980    -7.4433    -1.9541 H       
  48 H48           -2.6823    -8.3717    -0.9061 H       
  49 H49           -3.3817   -10.1845     0.6044 H       
  50 H50           -2.6555   -10.1791     2.9560 H       
  51 H51           -1.2270    -8.3630     3.8034 H       
  52 H52           -0.5163    -6.5494     2.2990 H       
@<TRIPOS>BOND
   1    1    2 2
   2    1    9 1
   3    1    6 1
   4    2    3 1
   5    2   30 1
   6    3    4 2
   7    3   15 1
   8    4    5 1
   9    4   31 1
  10    5    8 1
  11    5    6 am
  12    6    7 2
  13    8   11 1
  14    8   32 1
  15    8   33 1
  16    9   10 3
  17   11   12 1
  18   11   34 1
  19   11   35 1
  20   12   13 1
  21   12   14 1
  22   12   36 1
  23   13   37 1
  24   13   38 1
  25   13   39 1
  26   14   40 1
  27   14   41 1
  28   14   42 1
  29   15   16 ar
  30   15   20 ar
  31   16   17 ar
  32   16   43 1
  33   17   18 ar
  34   17   21 1
  35   18   19 ar
  36   18   23 1
  37   19   20 ar
  38   19   44 1
  39   20   45 1
  40   21   22 2
  41   21   46 1
  42   22   23 1
  43   22   47 1
  44   23   24 1
  45   24   25 ar
  46   24   29 ar
  47   25   26 ar
  48   25   48 1
  49   26   27 ar
  50   26   49 1
  51   27   28 ar
  52   27   50 1
  53   28   29 ar
  54   28   51 1
  55   29   52 1

#	End of record

