#	Name: ASD08178007
#	Creating user name:	WinNT
#	Creation time:	15. 06. 2019 21:18

#	Modifying user name:	WinNT
#	Modification time:	15. 06. 2019 21:18

#	Program:	/corina/corina34_cracker 3.40 0067  02.08.2006

@<TRIPOS>MOLECULE
ASD08178007
  61   64    0    0    0
SMALL
NO_CHARGES


@<TRIPOS>ATOM
   1 N1            -0.0150     1.2568     0.0090 N.2     
   2 N2             0.0021    -0.0041     0.0020 N.2     
   3 C3             1.1299     1.8765     0.0013 C.2     
   4 S4             2.4016     0.6527    -0.0174 S.3     
   5 C5             1.1532    -0.5948    -0.0121 C.2     
   6 N6             1.3171     3.2536     0.0063 N.am    
   7 C7             0.2514     4.0785     0.0206 C.2     
   8 C8             0.4501     5.5406     0.0258 C.ar    
   9 O9            -0.8739     3.6178     0.0292 O.2     
  10 C10           -0.6537     6.3977     0.0407 C.ar    
  11 C11           -0.4639     7.7615     0.0455 C.ar    
  12 C12            0.8232     8.2861     0.0351 C.ar    
  13 C13            1.9237     7.4371     0.0198 C.ar    
  14 C14            1.7426     6.0720     0.0217 C.ar    
  15 C15            1.3865    -2.0836    -0.0224 C.3     
  16 C16            1.4517    -2.5797    -1.4682 C.3     
  17 S17            1.7325    -4.3718    -1.4805 S.3     
  18 C18            1.7788    -4.7654    -3.2507 C.3     
  19 C19            2.0124    -6.2664    -3.4335 C.3     
  20 C20            2.0509    -6.5934    -4.9040 C.2     
  21 N21            3.1036    -6.5972    -5.6564 N.2     
  22 S22            0.6693    -7.0466    -5.9042 S.3     
  23 C23            1.7583    -7.1814    -7.2866 C.2     
  24 N24            2.9593    -6.8956    -6.8730 N.2     
  25 N25            1.3994    -7.5345    -8.5819 N.am    
  26 C26            2.3378    -7.5994    -9.5472 C.2     
  27 C27            1.9567    -7.9743   -10.9226 C.ar    
  28 O28            3.4983    -7.3489    -9.2848 O.2     
  29 C29            2.9282    -8.0422   -11.9250 C.ar    
  30 C30            0.6243    -8.2681   -11.2250 C.ar    
  31 C31            0.2728    -8.6175   -12.5097 C.ar    
  32 C32            1.2411    -8.6783   -13.5051 C.ar    
  33 C33            2.5684    -8.3924   -13.2071 C.ar    
  34 O34            0.8907    -9.0230   -14.7700 O.3     
  35 C35            1.9356    -9.0660   -15.7439 C.3     
  36 O36            1.0060     9.6308     0.0394 O.3     
  37 C37            2.3550    10.1022     0.0281 C.3     
  38 H38            2.2148     3.6210    -0.0006 H       
  39 H39           -1.6541     5.9909     0.0481 H       
  40 H40           -1.3164     8.4245     0.0570 H       
  41 H41            2.9222     7.8486     0.0110 H       
  42 H42            2.5982     5.4130     0.0102 H       
  43 H43            2.3269    -2.3075     0.4813 H       
  44 H44            0.5684    -2.5831     0.4966 H       
  45 H45            0.5113    -2.3558    -1.9719 H       
  46 H46            2.2697    -2.0802    -1.9872 H       
  47 H47            0.8302    -4.4868    -3.7098 H       
  48 H48            2.5886    -4.2112    -3.7251 H       
  49 H49            2.9610    -6.5450    -2.9744 H       
  50 H50            1.2025    -6.8206    -2.9591 H       
  51 H51            0.4736    -7.7343    -8.7913 H       
  52 H52            3.9596    -7.8199   -11.6944 H       
  53 H53           -0.1286    -8.2215   -10.4521 H       
  54 H54           -0.7566    -8.8450   -12.7442 H       
  55 H55            3.3177    -8.4404   -13.9834 H       
  56 H56            2.3966    -8.0817   -15.8257 H       
  57 H57            2.6866    -9.7948   -15.4391 H       
  58 H58            1.5205    -9.3542   -16.7097 H       
  59 H59            2.8763     9.7330     0.9113 H       
  60 H60            2.8586     9.7411    -0.8686 H       
  61 H61            2.3590    11.1922     0.0330 H       
@<TRIPOS>BOND
   1    1    2 1
   2    1    3 2
   3    2    5 2
   4    3    4 1
   5    3    6 1
   6    4    5 1
   7    5   15 1
   8    6    7 am
   9    6   38 1
  10    7    8 1
  11    7    9 2
  12    8   10 ar
  13    8   14 ar
  14   10   11 ar
  15   10   39 1
  16   11   12 ar
  17   11   40 1
  18   12   13 ar
  19   12   36 1
  20   13   14 ar
  21   13   41 1
  22   14   42 1
  23   15   16 1
  24   15   43 1
  25   15   44 1
  26   16   17 1
  27   16   45 1
  28   16   46 1
  29   17   18 1
  30   18   19 1
  31   18   47 1
  32   18   48 1
  33   19   20 1
  34   19   49 1
  35   19   50 1
  36   20   21 2
  37   20   22 1
  38   21   24 1
  39   22   23 1
  40   23   24 2
  41   23   25 1
  42   25   26 am
  43   25   51 1
  44   26   27 1
  45   26   28 2
  46   27   29 ar
  47   27   30 ar
  48   29   33 ar
  49   29   52 1
  50   30   31 ar
  51   30   53 1
  52   31   32 ar
  53   31   54 1
  54   32   33 ar
  55   32   34 1
  56   33   55 1
  57   34   35 1
  58   35   56 1
  59   35   57 1
  60   35   58 1
  61   36   37 1
  62   37   59 1
  63   37   60 1
  64   37   61 1

#	End of record

