#	Name: ASD08150387
#	Creating user name:	WinNT
#	Creation time:	15. 06. 2019 21:15

#	Modifying user name:	WinNT
#	Modification time:	15. 06. 2019 21:15

#	Program:	/corina/corina34_cracker 3.40 0067  02.08.2006

@<TRIPOS>MOLECULE
ASD08150387
  72   76    0    0    0
SMALL
NO_CHARGES


@<TRIPOS>ATOM
   1 N1             0.7073     0.3094     1.0478 N.2     
   2 C2            -0.0172     0.4701    -0.0176 C.2     
   3 N3             0.4891     0.8846    -1.2105 N.am    
   4 C4             1.8087     1.1552    -1.3417 C.2     
   5 C5             2.6565     0.9830    -0.1531 C.ar    
   6 C6             4.0267     1.2354    -0.1827 C.ar    
   7 C7             4.7743     1.0581     0.9607 C.ar    
   8 C8             4.1739     0.6311     2.1381 C.ar    
   9 C9             2.8220     0.3759     2.1883 C.ar    
  10 C10            2.0425     0.5486     1.0426 C.ar    
  11 O11            2.2755     1.5264    -2.4029 O.2     
  12 C12           -1.4938     0.1825     0.0715 C.3     
  13 C13           -1.7839    -0.6034     1.3518 C.3     
  14 N14           -2.2367     1.4449     0.0946 N.pl3   
  15 N15           -4.0046     3.9595     0.0438 N.2     
  16 C16           -5.0564     4.7011    -0.1491 C.2     
  17 N17           -6.0730     3.9455    -0.6531 N.pl3   
  18 C18           -5.6089     2.6601    -0.7745 C.ar    
  19 N19           -6.1269     1.5113    -1.1964 N.ar    
  20 C20           -5.4068     0.4092    -1.1929 C.ar    
  21 N21           -4.1537     0.3826    -0.7775 N.ar    
  22 C22           -3.5507     1.4825    -0.3381 C.ar    
  23 C23           -4.2784     2.6844    -0.3230 C.ar    
  24 C24           -7.4151     4.4190    -1.0007 C.3     
  25 O25           -7.5109     5.8191    -0.7311 O.3     
  26 C26           -8.7874     6.3839    -1.0370 C.3     
  27 C27           -8.7751     7.8786    -0.7108 C.3     
  28 Si28         -10.4393     8.6150    -1.1097 Si      
  29 C29          -11.7523     7.7686    -0.0946 C.3     
  30 C30          -10.4243    10.4351    -0.7125 C.3     
  31 C31          -10.8054     8.3776    -2.9209 C.3     
  32 C32            4.6859     1.6985    -1.4563 C.3     
  33 C33           -0.3627     1.0322    -2.3124 C.ar    
  34 C34           -0.9229     2.2697    -2.5969 C.ar    
  35 C35           -1.7653     2.4118    -3.6881 C.ar    
  36 C36           -2.0468     1.3171    -4.4936 C.ar    
  37 C37           -1.4881     0.0858    -4.2089 C.ar    
  38 C38           -0.6433    -0.0584    -3.1252 C.ar    
  39 O39           -2.3157     3.6222    -3.9690 O.3     
  40 H40            5.8365     1.2524     0.9414 H       
  41 H41            4.7751     0.4973     3.0253 H       
  42 H42            2.3665     0.0436     3.1094 H       
  43 H43           -1.8023    -0.4049    -0.7932 H       
  44 H44           -1.5708     0.0224     2.2184 H       
  45 H45           -2.8328    -0.8995     1.3665 H       
  46 H46           -1.1548    -1.4930     1.3825 H       
  47 H47           -1.8076     2.2545     0.4131 H       
  48 H48           -5.1154     5.7590     0.0598 H       
  49 H49           -5.8581    -0.5076    -1.5423 H       
  50 H50           -7.6008     4.2394    -2.0596 H       
  51 H51           -8.1548     3.8830    -0.4060 H       
  52 H52           -9.0016     6.2450    -2.0967 H       
  53 H53           -9.5556     5.8887    -0.4431 H       
  54 H54           -8.5609     8.0175     0.3489 H       
  55 H55           -8.0069     8.3738    -1.3047 H       
  56 H56          -11.5381     7.9075     0.9651 H       
  57 H57          -12.7259     8.1994    -0.3280 H       
  58 H58          -11.7610     6.7037    -0.3270 H       
  59 H59           -9.6561    10.9303    -1.3064 H       
  60 H60          -11.3980    10.8659    -0.9459 H       
  61 H61          -10.2101    10.5740     0.3472 H       
  62 H62          -10.8141     7.3127    -3.1533 H       
  63 H63          -11.7790     8.8084    -3.1543 H       
  64 H64          -10.0372     8.8728    -3.5148 H       
  65 H65            4.6145     2.7837    -1.5286 H       
  66 H66            5.7351     1.4030    -1.4506 H       
  67 H67            4.1849     1.2436    -2.3108 H       
  68 H68           -0.7030     3.1203    -1.9687 H       
  69 H69           -2.7035     1.4277    -5.3438 H       
  70 H70           -1.7087    -0.7644    -4.8372 H       
  71 H71           -0.2041    -1.0208    -2.9076 H       
  72 H72           -1.7812     4.1697    -4.5603 H       
@<TRIPOS>BOND
   1    1    2 2
   2    1   10 1
   3    2    3 1
   4    2   12 1
   5    3    4 am
   6    3   33 1
   7    4    5 1
   8    4   11 2
   9    5    6 ar
  10    5   10 ar
  11    6    7 ar
  12    6   32 1
  13    7    8 ar
  14    7   40 1
  15    8    9 ar
  16    8   41 1
  17    9   10 ar
  18    9   42 1
  19   12   13 1
  20   12   14 1
  21   12   43 1
  22   13   44 1
  23   13   45 1
  24   13   46 1
  25   14   22 1
  26   14   47 1
  27   15   16 2
  28   15   23 1
  29   16   17 1
  30   16   48 1
  31   17   18 1
  32   17   24 1
  33   18   19 ar
  34   18   23 ar
  35   19   20 ar
  36   20   21 ar
  37   20   49 1
  38   21   22 ar
  39   22   23 ar
  40   24   25 1
  41   24   50 1
  42   24   51 1
  43   25   26 1
  44   26   27 1
  45   26   52 1
  46   26   53 1
  47   27   28 1
  48   27   54 1
  49   27   55 1
  50   28   29 1
  51   28   30 1
  52   28   31 1
  53   29   56 1
  54   29   57 1
  55   29   58 1
  56   30   59 1
  57   30   60 1
  58   30   61 1
  59   31   62 1
  60   31   63 1
  61   31   64 1
  62   32   65 1
  63   32   66 1
  64   32   67 1
  65   33   34 ar
  66   33   38 ar
  67   34   35 ar
  68   34   68 1
  69   35   36 ar
  70   35   39 1
  71   36   37 ar
  72   36   69 1
  73   37   38 ar
  74   37   70 1
  75   38   71 1
  76   39   72 1

#	End of record

