#	Name: ASD01811521
#	Creating user name:	WinNT
#	Creation time:	15. 06. 2019 19:26

#	Modifying user name:	WinNT
#	Modification time:	15. 06. 2019 19:26

#	Program:	/corina/corina34_cracker 3.40 0067  02.08.2006

@<TRIPOS>MOLECULE
ASD01811521
  26   26    0    0    0
SMALL
NO_CHARGES


@<TRIPOS>ATOM
   1 C1            -0.0952     1.4713     0.0112 C.2     
   2 C2            -0.0352    -0.0049     0.0028 C.ar    
   3 C3             1.1971    -0.6546     0.0563 C.ar    
   4 C4             1.2446    -2.0455     0.0483 C.ar    
   5 C5             0.0600    -2.7814    -0.0130 C.ar    
   6 C6            -1.1580    -2.1327    -0.0663 C.ar    
   7 C7            -1.2135    -0.7532    -0.0530 C.ar    
   8 O8             0.9301     2.1205     0.0648 O.2     
   9 O9            -1.2866     2.0974    -0.0461 O.3     
  10 C10            0.1104    -4.2875    -0.0216 C.3     
  11 C11            2.5495    -2.7436     0.1044 C.2     
  12 N12            3.7207    -2.0207     0.0418 N.pl3   
  13 N13            2.5899    -4.0407     0.2128 N.2     
  14 C14           -1.2696     3.5492    -0.0338 C.3     
  15 H15            2.1110    -0.0811     0.1033 H       
  16 H16           -2.0714    -2.7071    -0.1143 H       
  17 H17           -2.1693    -0.2518    -0.0900 H       
  18 H18            0.1995    -4.6539     1.0011 H       
  19 H19           -0.8029    -4.6791    -0.4696 H       
  20 H20            0.9710    -4.6189    -0.6026 H       
  21 H21            3.6906    -1.0545    -0.0390 H       
  22 H22            4.5754    -2.4779     0.0785 H       
  23 H23            3.4446    -4.4979     0.2496 H       
  24 H24           -0.7986     3.8993     0.8848 H       
  25 H25           -0.7058     3.9133    -0.8927 H       
  26 H26           -2.2915     3.9250    -0.0842 H       
@<TRIPOS>BOND
   1    1    2 1
   2    1    8 2
   3    1    9 1
   4    2    3 ar
   5    2    7 ar
   6    3    4 ar
   7    3   15 1
   8    4    5 ar
   9    4   11 1
  10    5    6 ar
  11    5   10 1
  12    6    7 ar
  13    6   16 1
  14    7   17 1
  15    9   14 1
  16   10   18 1
  17   10   19 1
  18   10   20 1
  19   11   12 1
  20   11   13 2
  21   12   21 1
  22   12   22 1
  23   13   23 1
  24   14   24 1
  25   14   25 1
  26   14   26 1

#	End of record

