#	Name: ASD01840470
#	Creating user name:	WinNT
#	Creation time:	15. 06. 2019 19:37

#	Modifying user name:	WinNT
#	Modification time:	15. 06. 2019 19:37

#	Program:	/corina/corina34_cracker 3.40 0067  02.08.2006

@<TRIPOS>MOLECULE
ASD01840470
  39   42    0    0    0
SMALL
NO_CHARGES


@<TRIPOS>ATOM
   1 C1             0.2610     1.7549    -0.9980 C.ar    
   2 C2             0.3840     0.5320    -1.6193 C.ar    
   3 N3             1.4992    -0.1678    -1.4965 N.ar    
   4 N4             2.5001     0.2427    -0.8112 N.ar    
   5 C5             1.3549     2.2266    -0.2363 C.ar    
   6 C6             1.5104     3.4570     0.5172 C.2     
   7 C7             2.4929     1.4123    -0.1669 C.ar    
   8 S8             3.7251     2.1827     0.8223 S.3     
   9 C9             2.7119     3.5785     1.1344 C.2     
  10 C10           -1.0000     2.5692    -1.1311 C.3     
  11 C11           -0.7564    -0.0106    -2.4416 C.3     
  12 N12            0.5177     4.4241     0.5986 N.pl3   
  13 C13            3.1098     4.7235     1.9521 C.2     
  14 O14            2.3396     5.6522     2.1150 O.2     
  15 N15            4.3293     4.7508     2.5253 N.am    
  16 C16            4.8745     5.8198     3.3681 C.3     
  17 C17            6.2666     5.4134     3.7808 C.ar    
  18 C18            6.5538     4.1805     3.2286 C.ar    
  19 C19            5.3623     3.7144     2.4308 C.3     
  20 C20            7.2079     6.0540     4.5676 C.ar    
  21 C21            8.4346     5.4621     4.8010 C.ar    
  22 C22            8.7220     4.2283     4.2484 C.ar    
  23 C23            7.7816     3.5871     3.4648 C.ar    
  24 H24           -1.6441     2.3847    -0.2714 H       
  25 H25           -0.7458     3.6283    -1.1740 H       
  26 H26           -1.5222     2.2837    -2.0443 H       
  27 H27           -0.6496     0.3211    -3.4744 H       
  28 H28           -0.7434    -1.0999    -2.4066 H       
  29 H29           -1.7010     0.3547    -2.0385 H       
  30 H30           -0.4030     4.1919     0.4002 H       
  31 H31            0.7448     5.3320     0.8537 H       
  32 H32            4.9136     6.7515     2.8038 H       
  33 H33            4.2498     5.9482     4.2521 H       
  34 H34            4.9844     2.7777     2.8406 H       
  35 H35            5.6500     3.5735     1.3889 H       
  36 H36            6.9836     7.0181     4.9995 H       
  37 H37            9.1685     5.9635     5.4145 H       
  38 H38            9.6804     3.7648     4.4302 H       
  39 H39            8.0040     2.6200     3.0384 H       
@<TRIPOS>BOND
   1    1    2 ar
   2    1    5 ar
   3    1   10 1
   4    2   11 1
   5    2    3 ar
   6    3    4 ar
   7    4    7 ar
   8    5    7 ar
   9    5    6 1
  10    6    9 2
  11    6   12 1
  12    7    8 1
  13    8    9 1
  14    9   13 1
  15   10   24 1
  16   10   25 1
  17   10   26 1
  18   11   27 1
  19   11   28 1
  20   11   29 1
  21   12   30 1
  22   12   31 1
  23   13   14 2
  24   13   15 am
  25   15   16 1
  26   15   19 1
  27   16   17 1
  28   16   32 1
  29   16   33 1
  30   17   20 ar
  31   17   18 ar
  32   18   19 1
  33   18   23 ar
  34   19   34 1
  35   19   35 1
  36   20   21 ar
  37   20   36 1
  38   21   22 ar
  39   21   37 1
  40   22   23 ar
  41   22   38 1
  42   23   39 1

#	End of record

