#	Name: ASD01811517
#	Creating user name:	WinNT
#	Creation time:	15. 06. 2019 19:26

#	Modifying user name:	WinNT
#	Modification time:	15. 06. 2019 19:26

#	Program:	/corina/corina34_cracker 3.40 0067  02.08.2006

@<TRIPOS>MOLECULE
ASD01811517
  65   68    0    0    0
SMALL
NO_CHARGES


@<TRIPOS>ATOM
   1 N1            -0.1192     1.2670    -0.4860 N.am    
   2 C2            -0.2320     0.0178     0.0071 C.2     
   3 O3             0.7127    -0.5012     0.5698 O.2     
   4 N4            -1.3919    -0.6560    -0.1233 N.am    
   5 C5            -1.5144    -2.0139     0.4128 C.3     
   6 O6            -3.8924    -1.7218     0.7862 O.3     
   7 C7            -2.9209    -2.5475     0.1334 C.3     
   8 C8            -3.0625    -3.9749     0.7043 C.3     
   9 C9            -4.5075    -3.9603     1.2734 C.3     
  10 C10           -4.6183    -2.4925     1.7571 C.3     
  11 C11            1.0599     1.9952    -0.2853 C.ar    
  12 C12            1.0163     3.3840    -0.2142 C.ar    
  13 C13            2.1787     4.1075    -0.0159 C.ar    
  14 C14            3.3883     3.4563     0.1130 C.ar    
  15 C15            3.4420     2.0631     0.0434 C.ar    
  16 C16            2.2689     1.3327    -0.1517 C.ar    
  17 C17            4.7366     1.3634     0.1808 C.2     
  18 O18            5.4681     1.6169     1.1179 O.2     
  19 N19            5.1061     0.4442    -0.7331 N.am    
  20 C20            6.3301    -0.3468    -0.5466 C.3     
  21 C21            7.2031    -0.2068    -1.7976 C.3     
  22 C22            6.3854    -0.5955    -3.0315 C.3     
  23 C23            5.1881     0.3476    -3.1699 C.3     
  24 C24            4.2893     0.2099    -1.9317 C.3     
  25 C25            7.2511    -0.4915    -4.2606 C.ar    
  26 C26            6.8440    -1.0792    -5.4439 C.ar    
  27 C27            7.6368    -0.9842    -6.5718 C.ar    
  28 C28            8.8393    -0.3001    -6.5165 C.ar    
  29 C29            9.2461     0.2881    -5.3308 C.ar    
  30 C30            8.4491     0.1962    -4.2056 C.ar    
  31 F31            9.6154    -0.2069    -7.6184 F       
  32 F32            5.9291    -1.9107    -2.8929 F       
  33 C33            4.6517     4.2492     0.3283 C.3     
  34 C34            5.3855     4.4113    -1.0045 C.3     
  35 Cl35          -0.5012     4.2115    -0.3753 Cl      
  36 H36           -0.8533     1.6601    -0.9835 H       
  37 H37           -2.1455    -0.2420    -0.5722 H       
  38 H38           -0.7788    -2.6610    -0.0650 H       
  39 H39           -1.3393    -1.9970     1.4885 H       
  40 H40           -3.1069    -2.5586    -0.9406 H       
  41 H41           -2.9640    -4.7200    -0.0852 H       
  42 H42           -2.3351    -4.1495     1.4970 H       
  43 H43           -5.2389    -4.1734     0.4938 H       
  44 H44           -4.6089    -4.6569     2.1056 H       
  45 H45           -4.1650    -2.3835     2.7423 H       
  46 H46           -5.6625    -2.1807     1.7836 H       
  47 H47            2.1392     5.1854     0.0378 H       
  48 H48            2.3042     0.2545    -0.2025 H       
  49 H49            6.8749     0.0223     0.3223 H       
  50 H50            6.0690    -1.3947    -0.3987 H       
  51 H51            7.5381     0.8260    -1.8937 H       
  52 H52            8.0685    -0.8640    -1.7128 H       
  53 H53            5.5421     1.3752    -3.2531 H       
  54 H54            4.6193     0.0849    -4.0619 H       
  55 H55            3.8651    -0.7935    -1.8944 H       
  56 H56            3.4871     0.9465    -1.9770 H       
  57 H57            5.9061    -1.6131    -5.4867 H       
  58 H58            7.3187    -1.4437    -7.4960 H       
  59 H59           10.1838     0.8219    -5.2865 H       
  60 H60            8.7641     0.6584    -3.2817 H       
  61 H61            4.4003     5.2322     0.7265 H       
  62 H62            5.2941     3.7242     1.0352 H       
  63 H63            6.2992     4.9847    -0.8487 H       
  64 H64            5.6369     3.4283    -1.4027 H       
  65 H65            4.7431     4.9363    -1.7114 H       
@<TRIPOS>BOND
   1    1    2 am
   2    1   11 1
   3    1   36 1
   4    2    3 2
   5    2    4 am
   6    4    5 1
   7    4   37 1
   8    5    7 1
   9    5   38 1
  10    5   39 1
  11    6    7 1
  12    6   10 1
  13    7    8 1
  14    7   40 1
  15    8    9 1
  16    8   41 1
  17    8   42 1
  18    9   10 1
  19    9   43 1
  20    9   44 1
  21   10   45 1
  22   10   46 1
  23   11   12 ar
  24   11   16 ar
  25   12   13 ar
  26   12   35 1
  27   13   14 ar
  28   13   47 1
  29   14   15 ar
  30   14   33 1
  31   15   16 ar
  32   15   17 1
  33   16   48 1
  34   17   18 2
  35   17   19 am
  36   19   20 1
  37   19   24 1
  38   20   21 1
  39   20   49 1
  40   20   50 1
  41   21   22 1
  42   21   51 1
  43   21   52 1
  44   22   23 1
  45   22   25 1
  46   22   32 1
  47   23   24 1
  48   23   53 1
  49   23   54 1
  50   24   55 1
  51   24   56 1
  52   25   26 ar
  53   25   30 ar
  54   26   27 ar
  55   26   57 1
  56   27   28 ar
  57   27   58 1
  58   28   29 ar
  59   28   31 1
  60   29   30 ar
  61   29   59 1
  62   30   60 1
  63   33   34 1
  64   33   61 1
  65   33   62 1
  66   34   63 1
  67   34   64 1
  68   34   65 1

#	End of record

