#	Name: ASD02500886
#	Creating user name:	WinNT
#	Creation time:	15. 06. 2019 20:23

#	Modifying user name:	WinNT
#	Modification time:	15. 06. 2019 20:23

#	Program:	/corina/corina34_cracker 3.40 0067  02.08.2006

@<TRIPOS>MOLECULE
ASD02500886
  38   40    0    0    0
SMALL
NO_CHARGES


@<TRIPOS>ATOM
   1 S1             0.0345     1.6898    -0.4581 S.3     
   2 C2             0.0150    -0.0615    -0.1704 C.2     
   3 C3             1.4337    -0.4363    -0.1554 C.2     
   4 N4             2.2772     0.5642    -0.3471 N.am    
   5 C5             1.8017     1.8007    -0.5341 C.2     
   6 S6             2.7239     3.2189    -0.7973 S.2     
   7 C7            -1.0638    -0.8682    -0.0024 C.2     
   8 O8             1.8061    -1.5816     0.0205 O.2     
   9 C9             3.7217     0.3204    -0.3540 C.3     
  10 C10            4.1716     0.0067    -1.7577 C.2     
  11 O11            3.3679    -0.0113    -2.6597 O.2     
  12 O12            5.4650    -0.2527    -2.0058 O.3     
  13 C13           -2.4061    -0.2845     0.1134 C.ar    
  14 C14           -3.5379    -1.0688    -0.1420 C.ar    
  15 C15           -4.7940    -0.5165    -0.0320 C.ar    
  16 C16           -4.9402     0.8175     0.3319 C.ar    
  17 C17           -3.8200     1.6007     0.5865 C.ar    
  18 C18           -2.5594     1.0570     0.4851 C.ar    
  19 O19           -6.1812     1.3572     0.4384 O.3     
  20 C20           -6.9493     0.9868     1.4963 C.ar    
  21 C21           -8.2620     1.4267     1.5900 C.ar    
  22 C22           -9.0408     1.0482     2.6663 C.ar    
  23 C23           -8.5133     0.2322     3.6500 C.ar    
  24 C24           -7.2055    -0.2075     3.5591 C.ar    
  25 C25           -6.4241     0.1634     2.4820 C.ar    
  26 H26           -0.9347    -1.9394     0.0461 H       
  27 H27            4.2419     1.2087     0.0043 H       
  28 H28            3.9510    -0.5226     0.2979 H       
  29 H29            5.7056    -0.4484    -2.9217 H       
  30 H30           -3.4255    -2.1050    -0.4250 H       
  31 H31           -5.6675    -1.1203    -0.2290 H       
  32 H32           -3.9393     2.6364     0.8684 H       
  33 H33           -1.6900     1.6662     0.6835 H       
  34 H34           -8.6744     2.0646     0.8223 H       
  35 H35          -10.0626     1.3903     2.7396 H       
  36 H36           -9.1236    -0.0619     4.4910 H       
  37 H37           -6.7957    -0.8445     4.3290 H       
  38 H38           -5.4028    -0.1807     2.4113 H       
@<TRIPOS>BOND
   1    1    2 1
   2    1    5 1
   3    2    3 1
   4    2    7 2
   5    3    4 am
   6    3    8 2
   7    4    5 am
   8    4    9 1
   9    5    6 2
  10    7   13 1
  11    7   26 1
  12    9   10 1
  13    9   27 1
  14    9   28 1
  15   10   11 2
  16   10   12 1
  17   12   29 1
  18   13   14 ar
  19   13   18 ar
  20   14   15 ar
  21   14   30 1
  22   15   16 ar
  23   15   31 1
  24   16   17 ar
  25   16   19 1
  26   17   18 ar
  27   17   32 1
  28   18   33 1
  29   19   20 1
  30   20   21 ar
  31   20   25 ar
  32   21   22 ar
  33   21   34 1
  34   22   23 ar
  35   22   35 1
  36   23   24 ar
  37   23   36 1
  38   24   25 ar
  39   24   37 1
  40   25   38 1

#	End of record

