#	Name: ASD01917895
#	Creating user name:	WinNT
#	Creation time:	15. 06. 2019 20:10

#	Modifying user name:	WinNT
#	Modification time:	15. 06. 2019 20:10

#	Program:	/corina/corina34_cracker 3.40 0067  02.08.2006

@<TRIPOS>MOLECULE
ASD01917895
  41   44    0    0    0
SMALL
NO_CHARGES


@<TRIPOS>ATOM
   1 C1             0.0174     1.2441    -0.1418 C.2     
   2 C2            -0.0112    -0.1016    -0.1197 C.2     
   3 C3            -1.3028    -0.9010    -0.0413 C.3     
   4 C4            -2.4225     0.0050     0.4765 C.3     
   5 N5            -2.3860     1.2809    -0.2541 N.am    
   6 C6            -1.2000     2.1379    -0.0809 C.3     
   7 C7            -3.4039     1.6536    -1.0549 C.2     
   8 O8            -4.3153     0.8816    -1.2783 O.2     
   9 S9             1.6917     1.7701    -0.2444 S.3     
  10 C10            2.2109     0.1417    -0.2443 C.2     
  11 N11            1.1964    -0.6466    -0.1749 N.2     
  12 C12            3.6481    -0.3059    -0.3155 C.3     
  13 O13            4.0285    -0.4705    -1.6831 O.3     
  14 C14            5.3037    -0.8736    -1.9246 C.ar    
  15 C15            5.7403    -1.0535    -3.2291 C.ar    
  16 C16            7.0369    -1.4634    -3.4719 C.ar    
  17 C17            7.8994    -1.6944    -2.4162 C.ar    
  18 C18            7.4666    -1.5163    -1.1152 C.ar    
  19 C19            6.1727    -1.1005    -0.8672 C.ar    
  20 C20           -3.4117     3.0046    -1.6628 C.ar    
  21 C21           -4.3774     3.3390    -2.6109 C.ar    
  22 N22           -4.3806     4.5451    -3.1499 N.ar    
  23 C23           -3.4704     5.4329    -2.7912 C.ar    
  24 C24           -2.5074     5.1030    -1.8480 C.ar    
  25 N25           -2.5005     3.9040    -1.3015 N.ar    
  26 H26           -1.5629    -1.2714    -1.0328 H       
  27 H27           -1.1702    -1.7417     0.6397 H       
  28 H28           -3.3860    -0.4790     0.3168 H       
  29 H29           -2.2785     0.1903     1.5409 H       
  30 H30           -1.2443     2.6406     0.8852 H       
  31 H31           -1.1563     2.8760    -0.8818 H       
  32 H32            4.2860     0.4448     0.1512 H       
  33 H33            3.7597    -1.2546     0.2094 H       
  34 H34            5.0669    -0.8736    -4.0540 H       
  35 H35            7.3772    -1.6040    -4.4872 H       
  36 H36            8.9128    -2.0148    -2.6081 H       
  37 H37            8.1419    -1.6980    -0.2922 H       
  38 H38            5.8351    -0.9615     0.1492 H       
  39 H39           -5.1214     2.6132    -2.9045 H       
  40 H40           -3.4756     6.4181    -3.2336 H       
  41 H41           -1.7650     5.8318    -1.5581 H       
@<TRIPOS>BOND
   1    1    2 2
   2    1    9 1
   3    1    6 1
   4    2    3 1
   5    2   11 1
   6    3    4 1
   7    3   26 1
   8    3   27 1
   9    4    5 1
  10    4   28 1
  11    4   29 1
  12    5    6 1
  13    5    7 am
  14    6   30 1
  15    6   31 1
  16    7    8 2
  17    7   20 1
  18    9   10 1
  19   10   11 2
  20   10   12 1
  21   12   13 1
  22   12   32 1
  23   12   33 1
  24   13   14 1
  25   14   15 ar
  26   14   19 ar
  27   15   16 ar
  28   15   34 1
  29   16   17 ar
  30   16   35 1
  31   17   18 ar
  32   17   36 1
  33   18   19 ar
  34   18   37 1
  35   19   38 1
  36   20   21 ar
  37   20   25 ar
  38   21   22 ar
  39   21   39 1
  40   22   23 ar
  41   23   24 ar
  42   23   40 1
  43   24   25 ar
  44   24   41 1

#	End of record

