#	Name: ASD00170803
#	Creating user name:	WinNT
#	Creation time:	15. 06. 2019 18:32

#	Modifying user name:	WinNT
#	Modification time:	15. 06. 2019 18:32

#	Program:	/corina/corina34_cracker 3.40 0067  02.08.2006

@<TRIPOS>MOLECULE
ASD00170803
  26   27    0    0    0
SMALL
NO_CHARGES


@<TRIPOS>ATOM
   1 C1            -0.0145     1.2127    -0.0041 C.2     
   2 O2             0.6075     1.0317    -1.0353 O.2     
   3 C3             0.5241     0.7173     1.2809 C.ar    
   4 C4             1.6887    -0.0521     1.3026 C.ar    
   5 C5             2.1864    -0.5109     2.5040 C.ar    
   6 C6             1.5332    -0.2096     3.6877 C.ar    
   7 C7             0.3770     0.5530     3.6724 C.ar    
   8 C8            -0.1270     1.0221     2.4777 C.ar    
   9 Cl9            2.1657    -0.7907     5.1964 Cl      
  10 C10           -1.4037     3.2934     0.0567 C.2     
  11 C11           -1.2914     1.9254    -0.0359 C.2     
  12 C12           -2.5744     1.2678    -0.1685 C.2     
  13 C13           -3.5948     2.1113    -0.1742 C.2     
  14 S14           -3.0390     3.7679    -0.0166 S.3     
  15 C15           -2.7324    -0.2261    -0.2889 C.3     
  16 N16           -0.3395     4.1611     0.1955 N.pl3   
  17 H17            2.1987    -0.2879     0.3803 H       
  18 H18            3.0872    -1.1065     2.5221 H       
  19 H19           -0.1285     0.7841     4.5985 H       
  20 H20           -1.0261     1.6204     2.4674 H       
  21 H21           -4.6305     1.8189    -0.2643 H       
  22 H22           -2.8377    -0.6615     0.7048 H       
  23 H23           -3.6201    -0.4511    -0.8801 H       
  24 H24           -1.8537    -0.6461    -0.7784 H       
  25 H25            0.5584     3.8129     0.3112 H       
  26 H26           -0.4894     5.1193     0.1774 H       
@<TRIPOS>BOND
   1    1    2 2
   2    1    3 1
   3    1   11 1
   4    3    4 ar
   5    3    8 ar
   6    4    5 ar
   7    4   17 1
   8    5    6 ar
   9    5   18 1
  10    6    7 ar
  11    6    9 1
  12    7    8 ar
  13    7   19 1
  14    8   20 1
  15   10   11 2
  16   10   14 1
  17   10   16 1
  18   11   12 1
  19   12   13 2
  20   12   15 1
  21   13   14 1
  22   13   21 1
  23   15   22 1
  24   15   23 1
  25   15   24 1
  26   16   25 1
  27   16   26 1

#	End of record

