#	Name: ASD01910253
#	Creating user name:	WinNT
#	Creation time:	15. 06. 2019 19:55

#	Modifying user name:	WinNT
#	Modification time:	15. 06. 2019 19:55

#	Program:	/corina/corina34_cracker 3.40 0067  02.08.2006

@<TRIPOS>MOLECULE
ASD01910253
  50   53    0    0    0
SMALL
NO_CHARGES


@<TRIPOS>ATOM
   1 C1            -0.0157     1.3055     0.0092 C.2     
   2 C2             1.1844     2.2170     0.0027 C.3     
   3 C3             1.1430     3.1071    -1.2416 C.3     
   4 C4             2.3783     4.0102    -1.2662 C.3     
   5 C5             2.3722     4.9108    -0.0270 C.3     
   6 N6             2.2656     4.0666     1.1707 N.am    
   7 C7             1.1647     3.0973     1.2562 C.3     
   8 C8             3.1608     4.1790     2.1720 C.2     
   9 O9             3.0620     3.4763     3.1555 O.2     
  10 N10            0.0021    -0.0041     0.0020 N.2     
  11 C11           -1.2954    -0.3850     0.0132 C.2     
  12 N12           -2.0176     0.7053     0.0264 N.2     
  13 O13           -1.2982     1.6817     0.0294 O.3     
  14 C14           -1.8043    -1.7788     0.0102 C.ar    
  15 C15           -3.1765    -2.0217     0.0229 C.ar    
  16 C16           -3.6454    -3.3191     0.0196 C.ar    
  17 C17           -2.7541    -4.3799     0.0035 C.ar    
  18 C18           -1.3890    -4.1429    -0.0092 C.ar    
  19 C19           -0.9116    -2.8486    -0.0113 C.ar    
  20 F20           -3.2175    -5.6490     0.0008 F       
  21 C21            4.2845     5.1780     2.0694 C.3     
  22 C22            5.1500     5.1030     3.3288 C.3     
  23 C23            6.2737     6.1020     3.2263 C.ar    
  24 C24            6.0999     7.3883     3.7020 C.ar    
  25 C25            7.1298     8.3051     3.6089 C.ar    
  26 C26            8.3361     7.9348     3.0389 C.ar    
  27 C27            8.5090     6.6462     2.5628 C.ar    
  28 C28            7.4795     5.7296     2.6617 C.ar    
  29 F29            9.3434     8.8304     2.9470 F       
  30 H30            2.0955     1.6188    -0.0081 H       
  31 H31            1.1321     2.4824    -2.1348 H       
  32 H32            0.2437     3.7225    -1.2181 H       
  33 H33            3.2785     3.3955    -1.2647 H       
  34 H34            2.3601     4.6272    -2.1645 H       
  35 H35            3.2978     5.4851     0.0119 H       
  36 H36            1.5204     5.5894    -0.0727 H       
  37 H37            0.2145     3.6280     1.3152 H       
  38 H38            1.2937     2.4751     2.1418 H       
  39 H39           -3.8719    -1.1954     0.0358 H       
  40 H40           -4.7087    -3.5082     0.0298 H       
  41 H41           -0.6977    -4.9726    -0.0217 H       
  42 H42            0.1526    -2.6647    -0.0213 H       
  43 H43            4.8944     4.9502     1.1953 H       
  44 H44            3.8706     6.1817     1.9722 H       
  45 H45            4.5401     5.3308     4.2030 H       
  46 H46            5.5639     4.0993     3.4261 H       
  47 H47            5.1588     7.6769     4.1463 H       
  48 H48            6.9937     9.3100     3.9803 H       
  49 H49            9.4495     6.3563     2.1180 H       
  50 H50            7.6141     4.7245     2.2904 H       
@<TRIPOS>BOND
   1    1   10 2
   2    1    2 1
   3    1   13 1
   4    2    3 1
   5    2    7 1
   6    2   30 1
   7    3    4 1
   8    3   31 1
   9    3   32 1
  10    4    5 1
  11    4   33 1
  12    4   34 1
  13    5    6 1
  14    5   35 1
  15    5   36 1
  16    6    7 1
  17    6    8 am
  18    7   37 1
  19    7   38 1
  20    8    9 2
  21    8   21 1
  22   10   11 1
  23   11   12 2
  24   11   14 1
  25   12   13 1
  26   14   15 ar
  27   14   19 ar
  28   15   16 ar
  29   15   39 1
  30   16   17 ar
  31   16   40 1
  32   17   18 ar
  33   17   20 1
  34   18   19 ar
  35   18   41 1
  36   19   42 1
  37   21   22 1
  38   21   43 1
  39   21   44 1
  40   22   23 1
  41   22   45 1
  42   22   46 1
  43   23   24 ar
  44   23   28 ar
  45   24   25 ar
  46   24   47 1
  47   25   26 ar
  48   25   48 1
  49   26   27 ar
  50   26   29 1
  51   27   28 ar
  52   27   49 1
  53   28   50 1

#	End of record

