#	Name: ASD02030195
#	Creating user name:	WinNT
#	Creation time:	15. 06. 2019 20:14

#	Modifying user name:	WinNT
#	Modification time:	15. 06. 2019 20:14

#	Program:	/corina/corina34_cracker 3.40 0067  02.08.2006

@<TRIPOS>MOLECULE
ASD02030195
  52   55    0    0    0
SMALL
NO_CHARGES


@<TRIPOS>ATOM
   1 N1            -0.2120     1.4222    -0.1395 N.am    
   2 C2            -0.0219    -0.0114     0.1223 C.3     
   3 C3            -0.9189    -0.4181     1.2980 C.3     
   4 N4            -2.2779     0.0818     1.0467 N.am    
   5 C5            -2.4680     1.5154     0.7849 C.3     
   6 C6            -1.5717     1.9230    -0.3852 C.3     
   7 C7             0.8409     2.2634    -0.1485 C.2     
   8 C8             2.1832     1.7715     0.2276 C.2     
   9 N9             3.2620     2.5085     0.3829 N.2     
  10 N10            2.5158     0.4917     0.4772 N.2     
  11 C11            3.7904     0.4718     0.7739 C.2     
  12 N12            4.2434     1.7406     0.7109 N.pl3   
  13 O13            0.6868     3.4267    -0.4659 O.2     
  14 C14           -3.3308    -0.7594     1.0557 C.2     
  15 C15           -4.7029    -0.2279     0.9116 C.ar    
  16 O16           -3.1524    -1.9551     1.1823 O.2     
  17 C17           -1.5449     3.4481    -0.5046 C.3     
  18 C18           -2.1094     1.3124    -1.6810 C.3     
  19 C19           -5.6741    -0.9689     0.2371 C.ar    
  20 C20           -6.9539    -0.4667     0.1066 C.ar    
  21 C21           -7.2734     0.7689     0.6433 C.ar    
  22 C22           -6.3143     1.5077     1.3130 C.ar    
  23 C23           -5.0338     1.0148     1.4547 C.ar    
  24 Cl24          -8.1640    -1.3861    -0.7325 Cl      
  25 C25            5.5597     2.1540     0.9594 C.ar    
  26 C26            5.8978     3.4967     0.8602 C.ar    
  27 C27            7.1953     3.9012     1.1060 C.ar    
  28 C28            8.1588     2.9708     1.4506 C.ar    
  29 C29            7.8274     1.6324     1.5507 C.ar    
  30 C30            6.5285     1.2208     1.3115 C.ar    
  31 F31            6.2042    -0.0871     1.4094 F       
  32 H32           -0.2970    -0.5846    -0.7631 H       
  33 H33            1.0212    -0.2019     0.3750 H       
  34 H34           -0.9389    -1.5045     1.3841 H       
  35 H35           -0.5335     0.0174     2.2199 H       
  36 H36           -3.5111     1.7059     0.5322 H       
  37 H37           -2.1930     2.0886     1.6703 H       
  38 H38            4.3729    -0.4017     1.0266 H       
  39 H39           -1.0489     3.8722     0.3685 H       
  40 H40           -1.0011     3.7326    -1.4054 H       
  41 H41           -2.5657     3.8261    -0.5619 H       
  42 H42           -3.1229     1.6720    -1.8588 H       
  43 H43           -1.4690     1.6043    -2.5133 H       
  44 H44           -2.1194     0.2260    -1.5939 H       
  45 H45           -5.4254    -1.9327    -0.1821 H       
  46 H46           -8.2755     1.1578     0.5384 H       
  47 H47           -6.5698     2.4711     1.7290 H       
  48 H48           -4.2865     1.5927     1.9781 H       
  49 H49            5.1468     4.2245     0.5906 H       
  50 H50            7.4580     4.9459     1.0288 H       
  51 H51            9.1726     3.2905     1.6414 H       
  52 H52            8.5822     0.9083     1.8196 H       
@<TRIPOS>BOND
   1    1    2 1
   2    1    7 am
   3    1    6 1
   4    2    3 1
   5    2   32 1
   6    2   33 1
   7    3    4 1
   8    3   34 1
   9    3   35 1
  10    4    5 1
  11    4   14 am
  12    5    6 1
  13    5   36 1
  14    5   37 1
  15    6   17 1
  16    6   18 1
  17    7    8 1
  18    7   13 2
  19    8    9 2
  20    8   10 1
  21    9   12 1
  22   10   11 2
  23   11   12 1
  24   11   38 1
  25   12   25 1
  26   14   15 1
  27   14   16 2
  28   15   19 ar
  29   15   23 ar
  30   17   39 1
  31   17   40 1
  32   17   41 1
  33   18   42 1
  34   18   43 1
  35   18   44 1
  36   19   20 ar
  37   19   45 1
  38   20   21 ar
  39   20   24 1
  40   21   22 ar
  41   21   46 1
  42   22   23 ar
  43   22   47 1
  44   23   48 1
  45   25   26 ar
  46   25   30 ar
  47   26   27 ar
  48   26   49 1
  49   27   28 ar
  50   27   50 1
  51   28   29 ar
  52   28   51 1
  53   29   30 ar
  54   29   52 1
  55   30   31 1

#	End of record

