#	Name: ASD01918098
#	Creating user name:	WinNT
#	Creation time:	15. 06. 2019 20:10

#	Modifying user name:	WinNT
#	Modification time:	15. 06. 2019 20:10

#	Program:	/corina/corina34_cracker 3.40 0067  02.08.2006

@<TRIPOS>MOLECULE
ASD01918098
  41   44    0    0    0
SMALL
NO_CHARGES


@<TRIPOS>ATOM
   1 N1            -0.0169     1.3954     0.0095 N.am    
   2 C2             0.0021    -0.0041     0.0049 C.2     
   3 C3             2.4254    -0.1100    -0.5640 C.3     
   4 C4             2.2018     1.3393    -1.0103 C.3     
   5 C5             1.3004     2.0620    -0.0030 C.3     
   6 C6            -1.0002    -0.8781     0.2389 C.2     
   7 C7            -0.4728    -2.1701     0.1178 C.2     
   8 N8             0.8009    -2.0711    -0.1786 N.2     
   9 N9             1.1280    -0.7181    -0.2575 N.pl3   
  10 C10           -1.2387    -3.4554     0.2981 C.3     
  11 O11           -2.6001    -3.1582     0.6149 O.3     
  12 C12           -1.1698     2.0934     0.0191 C.2     
  13 C13           -1.1405     3.5952     0.1408 C.3     
  14 O14           -2.2310     1.5128    -0.0704 O.2     
  15 C15           -3.4328    -4.2143     0.8105 C.ar    
  16 C16           -4.7675    -3.9986     1.1212 C.ar    
  17 C17           -5.6119    -5.0738     1.3195 C.ar    
  18 C18           -5.1277    -6.3641     1.2086 C.ar    
  19 C19           -3.7978    -6.5818     0.8994 C.ar    
  20 C20           -2.9508    -5.5100     0.6941 C.ar    
  21 C21           -2.4726     4.3392     0.0278 C.3     
  22 C22           -1.7781     4.2156     1.3856 C.3     
  23 H23            2.9098    -0.6680    -1.3652 H       
  24 H24            3.0548    -0.1250     0.3258 H       
  25 H25            3.1618     1.8521    -1.0698 H       
  26 H26            1.7272     1.3469    -1.9915 H       
  27 H27            1.1807     3.1038    -0.3002 H       
  28 H28            1.7463     2.0105     0.9903 H       
  29 H29           -2.0232    -0.6265     0.4767 H       
  30 H30           -1.1985    -4.0348    -0.6243 H       
  31 H31           -0.7945    -4.0323     1.1093 H       
  32 H32           -0.2554     4.0827    -0.2678 H       
  33 H33           -5.1461    -2.9908     1.2083 H       
  34 H34           -6.6509    -4.9063     1.5618 H       
  35 H35           -5.7894    -7.2034     1.3640 H       
  36 H36           -3.4218    -7.5907     0.8140 H       
  37 H37           -1.9120    -5.6806     0.4526 H       
  38 H38           -2.4638     5.3165    -0.4548 H       
  39 H39           -3.3702     3.7425    -0.1346 H       
  40 H40           -2.2189     3.5375     2.1164 H       
  41 H41           -1.3125     5.1115     1.7961 H       
@<TRIPOS>BOND
   1    1    2 1
   2    1    5 1
   3    1   12 am
   4    2    6 2
   5    2    9 1
   6    3    4 1
   7    3    9 1
   8    3   23 1
   9    3   24 1
  10    4    5 1
  11    4   25 1
  12    4   26 1
  13    5   27 1
  14    5   28 1
  15    6    7 1
  16    6   29 1
  17    7    8 2
  18    7   10 1
  19    8    9 1
  20   10   11 1
  21   10   30 1
  22   10   31 1
  23   11   15 1
  24   12   13 1
  25   12   14 2
  26   13   21 1
  27   13   22 1
  28   13   32 1
  29   15   16 ar
  30   15   20 ar
  31   16   17 ar
  32   16   33 1
  33   17   18 ar
  34   17   34 1
  35   18   19 ar
  36   18   35 1
  37   19   20 ar
  38   19   36 1
  39   20   37 1
  40   21   22 1
  41   21   38 1
  42   21   39 1
  43   22   40 1
  44   22   41 1

#	End of record

