#	Name: ASD01420059
#	Creating user name:	WinNT
#	Creation time:	15. 06. 2019 19:20

#	Modifying user name:	WinNT
#	Modification time:	15. 06. 2019 19:20

#	Program:	/corina/corina34_cracker 3.40 0067  02.08.2006

@<TRIPOS>MOLECULE
ASD01420059
  43   45    0    0    0
SMALL
NO_CHARGES


@<TRIPOS>ATOM
   1 C1            -0.0144     1.2116     0.0087 C.2     
   2 O2             0.0766     0.0247    -0.2386 O.2     
   3 C3             2.4666     1.4274     0.3539 C.3     
   4 N4             1.0959     1.9373     0.2476 N.am    
   5 C5             1.1645     3.3880     0.4503 C.3     
   6 C6             2.6094     3.7506     0.6828 C.ar    
   7 C7             3.2159     4.9716     0.9237 C.ar    
   8 C8             4.5833     5.0419     1.1072 C.ar    
   9 C9             5.3475     3.8911     1.0507 C.ar    
  10 C10            4.7429     2.6724     0.8107 C.ar    
  11 C11            3.3726     2.6015     0.6263 C.ar    
  12 C12           -1.3404     1.8591     0.0413 C.ar    
  13 C13           -2.5002     1.0861    -0.0614 C.ar    
  14 C14           -3.7353     1.6939    -0.0306 C.ar    
  15 C15           -3.8296     3.0745     0.1025 C.ar    
  16 C16           -2.6786     3.8466     0.2049 C.ar    
  17 C17           -1.4396     3.2457     0.1807 C.ar    
  18 O18           -5.0488     3.6698     0.1320 O.3     
  19 C19           -4.9865     0.8614    -0.1417 C.3     
  20 C20           -4.6068    -0.6145    -0.2779 C.3     
  21 C21           -5.8407     1.0546     1.1129 C.3     
  22 C22           -5.7825     1.2989    -1.3730 C.3     
  23 H23            2.5321     0.7122     1.1738 H       
  24 H24            2.7556     0.9468    -0.5807 H       
  25 H25            0.7923     3.9028    -0.4355 H       
  26 H26            0.5688     3.6682     1.3191 H       
  27 H27            2.6191     5.8707     0.9679 H       
  28 H28            5.0551     5.9952     1.2944 H       
  29 H29            6.4167     3.9450     1.1936 H       
  30 H30            5.3402     1.7737     0.7663 H       
  31 H31           -2.4278     0.0136    -0.1651 H       
  32 H32           -2.7560     4.9189     0.3081 H       
  33 H33           -0.5458     3.8460     0.2648 H       
  34 H34           -5.4229     3.7562     1.0195 H       
  35 H35           -4.0398    -0.9262     0.5993 H       
  36 H36           -5.5118    -1.2166    -0.3583 H       
  37 H37           -3.9983    -0.7521    -1.1717 H       
  38 H38           -6.1113     2.1060     1.2099 H       
  39 H39           -6.7458     0.4524     1.0325 H       
  40 H40           -5.2737     0.7429     1.9900 H       
  41 H41           -5.1739     1.1613    -2.2667 H       
  42 H42           -6.6875     0.6968    -1.4534 H       
  43 H43           -6.0530     2.3504    -1.2759 H       
@<TRIPOS>BOND
   1    1    2 2
   2    1    4 am
   3    1   12 1
   4    3    4 1
   5    3   11 1
   6    3   23 1
   7    3   24 1
   8    4    5 1
   9    5    6 1
  10    5   25 1
  11    5   26 1
  12    6    7 ar
  13    6   11 ar
  14    7    8 ar
  15    7   27 1
  16    8    9 ar
  17    8   28 1
  18    9   10 ar
  19    9   29 1
  20   10   11 ar
  21   10   30 1
  22   12   13 ar
  23   12   17 ar
  24   13   14 ar
  25   13   31 1
  26   14   15 ar
  27   14   19 1
  28   15   16 ar
  29   15   18 1
  30   16   17 ar
  31   16   32 1
  32   17   33 1
  33   18   34 1
  34   19   20 1
  35   19   22 1
  36   19   21 1
  37   20   35 1
  38   20   36 1
  39   20   37 1
  40   21   38 1
  41   21   39 1
  42   21   40 1
  43   22   41 1
  44   22   42 1
  45   22   43 1

#	End of record

