#	Name: ASD03082032
#	Creating user name:	WinNT
#	Creation time:	15. 06. 2019 20:27

#	Modifying user name:	WinNT
#	Modification time:	15. 06. 2019 20:27

#	Program:	/corina/corina34_cracker 3.40 0067  02.08.2006

@<TRIPOS>MOLECULE
ASD03082032
  55   58    0    0    0
SMALL
NO_CHARGES


@<TRIPOS>ATOM
   1 C1             0.1496     1.2819    -0.2249 C.3     
   2 N2             0.0655    -0.1809    -0.1195 N.3     
   3 C3             0.6108    -0.8337    -1.3171 C.3     
   4 C4             2.1015    -0.5011    -1.4421 C.3     
   5 N5             2.2588     0.9607    -1.4045 N.am    
   6 C6             1.6213     1.7011    -0.3051 C.3     
   7 S7             3.1310     1.7520    -2.5687 S.o2    
   8 C8            -1.3161    -0.6120     0.1322 C.3     
   9 C9            -2.1796    -0.2447    -1.0470 C.2     
  10 O10           -3.4584    -0.6508    -1.0950 O.3     
  11 O11           -1.7211     0.4153    -1.9493 O.2     
  12 O12            4.0313     0.7973    -3.1139 O.2     
  13 C13            2.0113     2.1751    -3.8618 C.ar    
  14 O14            3.5555     2.9777    -1.9884 O.2     
  15 C15            1.3445     3.3857    -3.8294 C.ar    
  16 C16            0.4664     3.7188    -4.8433 C.ar    
  17 C17            0.2547     2.8396    -5.8917 C.ar    
  18 C18            0.9232     1.6275    -5.9231 C.ar    
  19 C19            1.8047     1.2988    -4.9108 C.ar    
  20 F20           -0.6038     3.1641    -6.8832 F       
  21 C21           -4.2131    -0.1919    -2.1275 C.ar    
  22 C22           -4.4531    -1.0006    -3.2264 C.ar    
  23 C23           -5.2214    -0.5326    -4.2759 C.ar    
  24 C24           -5.7541     0.7435    -4.2363 C.ar    
  25 C25           -5.5225     1.5601    -3.1476 C.ar    
  26 C26           -4.7550     1.0964    -2.0820 C.ar    
  27 C27           -4.5035     1.9695    -0.9096 C.ar    
  28 C28           -4.0404     3.2710    -1.0934 C.ar    
  29 C29           -3.8085     4.0791     0.0012 C.ar    
  30 C30           -4.0350     3.5994     1.2787 C.ar    
  31 C31           -4.4942     2.3083     1.4670 C.ar    
  32 C32           -4.7349     1.4933     0.3795 C.ar    
  33 H33           -0.3722     1.6124    -1.1229 H       
  34 H34           -0.3109     1.7368     0.6521 H       
  35 H35            0.4848    -1.9130    -1.2323 H       
  36 H36            0.0826    -0.4737    -2.2000 H       
  37 H37            2.6475    -0.9497    -0.6122 H       
  38 H38            2.4846    -0.8864    -2.3870 H       
  39 H39            1.6870     2.7719    -0.4982 H       
  40 H40            2.1212     1.4643     0.6341 H       
  41 H41           -1.3390    -1.6921     0.2768 H       
  42 H42           -1.6937    -0.1175     1.0271 H       
  43 H43            1.5095     4.0712    -3.0113 H       
  44 H44           -0.0547     4.6644    -4.8176 H       
  45 H45            0.7588     0.9409    -6.7404 H       
  46 H46            2.3262     0.3533    -4.9351 H       
  47 H47           -4.0392    -1.9974    -3.2633 H       
  48 H48           -5.4063    -1.1660    -5.1309 H       
  49 H49           -6.3531     1.1023    -5.0603 H       
  50 H50           -5.9397     2.5558    -3.1203 H       
  51 H51           -3.8629     3.6465    -2.0903 H       
  52 H52           -3.4493     5.0878    -0.1400 H       
  53 H53           -3.8522     4.2353     2.1323 H       
  54 H54           -4.6689     1.9388     2.4667 H       
  55 H55           -5.0938     0.4855     0.5277 H       
@<TRIPOS>BOND
   1    1    2 1
   2    1    6 1
   3    1   33 1
   4    1   34 1
   5    2    3 1
   6    2    8 1
   7    3    4 1
   8    3   35 1
   9    3   36 1
  10    4    5 1
  11    4   37 1
  12    4   38 1
  13    5    6 1
  14    5    7 am
  15    6   39 1
  16    6   40 1
  17    7   12 2
  18    7   13 1
  19    7   14 2
  20    8    9 1
  21    8   41 1
  22    8   42 1
  23    9   10 1
  24    9   11 2
  25   10   21 1
  26   13   15 ar
  27   13   19 ar
  28   15   16 ar
  29   15   43 1
  30   16   17 ar
  31   16   44 1
  32   17   18 ar
  33   17   20 1
  34   18   19 ar
  35   18   45 1
  36   19   46 1
  37   21   22 ar
  38   21   26 ar
  39   22   23 ar
  40   22   47 1
  41   23   24 ar
  42   23   48 1
  43   24   25 ar
  44   24   49 1
  45   25   26 ar
  46   25   50 1
  47   26   27 1
  48   27   28 ar
  49   27   32 ar
  50   28   29 ar
  51   28   51 1
  52   29   30 ar
  53   29   52 1
  54   30   31 ar
  55   30   53 1
  56   31   32 ar
  57   31   54 1
  58   32   55 1

#	End of record

