#	Name: ASD01410739
#	Creating user name:	WinNT
#	Creation time:	15. 06. 2019 19:18

#	Modifying user name:	WinNT
#	Modification time:	15. 06. 2019 19:18

#	Program:	/corina/corina34_cracker 3.40 0067  02.08.2006

@<TRIPOS>MOLECULE
ASD01410739
 113  119    0    0    0
SMALL
NO_CHARGES


@<TRIPOS>ATOM
   1 N1            -2.6108     4.7915     0.4795 N.am    
   2 C2             0.5343     6.6279    -0.5281 C.3     
   3 C3            -0.8447     5.9525    -0.7110 C.3     
   4 N4            -1.7949     7.0746    -0.8008 N.am    
   5 C5            -1.0809     8.2473    -1.3206 C.3     
   6 C6             0.4035     7.8498    -1.4730 C.3     
   7 O7             0.7275     7.0425     0.8257 O.3     
   8 C8            -1.6468     8.6393    -2.6612 C.2     
   9 O9            -2.5603     8.0036    -3.1431 O.2     
  10 N10           -1.1376     9.6962    -3.3246 N.am    
  11 C11           -1.1890     5.1521     0.5501 C.3     
  12 C12           -3.6331     5.8201     0.3000 C.3     
  13 C13           -3.0835     7.0166    -0.4245 C.2     
  14 O14           -3.8179     7.9489    -0.6743 O.2     
  15 C15           -4.7947     5.2362    -0.5066 C.3     
  16 C16           -5.8431     6.3234    -0.7512 C.3     
  17 C17           -1.7642    10.1516    -4.5681 C.3     
  18 C18           -1.6812     9.1920    -5.7271 C.2     
  19 N19           -0.9148     8.0873    -5.6337 N.am    
  20 O20           -2.3040     9.4139    -6.7438 O.2     
  21 S21           -0.7291     7.0951    -6.9465 S.o2    
  22 C22            0.1531     8.1126    -8.1618 C.3     
  23 C23           -3.0253    11.0100    -4.4506 C.3     
  24 C24           -1.7026    11.6475    -4.8836 C.3     
  25 C25            0.3804     7.5148    -9.5517 C.3     
  26 C26           -0.6447     8.6341    -9.3587 C.3     
  27 O27            0.1046     6.0446    -6.4766 O.2     
  28 O28           -2.0570     6.8375    -7.3817 O.2     
  29 C29           -4.0890    10.8316    -5.5030 C.2     
  30 C30           -5.2939    10.4502    -5.1584 C.2     
  31 C31            2.0078     7.1912     1.2473 C.ar    
  32 C32            2.2940     7.5741     2.5785 C.ar    
  33 C33            3.0588     6.9690     0.3964 C.ar    
  34 C34            4.3727     7.1291     0.8567 C.ar    
  35 N35            4.6296     7.4923     2.1021 N.ar    
  36 C36            3.6456     7.7179     2.9784 C.ar    
  37 C37            5.4973     6.8858    -0.0708 C.2     
  38 C38            3.9314     8.1039     4.2988 C.ar    
  39 C39            2.8987     8.3298     5.1799 C.ar    
  40 C40            1.5685     8.1792     4.7760 C.ar    
  41 C41            1.2649     7.8120     3.5011 C.ar    
  42 O42            3.1746     8.7031     6.4565 O.3     
  43 C43            2.0601     8.9229     7.3234 C.3     
  44 N44            6.7604     6.9980     0.2268 N.2     
  45 C45            7.6235     6.7412    -0.7260 C.2     
  46 C46            7.1007     6.3894    -1.9078 C.2     
  47 S47            5.3448     6.3901    -1.7546 S.3     
  48 C48            9.1112     6.8364    -0.5053 C.3     
  49 C49            9.6639     5.4541    -0.1521 C.3     
  50 C50            9.7847     7.3440    -1.7819 C.3     
  51 C51           -4.2741     4.7184    -1.8489 C.3     
  52 C52            5.3605     8.2690     4.7477 C.3     
  53 O53           -2.0370     2.5338     0.6103 O.3     
  54 C54           -2.5033     1.1627     0.7149 C.3     
  55 C55           -3.3882     0.8317    -0.4886 C.3     
  56 C56           -1.3016     0.2159     0.7400 C.3     
  57 C57           -3.3112     0.9956     2.0034 C.3     
  58 C58           -2.9762     3.4978     0.5759 C.2     
  59 O59           -4.1533     3.2016     0.6318 O.2     
  60 H60            1.3395     5.9685    -0.8521 H       
  61 H61           -0.8693     5.3373    -1.6105 H       
  62 H62           -1.1723     9.0774    -0.6202 H       
  63 H63            1.0550     8.6607    -1.1472 H       
  64 H64            0.6231     7.5678    -2.5028 H       
  65 H65           -0.3564    10.1554    -2.9787 H       
  66 H66           -1.0063     5.7614     1.4352 H       
  67 H67           -0.5808     4.2486     0.5912 H       
  68 H68           -4.0004     6.1325     1.2775 H       
  69 H69           -5.2462     4.4145     0.0493 H       
  70 H70           -5.3915     7.1450    -1.3071 H       
  71 H71           -6.6706     5.9074    -1.3258 H       
  72 H72           -6.2139     6.6922     0.2051 H       
  73 H73           -0.4720     7.8734    -4.7976 H       
  74 H74            0.9335     8.7572    -7.7573 H       
  75 H75           -3.3887    11.2360    -3.4481 H       
  76 H76           -1.1962    12.2929    -4.1658 H       
  77 H77           -1.6024    11.9376    -5.9295 H       
  78 H78            1.3103     7.7664   -10.0618 H       
  79 H79           -0.0001     6.5101    -9.7358 H       
  80 H80           -1.6996     8.3658    -9.4158 H       
  81 H81           -0.3893     9.6221    -9.7418 H       
  82 H82           -3.8580    11.0182    -6.5414 H       
  83 H83           -5.5250    10.2636    -4.1200 H       
  84 H84           -6.0563    10.3223    -5.9126 H       
  85 H85            2.8751     6.6712    -0.6253 H       
  86 H86            0.7725     8.3609     5.4828 H       
  87 H87            0.2333     7.6991     3.2019 H       
  88 H88            2.4194     9.2151     8.3101 H       
  89 H89            1.4333     9.7158     6.9155 H       
  90 H90            1.4775     8.0053     7.4060 H       
  91 H91            7.6586     6.1442    -2.7994 H       
  92 H92            9.3137     7.5283     0.3122 H       
  93 H93            9.4613     4.7621    -0.9696 H       
  94 H94           10.7399     5.5229     0.0075 H       
  95 H95            9.1841     5.0924     0.7573 H       
  96 H96            9.3910     8.3287    -2.0335 H       
  97 H97           10.8607     7.4128    -1.6223 H       
  98 H98            9.5822     6.6520    -2.5993 H       
  99 H99           -3.5273     3.9439    -1.6747 H       
 100 H100          -5.1017     4.3025    -2.4235 H       
 101 H101          -3.8226     5.5401    -2.4049 H       
 102 H102           5.6799     9.2964     4.5726 H       
 103 H103           5.4360     8.0412     5.8109 H       
 104 H104           5.9992     7.5889     4.1841 H       
 105 H105          -2.8126     0.9507    -1.4065 H       
 106 H106          -3.7382    -0.1976    -0.4100 H       
 107 H107          -4.2443     1.5062    -0.5064 H       
 108 H108          -0.6712     0.4517     1.5973 H       
 109 H109          -1.6516    -0.8134     0.8185 H       
 110 H110          -0.7260     0.3349    -0.1780 H       
 111 H111          -4.1672     1.6701     1.9855 H       
 112 H112          -3.6612    -0.0337     2.0819 H       
 113 H113          -2.6807     1.2314     2.8607 H       
@<TRIPOS>BOND
   1    1   58 am
   2    1   11 1
   3    1   12 1
   4    2    3 1
   5    2    7 1
   6    2    6 1
   7    2   60 1
   8    3    4 1
   9    3   11 1
  10    3   61 1
  11    4    5 1
  12    4   13 am
  13    5    6 1
  14    5    8 1
  15    5   62 1
  16    6   63 1
  17    6   64 1
  18    7   31 1
  19    8    9 2
  20    8   10 am
  21   10   17 1
  22   10   65 1
  23   11   66 1
  24   11   67 1
  25   12   13 1
  26   12   15 1
  27   12   68 1
  28   13   14 2
  29   15   16 1
  30   15   51 1
  31   15   69 1
  32   16   70 1
  33   16   71 1
  34   16   72 1
  35   17   18 1
  36   17   23 1
  37   17   24 1
  38   18   19 am
  39   18   20 2
  40   19   21 am
  41   19   73 1
  42   21   22 1
  43   21   27 2
  44   21   28 2
  45   22   25 1
  46   22   26 1
  47   22   74 1
  48   23   24 1
  49   23   29 1
  50   23   75 1
  51   24   76 1
  52   24   77 1
  53   25   26 1
  54   25   78 1
  55   25   79 1
  56   26   80 1
  57   26   81 1
  58   29   30 2
  59   29   82 1
  60   30   83 1
  61   30   84 1
  62   31   32 ar
  63   31   33 ar
  64   32   36 ar
  65   32   41 ar
  66   33   34 ar
  67   33   85 1
  68   34   35 ar
  69   34   37 1
  70   35   36 ar
  71   36   38 ar
  72   37   44 2
  73   37   47 1
  74   38   39 ar
  75   38   52 1
  76   39   40 ar
  77   39   42 1
  78   40   41 ar
  79   40   86 1
  80   41   87 1
  81   42   43 1
  82   43   88 1
  83   43   89 1
  84   43   90 1
  85   44   45 1
  86   45   46 2
  87   45   48 1
  88   46   47 1
  89   46   91 1
  90   48   49 1
  91   48   50 1
  92   48   92 1
  93   49   93 1
  94   49   94 1
  95   49   95 1
  96   50   96 1
  97   50   97 1
  98   50   98 1
  99   51   99 1
 100   51  100 1
 101   51  101 1
 102   52  102 1
 103   52  103 1
 104   52  104 1
 105   53   54 1
 106   53   58 1
 107   54   55 1
 108   54   56 1
 109   54   57 1
 110   55  105 1
 111   55  106 1
 112   55  107 1
 113   56  108 1
 114   56  109 1
 115   56  110 1
 116   57  111 1
 117   57  112 1
 118   57  113 1
 119   58   59 2

#	End of record

