#	Name: ASD01883344
#	Creating user name:	WinNT
#	Creation time:	15. 06. 2019 19:46

#	Modifying user name:	WinNT
#	Modification time:	15. 06. 2019 19:46

#	Program:	/corina/corina34_cracker 3.40 0067  02.08.2006

@<TRIPOS>MOLECULE
ASD01883344
  40   41    0    0    0
SMALL
NO_CHARGES


@<TRIPOS>ATOM
   1 N1            -0.0655     1.4265    -0.0464 N.am    
   2 C2            -0.0161     0.0817    -0.0710 C.2     
   3 C3            -1.2153    -0.6690    -0.0450 C.2     
   4 C4            -2.4404     0.0176     0.0064 C.2     
   5 C5            -2.4267     1.4245     0.0300 C.2     
   6 C6            -1.2506     2.0888     0.0089 C.2     
   7 O7             1.0606    -0.4890    -0.1160 O.2     
   8 C8            -1.1812    -2.1004    -0.0711 C.1     
   9 N9            -1.1542    -3.2359    -0.0917 N.1     
  10 N10           -3.6318    -0.6735     0.0327 N.pl3   
  11 C11            1.1836     2.1914    -0.0737 C.3     
  12 C12            1.5719     2.4823    -1.5248 C.3     
  13 C13           -4.5257    -0.4851     1.0904 C.ar    
  14 C14            2.8765     3.2811    -1.5533 C.3     
  15 C15            4.0127     2.4221    -0.9948 C.3     
  16 C16           -5.7852    -1.0698     1.0500 C.ar    
  17 C17           -6.6660    -0.8816     2.0968 C.ar    
  18 C18           -6.2957    -0.1116     3.1842 C.ar    
  19 C19           -5.0428     0.4719     3.2276 C.ar    
  20 C20           -4.1547     0.2827     2.1870 C.ar    
  21 C21            3.1993     3.6791    -2.9950 C.3     
  22 H22           -3.3562     1.9731     0.0691 H       
  23 H23           -1.2526     3.1686     0.0278 H       
  24 H24           -3.8504    -1.2908    -0.6829 H       
  25 H25            1.0460     3.1312     0.4610 H       
  26 H26            1.9741     1.6134     0.4050 H       
  27 H27            1.7095     1.5425    -2.0595 H       
  28 H28            0.7814     3.0603    -2.0035 H       
  29 H29            2.7664     4.1785    -0.9446 H       
  30 H30            4.1228     1.5247    -1.6035 H       
  31 H31            4.9422     2.9912    -1.0151 H       
  32 H32            3.7827     2.1386     0.0323 H       
  33 H33           -6.0753    -1.6707     0.2007 H       
  34 H34           -7.6454    -1.3359     2.0660 H       
  35 H35           -6.9868     0.0346     4.0012 H       
  36 H36           -4.7568     1.0730     4.0782 H       
  37 H37           -3.1763     0.7387     2.2216 H       
  38 H38            2.3898     4.2911    -3.3929 H       
  39 H39            4.1287     4.2482    -3.0153 H       
  40 H40            3.3094     2.7817    -3.6037 H       
@<TRIPOS>BOND
   1    1    2 am
   2    1   11 1
   3    1    6 1
   4    2    3 1
   5    2    7 2
   6    3    4 2
   7    3    8 1
   8    4    5 1
   9    4   10 1
  10    5    6 2
  11    5   22 1
  12    6   23 1
  13    8    9 3
  14   10   13 1
  15   10   24 1
  16   11   12 1
  17   11   25 1
  18   11   26 1
  19   12   14 1
  20   12   27 1
  21   12   28 1
  22   13   16 ar
  23   13   20 ar
  24   14   15 1
  25   14   21 1
  26   14   29 1
  27   15   30 1
  28   15   31 1
  29   15   32 1
  30   16   17 ar
  31   16   33 1
  32   17   18 ar
  33   17   34 1
  34   18   19 ar
  35   18   35 1
  36   19   20 ar
  37   19   36 1
  38   20   37 1
  39   21   38 1
  40   21   39 1
  41   21   40 1

#	End of record

