#	Name: ASD03240560
#	Creating user name:	WinNT
#	Creation time:	15. 06. 2019 20:35

#	Modifying user name:	WinNT
#	Modification time:	15. 06. 2019 20:35

#	Program:	/corina/corina34_cracker 3.40 0067  02.08.2006

@<TRIPOS>MOLECULE
ASD03240560
  72   79    0    0    0
SMALL
NO_CHARGES


@<TRIPOS>ATOM
   1 C1            -0.0166     1.3754     0.0096 C.ar    
   2 C2             0.0021    -0.0041     0.0020 C.ar    
   3 N3             1.1422    -0.6683    -0.0054 N.ar    
   4 C4             2.3145    -0.0481    -0.0053 C.ar    
   5 C5             2.3702     1.3442    -0.0124 C.ar    
   6 C6             1.1861     2.0698     0.0018 C.ar    
   7 N7             3.4821    -0.8058     0.0230 N.pl3   
   8 C8             4.3590    -0.7188     1.1008 C.ar    
   9 C9             4.9948     0.4898     1.4045 C.ar    
  10 C10            4.7633     1.6839     0.5623 C.2     
  11 N11            3.5939     2.0276    -0.0512 N.pl3   
  12 C12            4.6049    -1.8382     1.8846 C.ar    
  13 C13            5.4645    -1.7523     2.9632 C.ar    
  14 C14            6.0848    -0.5539     3.2719 C.ar    
  15 C15            5.8554     0.5666     2.4992 C.ar    
  16 N16            5.6749     2.5947     0.2851 N.2     
  17 C17            5.1450     3.5402    -0.5058 C.2     
  18 C18            3.8228     3.2044    -0.7373 C.2     
  19 C19            2.8502     3.9546    -1.5549 C.ar    
  20 C20            2.7512     5.3426    -1.4301 C.ar    
  21 C21            2.0280     3.2809    -2.4616 C.ar    
  22 C22            1.1212     3.9886    -3.2225 C.ar    
  23 C23            1.0249     5.3628    -3.0899 C.ar    
  24 C24            1.8398     6.0373    -2.1976 C.ar    
  25 C25            5.8495     4.7306    -1.0362 C.ar    
  26 C26            0.0319     6.1290    -3.9252 C.3     
  27 N27           -1.0469     5.2810    -4.4497 N.3     
  28 C28           -0.4692     7.4201    -3.2567 C.3     
  29 C29           -0.3821     8.0787    -4.6436 C.3     
  30 C30            0.6849     7.0247    -4.9911 C.3     
  31 C31            6.8245     5.3797    -0.2681 C.ar    
  32 C32            7.4545     6.4847    -0.8046 C.ar    
  33 C33            7.1031     6.9147    -2.0814 C.ar    
  34 N34            6.1766     6.2785    -2.7819 N.ar    
  35 C35            5.5557     5.2167    -2.3079 C.ar    
  36 N36            7.7327     8.0268    -2.6280 N.3     
  37 C37            7.2204     8.3128    -3.9760 C.3     
  38 C38            9.1916     7.8473    -2.6523 C.3     
  39 C39            9.8473     9.1157    -3.2049 C.3     
  40 O40            9.3144     9.3953    -4.5023 O.3     
  41 C41            7.8959     9.5765    -4.5153 C.3     
  42 H42           -0.9556     1.9091     0.0170 H       
  43 H43           -0.9306    -0.5486     0.0025 H       
  44 H44            1.2002     3.1497     0.0061 H       
  45 H45            3.6865    -1.4005    -0.7156 H       
  46 H46            4.1239    -2.7765     1.6514 H       
  47 H47            5.6532    -2.6258     3.5696 H       
  48 H48            6.7506    -0.4955     4.1202 H       
  49 H49            6.3408     1.5004     2.7420 H       
  50 H50            3.3865     5.8703    -0.7342 H       
  51 H51            2.1026     2.2086    -2.5667 H       
  52 H52            0.4850     3.4693    -3.9238 H       
  53 H53            1.7589     7.1097    -2.0990 H       
  54 H54           -0.6739     4.4591    -4.9007 H       
  55 H55           -1.6965     5.0296    -3.7198 H       
  56 H56           -1.4862     7.3460    -2.8716 H       
  57 H57            0.2300     7.8358    -2.5312 H       
  58 H58           -1.2956     7.9833    -5.2304 H       
  59 H59            0.0019     9.0986    -4.6193 H       
  60 H60            1.7001     7.3319    -4.7401 H       
  61 H61            0.5984     6.6337    -6.0049 H       
  62 H62            7.0771     5.0245     0.7200 H       
  63 H63            8.2110     7.0099    -0.2403 H       
  64 H64            4.8056     4.7236    -2.9085 H       
  65 H65            7.4408     7.4729    -4.6349 H       
  66 H66            6.1424     8.4674    -3.9305 H       
  67 H67            9.5525     7.6622    -1.6406 H       
  68 H68            9.4435     7.0000    -3.2901 H       
  69 H69            9.6399     9.9527    -2.5381 H       
  70 H70           10.9245     8.9662    -3.2783 H       
  71 H71            7.5617     9.7603    -5.5364 H       
  72 H72            7.6318    10.4268    -3.8866 H       
@<TRIPOS>BOND
   1    1    2 ar
   2    1    6 ar
   3    1   42 1
   4    2    3 ar
   5    2   43 1
   6    3    4 ar
   7    4    5 ar
   8    4    7 1
   9    5    6 ar
  10    5   11 1
  11    6   44 1
  12    7    8 1
  13    7   45 1
  14    8    9 ar
  15    8   12 ar
  16    9   10 1
  17    9   15 ar
  18   10   11 1
  19   10   16 2
  20   11   18 1
  21   12   13 ar
  22   12   46 1
  23   13   14 ar
  24   13   47 1
  25   14   15 ar
  26   14   48 1
  27   15   49 1
  28   16   17 1
  29   17   18 2
  30   17   25 1
  31   18   19 1
  32   19   20 ar
  33   19   21 ar
  34   20   24 ar
  35   20   50 1
  36   21   22 ar
  37   21   51 1
  38   22   23 ar
  39   22   52 1
  40   23   24 ar
  41   23   26 1
  42   24   53 1
  43   25   31 ar
  44   25   35 ar
  45   26   27 1
  46   26   28 1
  47   26   30 1
  48   27   54 1
  49   27   55 1
  50   28   29 1
  51   28   56 1
  52   28   57 1
  53   29   30 1
  54   29   58 1
  55   29   59 1
  56   30   60 1
  57   30   61 1
  58   31   32 ar
  59   31   62 1
  60   32   33 ar
  61   32   63 1
  62   33   34 ar
  63   33   36 1
  64   34   35 ar
  65   35   64 1
  66   36   37 1
  67   36   38 1
  68   37   41 1
  69   37   65 1
  70   37   66 1
  71   38   39 1
  72   38   67 1
  73   38   68 1
  74   39   40 1
  75   39   69 1
  76   39   70 1
  77   40   41 1
  78   41   71 1
  79   41   72 1

#	End of record

