#	Name: ASD04012005
#	Creating user name:	WinNT
#	Creation time:	15. 06. 2019 20:48

#	Modifying user name:	WinNT
#	Modification time:	15. 06. 2019 20:48

#	Program:	/corina/corina34_cracker 3.40 0067  02.08.2006

@<TRIPOS>MOLECULE
ASD04012005
  34   36    0    0    0
SMALL
NO_CHARGES


@<TRIPOS>ATOM
   1 N1            -0.6630     1.1715    -0.3644 N.pl3   
   2 C2             0.6409     1.3101     0.0209 C.2     
   3 N3             1.1520     2.5254     0.2499 N.2     
   4 C4             0.4164     3.6076     0.1104 C.2     
   5 C5            -0.9180     3.5082    -0.2811 C.2     
   6 C6            -1.4518     2.2718    -0.5232 C.2     
   7 N7            -0.8854    -0.2026    -0.5208 N.2     
   8 C8             0.2415    -0.8090    -0.2365 C.2     
   9 N9             1.1617     0.0901     0.0892 N.2     
  10 O10           -2.7428     2.1431    -0.9048 O.3     
  11 C11           -1.7606     4.7474    -0.4404 C.3     
  12 C12           -2.3734     5.1123     0.8872 C.ar    
  13 C13            1.0200     4.9627     0.3760 C.3     
  14 C14           -1.7702     6.0633     1.6888 C.ar    
  15 C15           -2.3323     6.3980     2.9066 C.ar    
  16 C16           -3.4978     5.7819     3.3226 C.ar    
  17 C17           -4.1014     4.8314     2.5205 C.ar    
  18 C18           -3.5417     4.5000     1.3008 C.ar    
  19 C19            0.4587    -2.2998    -0.2732 C.3     
  20 O20            0.8996    -2.6850    -1.5768 O.3     
  21 H21           -3.0206     1.2283    -1.0501 H       
  22 H22           -1.1357     5.5692    -0.7902 H       
  23 H23           -2.5517     4.5581    -1.1659 H       
  24 H24            2.0858     4.8527     0.5765 H       
  25 H25            0.8783     5.6008    -0.4963 H       
  26 H26            0.5325     5.4146     1.2398 H       
  27 H27           -0.8597     6.5447     1.3639 H       
  28 H28           -1.8607     7.1405     3.5332 H       
  29 H29           -3.9365     6.0428     4.2743 H       
  30 H30           -5.0118     4.3498     2.8457 H       
  31 H31           -4.0133     3.7574     0.6742 H       
  32 H32            1.2148    -2.5750     0.4621 H       
  33 H33           -0.4765    -2.8091    -0.0407 H       
  34 H34            1.0596    -3.6338    -1.6734 H       
@<TRIPOS>BOND
   1    1    7 1
   2    1    2 1
   3    1    6 1
   4    2    3 1
   5    2    9 2
   6    3    4 2
   7    4    5 1
   8    4   13 1
   9    5    6 2
  10    5   11 1
  11    6   10 1
  12    7    8 2
  13    8    9 1
  14    8   19 1
  15   10   21 1
  16   11   12 1
  17   11   22 1
  18   11   23 1
  19   12   14 ar
  20   12   18 ar
  21   13   24 1
  22   13   25 1
  23   13   26 1
  24   14   15 ar
  25   14   27 1
  26   15   16 ar
  27   15   28 1
  28   16   17 ar
  29   16   29 1
  30   17   18 ar
  31   17   30 1
  32   18   31 1
  33   19   20 1
  34   19   32 1
  35   19   33 1
  36   20   34 1

#	End of record

