#	Name: ASD02560187
#	Creating user name:	WinNT
#	Creation time:	15. 06. 2019 20:24

#	Modifying user name:	WinNT
#	Modification time:	15. 06. 2019 20:24

#	Program:	/corina/corina34_cracker 3.40 0067  02.08.2006

@<TRIPOS>MOLECULE
ASD02560187
  64   66    0    0    0
SMALL
NO_CHARGES


@<TRIPOS>ATOM
   1 C1            -4.5876     4.6096    -0.1224 C.ar    
   2 C2            -5.7923     3.9392     0.1286 C.ar    
   3 C3            -6.9905     4.5467    -0.1877 C.ar    
   4 C4            -7.0057     5.8215    -0.7549 C.ar    
   5 C5            -5.8299     6.4898    -1.0065 C.ar    
   6 C6            -3.2281     4.2731     0.0861 C.2     
   7 C7            -4.6100     5.8960    -0.6945 C.ar    
   8 N8            -3.3030     6.3091    -0.8272 N.pl3   
   9 C9            -2.4719     5.3143    -0.3505 C.2     
  10 N10           -8.1960     3.8807     0.0612 N.am    
  11 S11           -9.0434     3.2064    -1.1916 S.o2    
  12 O12          -10.1795     2.6204    -0.5709 O.2     
  13 O13           -9.1852     4.2651    -2.1288 O.2     
  14 C14           -7.9412     1.9220    -1.8442 C.3     
  15 C15           -1.0031     5.3746    -0.3159 C.2     
  16 N16           -0.3788     6.5675    -0.2562 N.am    
  17 O17           -0.3514     4.3476    -0.3410 O.2     
  18 N18            0.9246     8.7727     0.8409 N.3     
  19 C19            1.6317     7.4825     0.7754 C.3     
  20 C20            1.0822     6.6629    -0.3970 C.3     
  21 C21           -1.1410     7.8092    -0.0548 C.3     
  22 C22           -0.5084     8.5860     1.1048 C.3     
  23 C23            1.5043     9.6119     1.7893 C.ar    
  24 C24            2.1151    10.8011     1.3819 C.ar    
  25 C25            2.6878    11.6257     2.3406 C.ar    
  26 C26            2.6297    11.2324     3.6713 C.ar    
  27 C27            2.0100    10.0443     3.9996 C.ar    
  28 N28            1.4678     9.2801     3.0688 N.ar    
  29 N29            2.1492    11.1551     0.0277 N.pl3   
  30 C30            2.8932    12.3422    -0.4006 C.3     
  31 C31            3.3053    12.1848    -1.8656 C.3     
  32 C32            2.0078    13.5809    -0.2501 C.3     
  33 H33           -5.7832     2.9522     0.5668 H       
  34 H34           -7.9490     6.2875    -0.9989 H       
  35 H35           -5.8532     7.4758    -1.4465 H       
  36 H36           -2.8583     3.3537     0.5155 H       
  37 H37           -3.0137     7.1594    -1.1937 H       
  38 H38           -8.5352     3.8142     0.9675 H       
  39 H39           -7.7954     1.1501    -1.0885 H       
  40 H40           -8.3868     1.4789    -2.7348 H       
  41 H41           -6.9791     2.3651    -2.1012 H       
  42 H42            2.6979     7.6589     0.6332 H       
  43 H43            1.4741     6.9338     1.7039 H       
  44 H44            1.5175     5.6637    -0.3811 H       
  45 H45            1.3280     7.1576    -1.3366 H       
  46 H46           -1.1050     8.4121    -0.9622 H       
  47 H47           -2.1760     7.5683     0.1873 H       
  48 H48           -0.6377     8.0227     2.0289 H       
  49 H49           -0.9903     9.5589     1.2009 H       
  50 H50            3.1677    12.5511     2.0582 H       
  51 H51            3.0658    11.8507     4.4419 H       
  52 H52            1.9640     9.7365     5.0338 H       
  53 H53            1.6801    10.6144    -0.6269 H       
  54 H54            3.7840    12.4552     0.2173 H       
  55 H55            2.4144    12.0718    -2.4835 H       
  56 H56            3.8589    13.0680    -2.1843 H       
  57 H57            3.9361    11.3024    -1.9728 H       
  58 H58            1.7142    13.6931     0.7936 H       
  59 H59            2.5613    14.4641    -0.5688 H       
  60 H60            1.1169    13.4679    -0.8680 H       
  61 O61            9.7941    21.3383    10.0419 O.3     
  62 O62            9.8140    19.8694    10.0338 O.3     
  63 H63           10.6720    21.7436    10.0357 H       
  64 H64            8.9361    19.4641    10.0400 H       
@<TRIPOS>BOND
   1    1    2 ar
   2    1    7 ar
   3    1    6 1
   4    2    3 ar
   5    2   33 1
   6    3    4 ar
   7    3   10 1
   8    4    5 ar
   9    4   34 1
  10    5    7 ar
  11    5   35 1
  12    6    9 2
  13    6   36 1
  14    7    8 1
  15    8    9 1
  16    8   37 1
  17    9   15 1
  18   10   11 am
  19   10   38 1
  20   11   12 2
  21   11   13 2
  22   11   14 1
  23   14   39 1
  24   14   40 1
  25   14   41 1
  26   15   16 am
  27   15   17 2
  28   16   21 1
  29   16   20 1
  30   18   19 1
  31   18   22 1
  32   18   23 1
  33   19   20 1
  34   19   42 1
  35   19   43 1
  36   20   44 1
  37   20   45 1
  38   21   22 1
  39   21   46 1
  40   21   47 1
  41   22   48 1
  42   22   49 1
  43   23   24 ar
  44   23   28 ar
  45   24   25 ar
  46   24   29 1
  47   25   26 ar
  48   25   50 1
  49   26   27 ar
  50   26   51 1
  51   27   28 ar
  52   27   52 1
  53   29   30 1
  54   29   53 1
  55   30   31 1
  56   30   32 1
  57   30   54 1
  58   31   55 1
  59   31   56 1
  60   31   57 1
  61   32   58 1
  62   32   59 1
  63   32   60 1
  64   61   62 1
  65   61   63 1
  66   62   64 1

#	End of record

