#	Name: ASD08710116
#	Creating user name:	WinNT
#	Creation time:	15. 06. 2019 21:19

#	Modifying user name:	WinNT
#	Modification time:	15. 06. 2019 21:19

#	Program:	/corina/corina34_cracker 3.40 0067  02.08.2006

@<TRIPOS>MOLECULE
ASD08710116
  49   51    0    0    0
SMALL
NO_CHARGES


@<TRIPOS>ATOM
   1 N1            -0.0969     1.7259    -0.5982 N.am    
   2 C2            -0.0702     0.2675    -0.7778 C.3     
   3 C3            -0.3849    -0.0516    -2.2445 C.3     
   4 N4             0.4697     0.7831    -3.1005 N.am    
   5 C5             0.4431     2.2415    -2.9210 C.3     
   6 C6             0.7578     2.5606    -1.4542 C.3     
   7 C7            -0.8949     2.2882     0.3309 C.2     
   8 O8            -1.6791     1.6004     0.9552 O.2     
   9 C9             0.4154     4.3968     0.5913 C.ar    
  10 C10           -0.8167     3.7414     0.5910 C.ar    
  11 C11           -1.9772     4.4833     0.8405 C.ar    
  12 C12           -1.8495     5.8408     1.0777 C.ar    
  13 C13           -0.5916     6.4156     1.0606 C.ar    
  14 N14            0.4852     5.6912     0.8224 N.ar    
  15 C15           -0.4485     7.8935     1.3184 C.3     
  16 C16           -1.1214    -0.3804     0.1256 C.3     
  17 S17            1.4457     0.0927    -4.2464 S.o2    
  18 O18            2.3802     1.0913    -4.6321 O.2     
  19 O19            1.8306    -1.1757    -3.7342 O.2     
  20 C20            0.4447    -0.2250    -5.6612 C.ar    
  21 C21           -0.0705     0.8286    -6.3950 C.ar    
  22 C22           -0.8562     0.5786    -7.5054 C.ar    
  23 C23           -1.1263    -0.7239    -7.8816 C.ar    
  24 C24           -0.6117    -1.7762    -7.1480 C.ar    
  25 C25            0.1788    -1.5268    -6.0414 C.ar    
  26 C26           -1.9824    -0.9964    -9.0916 C.3     
  27 F27           -1.1702    -1.0842   -10.2273 F       
  28 F28           -2.6690    -2.2024    -8.9149 F       
  29 F29           -2.9027     0.0445    -9.2557 F       
  30 Br30           0.2989     2.6101    -5.8794 Br      
  31 H31            0.9188    -0.1143    -0.5244 H       
  32 H32           -0.1828    -1.1044    -2.4414 H       
  33 H33           -1.4329     0.1669    -2.4497 H       
  34 H34            1.1920     2.7031    -3.5646 H       
  35 H35           -0.5460     2.6233    -3.1743 H       
  36 H36            0.5557     3.6135    -1.2574 H       
  37 H37            1.8058     2.3421    -1.2490 H       
  38 H38            1.3198     3.8368     0.4047 H       
  39 H39           -2.9473     4.0086     0.8475 H       
  40 H40           -2.7229     6.4451     1.2736 H       
  41 H41           -0.3159     8.0649     2.3866 H       
  42 H42            0.4188     8.2741     0.7789 H       
  43 H43           -1.3450     8.4105     0.9760 H       
  44 H44           -2.1075     0.0093    -0.1270 H       
  45 H45           -1.1094    -1.4606    -0.0197 H       
  46 H46           -0.8962    -0.1514     1.1673 H       
  47 H47           -1.2589     1.4009    -8.0783 H       
  48 H48           -0.8236    -2.7937    -7.4419 H       
  49 H49            0.5846    -2.3494    -5.4713 H       
@<TRIPOS>BOND
   1    1    2 1
   2    1    6 1
   3    1    7 am
   4    2    3 1
   5    2   16 1
   6    2   31 1
   7    3    4 1
   8    3   32 1
   9    3   33 1
  10    4    5 1
  11    4   17 am
  12    5    6 1
  13    5   34 1
  14    5   35 1
  15    6   36 1
  16    6   37 1
  17    7    8 2
  18    7   10 1
  19    9   10 ar
  20    9   14 ar
  21    9   38 1
  22   10   11 ar
  23   11   12 ar
  24   11   39 1
  25   12   13 ar
  26   12   40 1
  27   13   14 ar
  28   13   15 1
  29   15   41 1
  30   15   42 1
  31   15   43 1
  32   16   44 1
  33   16   45 1
  34   16   46 1
  35   17   18 2
  36   17   19 2
  37   17   20 1
  38   20   21 ar
  39   20   25 ar
  40   21   22 ar
  41   21   30 1
  42   22   23 ar
  43   22   47 1
  44   23   24 ar
  45   23   26 1
  46   24   25 ar
  47   24   48 1
  48   25   49 1
  49   26   27 1
  50   26   28 1
  51   26   29 1

#	End of record

