#	Name: ASD01913493
#	Creating user name:	WinNT
#	Creation time:	15. 06. 2019 20:01

#	Modifying user name:	WinNT
#	Modification time:	15. 06. 2019 20:01

#	Program:	/corina/corina34_cracker 3.40 0067  02.08.2006

@<TRIPOS>MOLECULE
ASD01913493
  34   36    0    0    0
SMALL
NO_CHARGES


@<TRIPOS>ATOM
   1 C1            -0.3712    -0.6922    -2.1193 C.ar    
   2 C2            -0.8240    -0.0301    -0.9827 C.ar    
   3 C3            -0.8059     1.3609    -0.9789 C.ar    
   4 N4            -0.3620     2.0000    -2.0487 N.ar    
   5 C5             0.0589     1.3366    -3.1068 C.ar    
   6 N6             0.0574     0.0194    -3.1488 N.ar    
   7 C7            -1.2499    -2.0817     0.0359 C.ar    
   8 C8            -0.0539    -2.7715     0.1768 C.ar    
   9 N9            -0.0231    -4.0885     0.1246 N.ar    
  10 C10           -1.1147    -4.8029    -0.0612 C.ar    
  11 C11           -2.3510    -4.1867    -0.2110 C.ar    
  12 C12           -2.4249    -2.7980    -0.1619 C.ar    
  13 N13           -3.5052    -4.9517    -0.4088 N.am    
  14 C14           -4.6757    -4.5574     0.1307 C.2     
  15 O15           -1.2729    -0.7243     0.0961 O.3     
  16 C16           -5.8680    -5.4214     0.0199 C.ar    
  17 O17           -4.7498    -3.4902     0.7086 O.2     
  18 C18           -7.0839    -5.0156     0.5784 C.ar    
  19 C19           -8.1964    -5.8302     0.4707 C.ar    
  20 C20           -8.1079    -7.0424    -0.1869 C.ar    
  21 C21           -6.9051    -7.4511    -0.7426 C.ar    
  22 C22           -5.7879    -6.6453    -0.6482 C.ar    
  23 F23           -7.1717    -3.8310     1.2220 F       
  24 F24           -6.8277    -8.6380    -1.3833 F       
  25 H25           -0.3655    -1.7715    -2.1589 H       
  26 H26           -1.1497     1.9110    -0.1155 H       
  27 H27            0.4150     1.8882    -3.9643 H       
  28 H28            0.8633    -2.2224     0.3307 H       
  29 H29           -1.0476    -5.8802    -0.0979 H       
  30 H30           -3.3711    -2.2896    -0.2745 H       
  31 H31           -3.4633    -5.7659    -0.9343 H       
  32 H32           -9.1363    -5.5185     0.9018 H       
  33 H33           -8.9798    -7.6746    -0.2680 H       
  34 H34           -4.8519    -6.9650    -1.0819 H       
@<TRIPOS>BOND
   1    1    2 ar
   2    1    6 ar
   3    1   25 1
   4    2    3 ar
   5    2   15 1
   6    3    4 ar
   7    3   26 1
   8    4    5 ar
   9    5    6 ar
  10    5   27 1
  11    7    8 ar
  12    7   12 ar
  13    7   15 1
  14    8    9 ar
  15    8   28 1
  16    9   10 ar
  17   10   11 ar
  18   10   29 1
  19   11   12 ar
  20   11   13 1
  21   12   30 1
  22   13   14 am
  23   13   31 1
  24   14   16 1
  25   14   17 2
  26   16   18 ar
  27   16   22 ar
  28   18   19 ar
  29   18   23 1
  30   19   20 ar
  31   19   32 1
  32   20   21 ar
  33   20   33 1
  34   21   22 ar
  35   21   24 1
  36   22   34 1

#	End of record

