#	Name: ASD05430377
#	Creating user name:	WinNT
#	Creation time:	15. 06. 2019 21:00

#	Modifying user name:	WinNT
#	Modification time:	15. 06. 2019 21:00

#	Program:	/corina/corina34_cracker 3.40 0067  02.08.2006

@<TRIPOS>MOLECULE
ASD05430377
  61   65    0    0    0
SMALL
NO_CHARGES


@<TRIPOS>ATOM
   1 C1            -0.2183     0.5615    -0.2331 C.ar    
   2 C2            -0.1905    -0.4686    -1.1726 C.ar    
   3 C3            -1.3197    -0.7532    -1.9298 C.ar    
   4 C4            -2.4726    -0.0190    -1.7562 C.ar    
   5 C5            -2.5080     1.0153    -0.8154 C.ar    
   6 C6            -1.3731     1.2984    -0.0495 C.ar    
   7 C7            -4.9397     1.1978    -0.6994 C.2     
   8 C8            -3.7388     1.8012    -0.6288 C.2     
   9 N9            -7.2147     1.4731     0.1211 N.pl3   
  10 C10           -6.1862     1.9829    -0.6703 C.2     
  11 O11            0.8887     0.8372     0.5063 O.3     
  12 C12            0.7891     1.9058     1.4499 C.3     
  13 C13            1.0777    -2.5856    -1.3665 C.2     
  14 N14            0.9797    -1.2182    -1.3536 N.pl3   
  15 C15            2.3758    -2.8817    -1.5687 C.2     
  16 N16            3.0559    -1.7307    -1.6770 N.2     
  17 C17            2.2308    -0.7273    -1.5499 C.2     
  18 C18            2.9629    -4.2668    -1.6574 C.3     
  19 C19           -7.0595     0.1237     0.6631 C.3     
  20 C20           -6.4413    -0.7797    -0.4111 C.3     
  21 C21           -5.0498    -0.3042    -0.8171 C.3     
  22 C22           -8.4005     2.2902     0.3657 C.3     
  23 C23           -8.7150     3.0789    -0.9105 C.3     
  24 O24           -7.5590     3.7873    -1.3457 O.3     
  25 N25           -6.3443     3.0718    -1.3461 N.2     
  26 C26           -9.5667     1.4013     0.7135 C.ar    
  27 C27           -9.9059     1.1934     2.0374 C.ar    
  28 C28          -10.9754     0.3788     2.3576 C.ar    
  29 C29          -11.7072    -0.2292     1.3517 C.ar    
  30 C30          -11.3665    -0.0203     0.0260 C.ar    
  31 C31          -10.2999     0.7989    -0.2919 C.ar    
  32 F32          -12.7527    -1.0261     1.6635 F       
  33 C33           -8.1294     3.2602     1.5174 C.3     
  34 O34           -9.2920     4.0570     1.7527 O.3     
  35 H35           -1.2937    -1.5516    -2.6566 H       
  36 H36           -3.3489    -0.2420    -2.3468 H       
  37 H37           -1.3963     2.0959     0.6783 H       
  38 H38           -3.6780     2.8620    -0.4353 H       
  39 H39            0.5483     2.8312     0.9268 H       
  40 H40            0.0034     1.6813     2.1714 H       
  41 H41            1.7394     2.0198     1.9714 H       
  42 H42            0.2698    -3.2901    -1.2350 H       
  43 H43            2.4982     0.3182    -1.5939 H       
  44 H44            2.9457    -4.6029    -2.6942 H       
  45 H45            3.9918    -4.2490    -1.2982 H       
  46 H46            2.3757    -4.9503    -1.0441 H       
  47 H47           -6.4064     0.1543     1.5352 H       
  48 H48           -8.0352    -0.2678     0.9510 H       
  49 H49           -6.3714    -1.7959    -0.0233 H       
  50 H50           -7.0867    -0.7798    -1.2895 H       
  51 H51           -4.8574    -0.5980    -1.8489 H       
  52 H52           -4.3082    -0.7700    -0.1681 H       
  53 H53           -9.0319     2.3891    -1.6928 H       
  54 H54           -9.5184     3.7874    -0.7088 H       
  55 H55           -9.3347     1.6676     2.8219 H       
  56 H56          -11.2401     0.2163     3.3920 H       
  57 H57          -11.9366    -0.4941    -0.7594 H       
  58 H58          -10.0339     0.9620    -1.3258 H       
  59 H59           -7.8871     2.6961     2.4181 H       
  60 H60           -7.2918     3.9075     1.2578 H       
  61 H61           -9.1919     4.6962     2.4714 H       
@<TRIPOS>BOND
   1    1    2 ar
   2    1   11 1
   3    1    6 ar
   4    2    3 ar
   5    2   14 1
   6    3    4 ar
   7    3   35 1
   8    4    5 ar
   9    4   36 1
  10    5    6 ar
  11    5    8 1
  12    6   37 1
  13    7    8 2
  14    7   21 1
  15    7   10 1
  16    8   38 1
  17    9   10 1
  18    9   22 1
  19    9   19 1
  20   10   25 2
  21   11   12 1
  22   12   39 1
  23   12   40 1
  24   12   41 1
  25   13   14 1
  26   13   15 2
  27   13   42 1
  28   14   17 1
  29   15   16 1
  30   15   18 1
  31   16   17 2
  32   17   43 1
  33   18   44 1
  34   18   45 1
  35   18   46 1
  36   19   20 1
  37   19   47 1
  38   19   48 1
  39   20   21 1
  40   20   49 1
  41   20   50 1
  42   21   51 1
  43   21   52 1
  44   22   23 1
  45   22   26 1
  46   22   33 1
  47   23   24 1
  48   23   53 1
  49   23   54 1
  50   24   25 1
  51   26   27 ar
  52   26   31 ar
  53   27   28 ar
  54   27   55 1
  55   28   29 ar
  56   28   56 1
  57   29   30 ar
  58   29   32 1
  59   30   31 ar
  60   30   57 1
  61   31   58 1
  62   33   34 1
  63   33   59 1
  64   33   60 1
  65   34   61 1

#	End of record

