#	Name: ASD03430897
#	Creating user name:	WinNT
#	Creation time:	15. 06. 2019 20:41

#	Modifying user name:	WinNT
#	Modification time:	15. 06. 2019 20:41

#	Program:	/corina/corina34_cracker 3.40 0067  02.08.2006

@<TRIPOS>MOLECULE
ASD03430897
  37   41    0    0    0
SMALL
NO_CHARGES


@<TRIPOS>ATOM
   1 O1            -0.0175     1.4360     0.0099 O.3     
   2 C2             0.0021    -0.0041     0.0020 C.3     
   3 C3             1.3460    -0.3164    -0.6698 C.3     
   4 C4             2.1589     0.9231    -0.4077 C.ar    
   5 C5             1.2625     1.9064     0.0002 C.ar    
   6 C6             1.7513     3.1672     0.3244 C.ar    
   7 C7             3.1029     3.4456     0.2349 C.ar    
   8 C8             3.9863     2.4630    -0.1769 C.ar    
   9 C9             3.5043     1.1990    -0.4998 C.ar    
  10 N10            2.1631    -2.4030    -1.1204 N.am    
  11 C11            1.9853    -1.5475    -0.0941 C.2     
  12 C12            1.1905    -0.5970    -2.1348 C.ar    
  13 C13            0.6793     0.1217    -3.1924 C.ar    
  14 C14            0.6766    -0.4233    -4.4640 C.ar    
  15 C15            1.1887    -1.6914    -4.6704 C.ar    
  16 C16            1.7016    -2.4155    -3.6145 C.ar    
  17 C17            1.7074    -1.8752    -2.3309 C.ar    
  18 O18            2.2831    -1.7351     1.0666 O.2     
  19 C19            3.5821     4.8316     0.5877 C.3     
  20 O20            5.3225     2.6922    -0.2709 O.3     
  21 C21            5.7668     4.0493    -0.2995 C.3     
  22 C22            5.0895     4.8041     0.8515 C.3     
  23 H23           -0.0229    -0.3969     1.0185 H       
  24 H24           -0.8258    -0.3989    -0.5869 H       
  25 H25            1.0677     3.9376     0.6493 H       
  26 H26            4.1894     0.4298    -0.8245 H       
  27 H27            2.5612    -3.2828    -1.0291 H       
  28 H28            0.2798     1.1117    -3.0290 H       
  29 H29            0.2753     0.1399    -5.2935 H       
  30 H30            1.1866    -2.1168    -5.6632 H       
  31 H31            2.0997    -3.4051    -3.7836 H       
  32 H32            3.3709     5.5098    -0.2390 H       
  33 H33            3.0637     5.1780     1.4817 H       
  34 H34            6.8491     4.0840    -0.1747 H       
  35 H35            5.4915     4.5058    -1.2502 H       
  36 H36            5.4729     5.8234     0.8981 H       
  37 H37            5.2884     4.2929     1.7934 H       
@<TRIPOS>BOND
   1    1    2 1
   2    1    5 1
   3    2    3 1
   4    2   23 1
   5    2   24 1
   6    3    4 1
   7    3   11 1
   8    3   12 1
   9    4    5 ar
  10    4    9 ar
  11    5    6 ar
  12    6    7 ar
  13    6   25 1
  14    7    8 ar
  15    7   19 1
  16    8    9 ar
  17    8   20 1
  18    9   26 1
  19   10   11 am
  20   10   17 1
  21   10   27 1
  22   11   18 2
  23   12   13 ar
  24   12   17 ar
  25   13   14 ar
  26   13   28 1
  27   14   15 ar
  28   14   29 1
  29   15   16 ar
  30   15   30 1
  31   16   17 ar
  32   16   31 1
  33   19   22 1
  34   19   32 1
  35   19   33 1
  36   20   21 1
  37   21   22 1
  38   21   34 1
  39   21   35 1
  40   22   36 1
  41   22   37 1

#	End of record

