#	Name: ASD01912304
#	Creating user name:	WinNT
#	Creation time:	15. 06. 2019 19:59

#	Modifying user name:	WinNT
#	Modification time:	15. 06. 2019 19:59

#	Program:	/corina/corina34_cracker 3.40 0067  02.08.2006

@<TRIPOS>MOLECULE
ASD01912304
  48   50    0    0    0
SMALL
NO_CHARGES


@<TRIPOS>ATOM
   1 C1            -0.0169     1.3937     0.0097 C.ar    
   2 C2             0.0021    -0.0041     0.0020 C.ar    
   3 C3             1.2200    -0.6586    -0.0132 C.ar    
   4 C4             2.3820     0.1017    -0.0202 C.ar    
   5 C5             2.2917     1.4816    -0.0120 C.ar    
   6 N6             1.1202     2.0835     0.0026 N.ar    
   7 C7             3.5515     2.3086    -0.0196 C.3     
   8 C8            -1.2694     2.0877     0.0194 C.1     
   9 C9            -2.2963     2.6567     0.0274 C.1     
  10 C10           -3.5488     3.3508     0.0371 C.2     
  11 N11           -3.6111     7.1939     1.1690 N.am    
  12 C12           -4.8645     6.4304     1.2214 C.3     
  13 C13           -4.8852     5.4347     0.0547 C.3     
  14 C14           -3.5723     4.6828     0.0444 C.2     
  15 C15           -2.2866     5.4804     0.0422 C.3     
  16 C16           -2.3311     6.4750     1.2091 C.3     
  17 S17           -3.6407     8.8460     1.0592 S.o2    
  18 O18           -2.3991     9.2324     0.4863 O.2     
  19 O19           -4.8981     9.1880     0.4924 O.2     
  20 C20           -2.9469    10.2223     4.6042 C.2     
  21 N21           -2.5661     9.7805     3.4368 N.2     
  22 C22           -3.6480     9.4780     2.7039 C.2     
  23 C23           -4.7407     9.7425     3.4453 C.2     
  24 N24           -4.2965    10.2147     4.6508 N.pl3   
  25 C25           -2.0321    10.6622     5.7180 C.3     
  26 C26           -5.1297    10.6336     5.7807 C.3     
  27 H27           -0.9211    -0.5645     0.0082 H       
  28 H28            1.2665    -1.7376    -0.0191 H       
  29 H29            3.3483    -0.3807    -0.0317 H       
  30 H30            3.8454     2.5135    -1.0490 H       
  31 H31            3.3719     3.2492     0.5010 H       
  32 H32            4.3485     1.7612     0.4837 H       
  33 H33           -4.4745     2.7944     0.0384 H       
  34 H34           -4.9231     5.8885     2.1653 H       
  35 H35           -5.7111     7.1115     1.1355 H       
  36 H36           -5.7089     4.7329     0.1857 H       
  37 H37           -5.0071     5.9731    -0.8852 H       
  38 H38           -1.4375     4.8082     0.1651 H       
  39 H39           -2.1928     6.0227    -0.8988 H       
  40 H40           -1.5099     7.1856     1.1152 H       
  41 H41           -2.2443     5.9358     2.1524 H       
  42 H42           -5.7696     9.6082     3.1460 H       
  43 H43           -1.8255    11.7278     5.6192 H       
  44 H44           -2.5116    10.4726     6.6784 H       
  45 H45           -1.0973    10.1042     5.6622 H       
  46 H46           -5.3545    11.6965     5.6920 H       
  47 H47           -6.0591    10.0641     5.7776 H       
  48 H48           -4.5953    10.4518     6.7132 H       
@<TRIPOS>BOND
   1    1    2 ar
   2    1    6 ar
   3    1    8 1
   4    2    3 ar
   5    2   27 1
   6    3    4 ar
   7    3   28 1
   8    4    5 ar
   9    4   29 1
  10    5    6 ar
  11    5    7 1
  12    7   30 1
  13    7   31 1
  14    7   32 1
  15    8    9 3
  16    9   10 1
  17   10   14 2
  18   10   33 1
  19   11   12 1
  20   11   16 1
  21   11   17 am
  22   12   13 1
  23   12   34 1
  24   12   35 1
  25   13   14 1
  26   13   36 1
  27   13   37 1
  28   14   15 1
  29   15   16 1
  30   15   38 1
  31   15   39 1
  32   16   40 1
  33   16   41 1
  34   17   18 2
  35   17   19 2
  36   17   22 1
  37   20   21 2
  38   20   24 1
  39   20   25 1
  40   21   22 1
  41   22   23 2
  42   23   24 1
  43   23   42 1
  44   24   26 1
  45   25   43 1
  46   25   44 1
  47   25   45 1
  48   26   46 1
  49   26   47 1
  50   26   48 1

#	End of record

