#	Name: ASD02500167
#	Creating user name:	WinNT
#	Creation time:	15. 06. 2019 20:22

#	Modifying user name:	WinNT
#	Modification time:	15. 06. 2019 20:22

#	Program:	/corina/corina34_cracker 3.40 0067  02.08.2006

@<TRIPOS>MOLECULE
ASD02500167
  57   60    0    0    0
SMALL
NO_CHARGES


@<TRIPOS>ATOM
   1 N1             0.1972     0.0825     0.5133 N.am    
   2 C2             0.1874    -1.1410    -0.3009 C.3     
   3 C3             0.7681    -0.8149    -1.6824 C.3     
   4 N4             2.0366    -0.0953    -1.5007 N.am    
   5 C5             2.0464     1.1282    -0.6865 C.3     
   6 C6             1.4656     0.8022     0.6950 C.3     
   7 C7            -0.9378     0.5394     1.0786 C.2     
   8 O8            -1.9816    -0.0614     0.9171 O.2     
   9 O9            -0.9151     1.6616     1.8222 O.3     
  10 C10            3.1706    -0.5494    -2.0701 C.2     
  11 C11            4.4096     0.2466    -1.9834 C.ar    
  12 C12            5.6302    -0.3835    -1.7240 C.ar    
  13 C13            6.7842     0.3618    -1.6436 C.ar    
  14 C14            6.7370     1.7419    -1.8203 C.ar    
  15 C15            5.5229     2.3724    -2.0783 C.ar    
  16 C16            4.3663     1.6319    -2.1660 C.ar    
  17 O17            3.1724    -1.6153    -2.6554 O.2     
  18 S18            8.2324     3.6417    -2.8846 S.o2    
  19 O19            7.0808     4.4706    -2.9622 O.2     
  20 O20            9.5307     4.1405    -2.5930 O.2     
  21 N21            7.9048     2.4922    -1.7385 N.am    
  22 N22           10.2773     1.5997    -3.7047 N.ar    
  23 C23           11.2359     0.7286    -3.9058 C.ar    
  24 C24           11.3693     0.0516    -5.1163 C.ar    
  25 C25           10.4866     0.2890    -6.1310 C.ar    
  26 C26            9.4581     1.2248    -5.9113 C.ar    
  27 C27            8.5142     1.5213    -6.9073 C.ar    
  28 C28            7.5344     2.4330    -6.6559 C.ar    
  29 C29            7.4554     3.0756    -5.4224 C.ar    
  30 C30            8.3543     2.8129    -4.4347 C.ar    
  31 C31            9.3805     1.8783    -4.6562 C.ar    
  32 C32           -2.1746     2.0949     2.4003 C.3     
  33 C33           -1.9521     3.3771     3.2049 C.3     
  34 H34            0.7965    -1.9058     0.1808 H       
  35 H35           -0.8361    -1.4997    -0.4097 H       
  36 H36            0.9474    -1.7394    -2.2313 H       
  37 H37            0.0680    -0.1884    -2.2350 H       
  38 H38            3.0699     1.4870    -0.5777 H       
  39 H39            1.4373     1.8931    -1.1682 H       
  40 H40            1.2863     1.7266     1.2440 H       
  41 H41            2.1658     0.1756     1.2476 H       
  42 H42            5.6674    -1.4541    -1.5865 H       
  43 H43            7.7275    -0.1244    -1.4430 H       
  44 H44            5.4893     3.4433    -2.2142 H       
  45 H45            3.4255     2.1210    -2.3712 H       
  46 H46            8.5276     2.3423    -1.0101 H       
  47 H47           11.9413     0.5307    -3.1123 H       
  48 H48           12.1702    -0.6601    -5.2521 H       
  49 H49           10.5753    -0.2265    -7.0759 H       
  50 H50            8.5650     1.0294    -7.8674 H       
  51 H51            6.8087     2.6604    -7.4227 H       
  52 H52            6.6694     3.7954    -5.2477 H       
  53 H53           -2.8934     2.2861     1.6035 H       
  54 H54           -2.5598     1.3156     3.0578 H       
  55 H55           -1.2333     3.1859     4.0017 H       
  56 H56           -1.5669     4.1564     2.5473 H       
  57 H57           -2.8976     3.7024     3.6388 H       
@<TRIPOS>BOND
   1    1    2 1
   2    1    6 1
   3    1    7 am
   4    2    3 1
   5    2   34 1
   6    2   35 1
   7    3    4 1
   8    3   36 1
   9    3   37 1
  10    4    5 1
  11    4   10 am
  12    5    6 1
  13    5   38 1
  14    5   39 1
  15    6   40 1
  16    6   41 1
  17    7    8 2
  18    7    9 1
  19    9   32 1
  20   10   11 1
  21   10   17 2
  22   11   12 ar
  23   11   16 ar
  24   12   13 ar
  25   12   42 1
  26   13   14 ar
  27   13   43 1
  28   14   15 ar
  29   14   21 1
  30   15   16 ar
  31   15   44 1
  32   16   45 1
  33   18   19 2
  34   18   20 2
  35   18   21 am
  36   18   30 1
  37   21   46 1
  38   22   23 ar
  39   22   31 ar
  40   23   24 ar
  41   23   47 1
  42   24   25 ar
  43   24   48 1
  44   25   26 ar
  45   25   49 1
  46   26   27 ar
  47   26   31 ar
  48   27   28 ar
  49   27   50 1
  50   28   29 ar
  51   28   51 1
  52   29   30 ar
  53   29   52 1
  54   30   31 ar
  55   32   33 1
  56   32   53 1
  57   32   54 1
  58   33   55 1
  59   33   56 1
  60   33   57 1

#	End of record

