#	Name: ASD01813707
#	Creating user name:	WinNT
#	Creation time:	15. 06. 2019 19:30

#	Modifying user name:	WinNT
#	Modification time:	15. 06. 2019 19:30

#	Program:	/corina/corina34_cracker 3.40 0067  02.08.2006

@<TRIPOS>MOLECULE
ASD01813707
  45   48    0    0    0
SMALL
NO_CHARGES


@<TRIPOS>ATOM
   1 C1            -0.0168     1.3834    -0.0447 C.ar    
   2 C2             0.0020    -0.0038    -0.0517 C.ar    
   3 C3             1.1976    -0.6920    -0.0490 C.ar    
   4 C4             2.4035     0.0084    -0.0389 C.ar    
   5 C5             2.3796     1.4130    -0.0318 C.ar    
   6 C6             1.1627     2.0947    -0.0347 C.ar    
   7 N7             3.6056    -0.6668    -0.0350 N.pl3   
   8 C8             4.7891    -0.0410    -0.0241 C.2     
   9 C9             4.8932     1.3356    -0.0159 C.2     
  10 C10            3.6619     2.1417    -0.0212 C.2     
  11 O11            3.7002     3.3596    -0.0147 O.2     
  12 C12            6.2116     1.9851    -0.0029 C.2     
  13 O13            6.3002     3.3303     0.0050 O.3     
  14 O14            7.2221     1.3094     0.0006 O.2     
  15 C15            3.5871    -2.1316    -0.0427 C.3     
  16 C16            3.4445    -2.6248    -1.4595 C.ar    
  17 N17            4.5320    -2.8477    -2.1707 N.ar    
  18 C18            4.4521    -3.2806    -3.4172 C.ar    
  19 C19            3.1913    -3.5010    -3.9771 C.ar    
  20 C20            2.0663    -3.2517    -3.1873 C.ar    
  21 N21            2.2364    -2.8249    -1.9477 N.ar    
  22 F22            1.2003    -2.0430    -0.0555 F       
  23 C23            3.0509    -3.9862    -5.3725 C.ar    
  24 C24            1.7854    -4.2004    -5.9142 C.ar    
  25 C25            1.6607    -4.6514    -7.2129 C.ar    
  26 C26            2.7890    -4.8904    -7.9759 C.ar    
  27 C27            4.0482    -4.6798    -7.4429 C.ar    
  28 C28            4.1844    -4.2237    -6.1476 C.ar    
  29 C29            0.2924    -4.8840    -7.8001 C.3     
  30 H30           -0.9608     1.9081    -0.0515 H       
  31 H31           -0.9293    -0.5507    -0.0592 H       
  32 H32            1.1454     3.1745    -0.0295 H       
  33 H33            5.6925    -0.6328    -0.0212 H       
  34 H34            7.1887     3.7117     0.0134 H       
  35 H35            4.5175    -2.5090     0.3815 H       
  36 H36            2.7459    -2.4875     0.5522 H       
  37 H37            5.3474    -3.4607    -3.9937 H       
  38 H38            1.0733    -3.4088    -3.5818 H       
  39 H39            0.9036    -4.0144    -5.3190 H       
  40 H40            2.6869    -5.2432    -8.9916 H       
  41 H41            4.9260    -4.8688    -8.0430 H       
  42 H42            5.1678    -4.0595    -5.7325 H       
  43 H43           -0.0588    -3.9689    -8.2769 H       
  44 H44            0.3458    -5.6821    -8.5406 H       
  45 H45           -0.3994    -5.1694    -7.0076 H       
@<TRIPOS>BOND
   1    1    2 ar
   2    1    6 ar
   3    1   30 1
   4    2    3 ar
   5    2   31 1
   6    3    4 ar
   7    3   22 1
   8    4    5 ar
   9    4    7 1
  10    5    6 ar
  11    5   10 1
  12    6   32 1
  13    7    8 1
  14    7   15 1
  15    8    9 2
  16    8   33 1
  17    9   10 1
  18    9   12 1
  19   10   11 2
  20   12   13 1
  21   12   14 2
  22   13   34 1
  23   15   16 1
  24   15   35 1
  25   15   36 1
  26   16   17 ar
  27   16   21 ar
  28   17   18 ar
  29   18   19 ar
  30   18   37 1
  31   19   20 ar
  32   19   23 1
  33   20   21 ar
  34   20   38 1
  35   23   24 ar
  36   23   28 ar
  37   24   25 ar
  38   24   39 1
  39   25   26 ar
  40   25   29 1
  41   26   27 ar
  42   26   40 1
  43   27   28 ar
  44   27   41 1
  45   28   42 1
  46   29   43 1
  47   29   44 1
  48   29   45 1

#	End of record

