#	Name: ASD01148207
#	Creating user name:	WinNT
#	Creation time:	15. 06. 2019 19:02

#	Modifying user name:	WinNT
#	Modification time:	15. 06. 2019 19:02

#	Program:	/corina/corina34_cracker 3.40 0067  02.08.2006

@<TRIPOS>MOLECULE
ASD01148207
  47   49    0    0    0
SMALL
NO_CHARGES


@<TRIPOS>ATOM
   1 C1            -0.0167     1.3779     0.0096 C.ar    
   2 C2             0.0021    -0.0041     0.0020 C.ar    
   3 C3             1.2086    -0.6790    -0.0132 C.ar    
   4 C4             2.3961     0.0283    -0.0212 C.ar    
   5 C5             2.3773     1.4107    -0.0145 C.ar    
   6 C6             1.1711     2.0854     0.0021 C.ar    
   7 C7             3.6720     2.1819    -0.0223 C.3     
   8 O8             4.6970     1.4625    -0.7374 O.3     
   9 C9             3.5436     3.4713    -0.8682 C.3     
  10 C10            4.0476     3.0252    -2.2276 C.2     
  11 N11            4.6725     1.9053    -2.0799 N.2     
  12 C12            3.8564     3.7476    -3.5005 C.ar    
  13 C13            4.3754     3.2223    -4.6867 C.ar    
  14 C14            3.1516     4.9539    -3.5202 C.ar    
  15 C15            2.9733     5.6276    -4.7072 C.ar    
  16 C16            3.4969     5.1049    -5.8925 C.ar    
  17 C17            4.1971     3.8960    -5.8737 C.ar    
  18 C18            3.3051     5.8278    -7.1666 C.2     
  19 O19            2.6919     6.8772    -7.1837 O.2     
  20 N20            3.8101     5.3236    -8.3100 N.am    
  21 C21            4.1227     2.5042     1.4038 C.3     
  22 F22            4.2968     1.3140     2.1181 F       
  23 F23            5.3329     3.2050     1.3633 F       
  24 F24            3.1506     3.2884     2.0341 F       
  25 C25            3.6308     5.9996    -9.5015 C.2     
  26 N26            2.9796     7.1141    -9.5196 N.2     
  27 O27            2.7958     7.8069   -10.7408 O.3     
  28 C28            2.0578     9.0239   -10.6133 C.3     
  29 C29            1.2291    -2.1858    -0.0205 C.3     
  30 F30           -0.0834    -2.6701    -0.0097 F       
  31 F31            1.8834    -2.6378    -1.1715 F       
  32 F32            1.9062    -2.6485     1.1130 F       
  33 H33           -0.9592     1.9051     0.0170 H       
  34 H34           -0.9258    -0.5567     0.0083 H       
  35 H35            3.3386    -0.4989    -0.0324 H       
  36 H36            1.1565     3.1653     0.0077 H       
  37 H37            2.5039     3.7932    -0.9275 H       
  38 H38            4.1727     4.2639    -0.4632 H       
  39 H39            4.9167     2.2879    -4.6722 H       
  40 H40            2.7463     5.3576    -2.6041 H       
  41 H41            2.4285     6.5600    -4.7224 H       
  42 H42            4.6021     3.4923    -6.7899 H       
  43 H43            4.2994     4.4862    -8.2963 H       
  44 H44            4.0355     5.5956   -10.4177 H       
  45 H45            1.0669     8.8078   -10.2139 H       
  46 H46            2.5830     9.6982    -9.9369 H       
  47 H47            1.9604     9.4941   -11.5918 H       
@<TRIPOS>BOND
   1    1    2 ar
   2    1    6 ar
   3    1   33 1
   4    2    3 ar
   5    2   34 1
   6    3    4 ar
   7    3   29 1
   8    4    5 ar
   9    4   35 1
  10    5    6 ar
  11    5    7 1
  12    6   36 1
  13    7    8 1
  14    7    9 1
  15    7   21 1
  16    8   11 1
  17    9   10 1
  18    9   37 1
  19    9   38 1
  20   10   11 2
  21   10   12 1
  22   12   13 ar
  23   12   14 ar
  24   13   17 ar
  25   13   39 1
  26   14   15 ar
  27   14   40 1
  28   15   16 ar
  29   15   41 1
  30   16   17 ar
  31   16   18 1
  32   17   42 1
  33   18   19 2
  34   18   20 am
  35   20   25 1
  36   20   43 1
  37   21   22 1
  38   21   23 1
  39   21   24 1
  40   25   26 2
  41   25   44 1
  42   26   27 1
  43   27   28 1
  44   28   45 1
  45   28   46 1
  46   28   47 1
  47   29   30 1
  48   29   31 1
  49   29   32 1

#	End of record

