#	Name: ASD01151043
#	Creating user name:	WinNT
#	Creation time:	15. 06. 2019 19:05

#	Modifying user name:	WinNT
#	Modification time:	15. 06. 2019 19:05

#	Program:	/corina/corina34_cracker 3.40 0067  02.08.2006

@<TRIPOS>MOLECULE
ASD01151043
  55   57    0    0    0
SMALL
NO_CHARGES


@<TRIPOS>ATOM
   1 O1            -0.1397     1.5591     0.5513 O.2     
   2 C2            -0.3477     2.6269     1.0941 C.2     
   3 C3             0.7720     3.5547     1.3518 C.ar    
   4 C4             0.5362     4.7823     1.9754 C.ar    
   5 C5             1.5836     5.6471     2.2144 C.ar    
   6 C6             2.8703     5.3050     1.8391 C.ar    
   7 C7             3.1182     4.0879     1.2190 C.ar    
   8 C8             2.0723     3.2057     0.9780 C.ar    
   9 F9             2.3099     2.0202     0.3752 F       
  10 N10            4.4225     3.7474     0.8411 N.am    
  11 C11            5.4734     4.2505     1.5185 C.2     
  12 O12            5.2920     5.0535     2.4130 O.2     
  13 C13            6.8467     3.8259     1.1738 C.ar    
  14 C14            7.9374     4.3451     1.8735 C.ar    
  15 C15            9.2164     3.9442     1.5471 C.ar    
  16 C16            9.4194     3.0301     0.5285 C.ar    
  17 C17            8.3428     2.5116    -0.1690 C.ar    
  18 C18            7.0582     2.8997     0.1512 C.ar    
  19 N19           -1.6009     2.9663     1.4558 N.am    
  20 C20           -2.6743     2.1336     1.1235 C.ar    
  21 C21           -3.7412     2.6335     0.3880 C.ar    
  22 C22           -3.7436     4.0743    -0.0537 C.3     
  23 C23           -4.7996     1.8086     0.0616 C.ar    
  24 C24           -4.7980     0.4862     0.4662 C.ar    
  25 C25           -3.7375    -0.0145     1.1990 C.ar    
  26 C26           -2.6731     0.8035     1.5234 C.ar    
  27 C27           -1.5178     0.2571     2.3220 C.3     
  28 C28           -5.9546    -0.4110     0.1082 C.3     
  29 C29           -5.8787    -0.7731    -1.3764 C.3     
  30 F30           -4.7046    -1.4933    -1.6212 F       
  31 F31           -6.9860    -1.5547    -1.7230 F       
  32 F32           -5.8761     0.3975    -2.1424 F       
  33 C33           -5.8888    -1.6878     0.9486 C.3     
  34 F34           -5.8161    -1.3504     2.3044 F       
  35 F35           -7.0354    -2.4561     0.7201 F       
  36 F36           -4.7547    -2.4243     0.5899 F       
  37 F37           -7.1580     0.2547     0.3649 F       
  38 H38           -0.4665     5.0544     2.2701 H       
  39 H39            1.3984     6.5957     2.6963 H       
  40 H40            3.6853     5.9877     2.0289 H       
  41 H41            4.5698     3.1494     0.0917 H       
  42 H42            7.7803     5.0592     2.6683 H       
  43 H43           10.0611     4.3451     2.0875 H       
  44 H44           10.4228     2.7201     0.2764 H       
  45 H45            8.5081     1.7987    -0.9632 H       
  46 H46            6.2186     2.4940    -0.3937 H       
  47 H47           -1.7584     3.7880     1.9465 H       
  48 H48           -3.2684     4.1553    -1.0314 H       
  49 H49           -4.7709     4.4328    -0.1182 H       
  50 H50           -3.1931     4.6768     0.6688 H       
  51 H51           -5.6297     2.1968    -0.5100 H       
  52 H52           -3.7394    -1.0476     1.5138 H       
  53 H53           -0.8295    -0.2632     1.6560 H       
  54 H54           -0.9962     1.0776     2.8147 H       
  55 H55           -1.8921    -0.4386     3.0731 H       
@<TRIPOS>BOND
   1    1    2 2
   2    2    3 1
   3    2   19 am
   4    3    4 ar
   5    3    8 ar
   6    4    5 ar
   7    4   38 1
   8    5    6 ar
   9    5   39 1
  10    6    7 ar
  11    6   40 1
  12    7    8 ar
  13    7   10 1
  14    8    9 1
  15   10   11 am
  16   10   41 1
  17   11   12 2
  18   11   13 1
  19   13   14 ar
  20   13   18 ar
  21   14   15 ar
  22   14   42 1
  23   15   16 ar
  24   15   43 1
  25   16   17 ar
  26   16   44 1
  27   17   18 ar
  28   17   45 1
  29   18   46 1
  30   19   20 1
  31   19   47 1
  32   20   21 ar
  33   20   26 ar
  34   21   22 1
  35   21   23 ar
  36   22   48 1
  37   22   49 1
  38   22   50 1
  39   23   24 ar
  40   23   51 1
  41   24   25 ar
  42   24   28 1
  43   25   26 ar
  44   25   52 1
  45   26   27 1
  46   27   53 1
  47   27   54 1
  48   27   55 1
  49   28   29 1
  50   28   33 1
  51   28   37 1
  52   29   30 1
  53   29   31 1
  54   29   32 1
  55   33   34 1
  56   33   35 1
  57   33   36 1

#	End of record

