#	Name: ASD09740574
#	Creating user name:	WinNT
#	Creation time:	15. 06. 2019 21:23

#	Modifying user name:	WinNT
#	Modification time:	15. 06. 2019 21:23

#	Program:	/corina/corina34_cracker 3.40 0067  02.08.2006

@<TRIPOS>MOLECULE
ASD09740574
  60   64    0    0    0
SMALL
NO_CHARGES


@<TRIPOS>ATOM
   1 N1            -0.0945     1.3694     0.7160 N.2     
   2 C2            -0.1044     0.0822     0.9576 C.2     
   3 C3             1.0398     1.9947     0.8638 C.2     
   4 S4             2.2743     0.8453     1.3714 S.3     
   5 C5             1.0786    -0.4492     1.3361 C.2     
   6 C6             1.2560     3.4391     0.6400 C.ar    
   7 C7             0.1958     4.2479     0.2376 C.ar    
   8 C8             2.5234     3.9952     0.8378 C.ar    
   9 C9             2.7306     5.3420     0.6310 C.ar    
  10 C10            1.6829     6.1562     0.2255 C.ar    
  11 C11            0.4055     5.6099     0.0285 C.ar    
  12 O12            1.8923     7.4813     0.0242 O.3     
  13 C13            3.2384     7.9489     0.1309 C.3     
  14 C14            3.4014     9.2268    -0.6946 C.3     
  15 C15            3.5610     8.2443     1.5971 C.3     
  16 C16           -0.6776     6.4478    -0.3905 C.1     
  17 N17           -1.5368     7.1124    -0.7230 N.1     
  18 C18            1.3269    -1.8689     1.6634 C.ar    
  19 C19            2.3991    -2.5457     1.0748 C.ar    
  20 C20            2.6255    -3.8710     1.3845 C.ar    
  21 C21            1.7904    -4.5252     2.2769 C.ar    
  22 C22            0.7284    -3.8603     2.8615 C.ar    
  23 C23            0.4950    -2.5338     2.5646 C.ar    
  24 C24            3.4388    -2.0649     0.0855 C.3     
  25 C25            4.5769    -3.1050     0.1588 C.3     
  26 C26            3.8340    -4.3752     0.6246 C.3     
  27 N27            4.6920    -5.1719     1.5050 N.am    
  28 C28            4.4884    -6.4989     1.6239 C.2     
  29 N29            5.2778    -7.2319     2.4339 N.am    
  30 O30            3.5925    -7.0347     1.0006 O.2     
  31 C31            5.3748    -8.6476     2.8202 C.3     
  32 C32            5.9921    -8.1869     4.1479 C.3     
  33 C33            6.4254    -6.9691     3.3153 C.3     
  34 O34            5.0355    -7.8941     5.1684 O.3     
  35 H35           -0.9991    -0.5148     0.8611 H       
  36 H36           -0.7849     3.8212     0.0878 H       
  37 H37            3.3430     3.3671     1.1542 H       
  38 H38            3.7121     5.7652     0.7856 H       
  39 H39            3.9193     7.1848    -0.2441 H       
  40 H40            2.7205     9.9909    -0.3196 H       
  41 H41            4.4282     9.5834    -0.6132 H       
  42 H42            3.1716     9.0163    -1.7391 H       
  43 H43            3.4449     7.3340     2.1852 H       
  44 H44            4.5878     8.6010     1.6785 H       
  45 H45            2.8801     9.0084     1.9721 H       
  46 H46            1.9706    -5.5626     2.5172 H       
  47 H47            0.0835    -4.3792     3.5552 H       
  48 H48           -0.3343    -2.0141     3.0213 H       
  49 H49            3.0187    -2.0340    -0.9198 H       
  50 H50            3.8073    -1.0801     0.3728 H       
  51 H51            5.0268    -3.2570    -0.8223 H       
  52 H52            5.3288    -2.8060     0.8891 H       
  53 H53            3.5202    -4.9667    -0.2355 H       
  54 H54            5.4068    -4.7444     2.0023 H       
  55 H55            4.4059    -9.1330     2.9372 H       
  56 H56            6.0618    -9.2212     2.1980 H       
  57 H57            6.8196    -8.8059     4.4947 H       
  58 H58            7.3910    -7.0987     2.8266 H       
  59 H59            6.3486    -6.0250     3.8547 H       
  60 H60            5.4276    -7.6042     6.0035 H       
@<TRIPOS>BOND
   1    1    2 1
   2    1    3 2
   3    2    5 2
   4    2   35 1
   5    3    4 1
   6    3    6 1
   7    4    5 1
   8    5   18 1
   9    6    7 ar
  10    6    8 ar
  11    7   11 ar
  12    7   36 1
  13    8    9 ar
  14    8   37 1
  15    9   10 ar
  16    9   38 1
  17   10   11 ar
  18   10   12 1
  19   11   16 1
  20   12   13 1
  21   13   14 1
  22   13   15 1
  23   13   39 1
  24   14   40 1
  25   14   41 1
  26   14   42 1
  27   15   43 1
  28   15   44 1
  29   15   45 1
  30   16   17 3
  31   18   19 ar
  32   18   23 ar
  33   19   20 ar
  34   19   24 1
  35   20   21 ar
  36   20   26 1
  37   21   22 ar
  38   21   46 1
  39   22   23 ar
  40   22   47 1
  41   23   48 1
  42   24   25 1
  43   24   49 1
  44   24   50 1
  45   25   26 1
  46   25   51 1
  47   25   52 1
  48   26   27 1
  49   26   53 1
  50   27   28 am
  51   27   54 1
  52   28   29 am
  53   28   30 2
  54   29   31 1
  55   29   33 1
  56   31   32 1
  57   31   55 1
  58   31   56 1
  59   32   33 1
  60   32   34 1
  61   32   57 1
  62   33   58 1
  63   33   59 1
  64   34   60 1

#	End of record

