#	Name: ASD00311311
#	Creating user name:	WinNT
#	Creation time:	15. 06. 2019 18:34

#	Modifying user name:	WinNT
#	Modification time:	15. 06. 2019 18:34

#	Program:	/corina/corina34_cracker 3.40 0067  02.08.2006

@<TRIPOS>MOLECULE
ASD00311311
  36   39    0    0    0
SMALL
NO_CHARGES


@<TRIPOS>ATOM
   1 C1            -0.0167     1.3778     0.0096 C.2     
   2 C2             0.0021    -0.0041     0.0020 C.2     
   3 C3             1.2589    -0.6767    -0.0136 C.2     
   4 C4             2.4316     0.0673    -0.0208 C.2     
   5 C5             2.3574     1.4753    -0.0125 C.2     
   6 N6             1.1648     2.0904     0.0022 N.am    
   7 C7            -1.3431    -0.5750     0.0118 C.2     
   8 C8            -2.3224     0.3257     0.0260 C.2     
   9 S9            -1.6794     1.9560     0.0358 S.3     
  10 O10            3.3822     2.1374    -0.0183 O.2     
  11 C11            3.7477    -0.6119    -0.0365 C.ar    
  12 C12            4.5935    -0.4744    -1.1370 C.ar    
  13 C13            5.8183    -1.1097    -1.1457 C.ar    
  14 C14            6.2081    -1.8817    -0.0659 C.ar    
  15 C15            5.3736    -2.0218     1.0286 C.ar    
  16 C16            4.1487    -1.3869     1.0516 C.ar    
  17 O17            1.3089    -2.0291    -0.0209 O.3     
  18 C18           -1.5955    -2.0355     0.0056 C.ar    
  19 C19           -2.4694    -2.5983     0.9346 C.ar    
  20 C20           -2.7010    -3.9607     0.9234 C.ar    
  21 C21           -2.0661    -4.7655    -0.0091 C.ar    
  22 C22           -1.1983    -4.2108    -0.9318 C.ar    
  23 C23           -0.9643    -2.8505    -0.9331 C.ar    
  24 F24           -3.5471    -4.5087     1.8229 F       
  25 H25            1.1326     3.0598     0.0077 H       
  26 H26           -3.3749     0.0839     0.0344 H       
  27 H27            4.2902     0.1277    -1.9807 H       
  28 H28            6.4740    -1.0043    -1.9974 H       
  29 H29            7.1676    -2.3772    -0.0775 H       
  30 H30            5.6833    -2.6258     1.8686 H       
  31 H31            3.5000    -1.4934     1.9084 H       
  32 H32            2.2062    -2.3895    -0.0314 H       
  33 H33           -2.9640    -1.9712     1.6616 H       
  34 H34           -2.2494    -5.8298    -0.0150 H       
  35 H35           -0.7060    -4.8428    -1.6561 H       
  36 H36           -0.2899    -2.4186    -1.6577 H       
@<TRIPOS>BOND
   1    1    2 2
   2    1    6 1
   3    1    9 1
   4    2    3 1
   5    2    7 1
   6    3    4 2
   7    3   17 1
   8    4    5 1
   9    4   11 1
  10    5    6 am
  11    5   10 2
  12    6   25 1
  13    7    8 2
  14    7   18 1
  15    8    9 1
  16    8   26 1
  17   11   12 ar
  18   11   16 ar
  19   12   13 ar
  20   12   27 1
  21   13   14 ar
  22   13   28 1
  23   14   15 ar
  24   14   29 1
  25   15   16 ar
  26   15   30 1
  27   16   31 1
  28   17   32 1
  29   18   19 ar
  30   18   23 ar
  31   19   20 ar
  32   19   33 1
  33   20   21 ar
  34   20   24 1
  35   21   22 ar
  36   21   34 1
  37   22   23 ar
  38   22   35 1
  39   23   36 1

#	End of record

