#	Name: ASD01911902
#	Creating user name:	WinNT
#	Creation time:	15. 06. 2019 19:58

#	Modifying user name:	WinNT
#	Modification time:	15. 06. 2019 19:58

#	Program:	/corina/corina34_cracker 3.40 0067  02.08.2006

@<TRIPOS>MOLECULE
ASD01911902
  35   37    0    0    0
SMALL
NO_CHARGES


@<TRIPOS>ATOM
   1 C1            -1.1001    -1.0214     2.6675 C.ar    
   2 C2            -1.1752    -0.2017     1.5459 C.ar    
   3 C3            -1.3332     1.1669     1.7391 C.ar    
   4 N4            -1.4060     1.6368     2.9735 N.ar    
   5 C5            -1.3307     0.8275     4.0109 C.ar    
   6 N6            -1.1811    -0.4742     3.8691 N.ar    
   7 O7            -1.0957    -0.7244     0.2939 O.3     
   8 C8            -0.9393    -2.0687     0.1726 C.ar    
   9 C9             0.3066    -2.5981    -0.1355 C.ar    
  10 C10            0.4673    -3.9648    -0.2587 C.ar    
  11 C11           -0.6110    -4.8091    -0.0758 C.ar    
  12 C12           -1.8600    -4.2852     0.2327 C.ar    
  13 C13           -2.0223    -2.9127     0.3621 C.ar    
  14 N14           -2.9515    -5.1398     0.4174 N.am    
  15 C15           -4.1899    -4.7354     0.0720 C.2     
  16 C16           -5.3562    -5.5957     0.3628 C.ar    
  17 O17           -4.3478    -3.6632    -0.4786 O.2     
  18 C18           -6.6400    -5.1799     0.0065 C.ar    
  19 C19           -7.7248    -5.9874     0.2806 C.ar    
  20 C20           -7.5426    -7.2067     0.9077 C.ar    
  21 C21           -6.2719    -7.6255     1.2645 C.ar    
  22 C22           -5.1777    -6.8301     0.9899 C.ar    
  23 Br23          -6.0342    -9.2941     2.1220 Br      
  24 H24           -0.9819    -2.0894     2.5586 H       
  25 H25           -1.3953     1.8360     0.8936 H       
  26 H26           -1.3932     1.2429     5.0058 H       
  27 H27            1.1513    -1.9406    -0.2794 H       
  28 H28            1.4375    -4.3740    -0.4988 H       
  29 H29           -0.4827    -5.8771    -0.1730 H       
  30 H30           -2.9923    -2.5028     0.6018 H       
  31 H31           -2.8172    -6.0235     0.7941 H       
  32 H32           -6.7841    -4.2278    -0.4826 H       
  33 H33           -8.7185    -5.6664     0.0052 H       
  34 H34           -8.3951    -7.8347     1.1203 H       
  35 H35           -4.1870    -7.1574     1.2685 H       
@<TRIPOS>BOND
   1    1    2 ar
   2    1    6 ar
   3    1   24 1
   4    2    3 ar
   5    2    7 1
   6    3    4 ar
   7    3   25 1
   8    4    5 ar
   9    5    6 ar
  10    5   26 1
  11    7    8 1
  12    8    9 ar
  13    8   13 ar
  14    9   10 ar
  15    9   27 1
  16   10   11 ar
  17   10   28 1
  18   11   12 ar
  19   11   29 1
  20   12   13 ar
  21   12   14 1
  22   13   30 1
  23   14   15 am
  24   14   31 1
  25   15   16 1
  26   15   17 2
  27   16   18 ar
  28   16   22 ar
  29   18   19 ar
  30   18   32 1
  31   19   20 ar
  32   19   33 1
  33   20   21 ar
  34   20   34 1
  35   21   22 ar
  36   21   23 1
  37   22   35 1

#	End of record

