#	Name: ASD01814040
#	Creating user name:	WinNT
#	Creation time:	15. 06. 2019 19:31

#	Modifying user name:	WinNT
#	Modification time:	15. 06. 2019 19:31

#	Program:	/corina/corina34_cracker 3.40 0067  02.08.2006

@<TRIPOS>MOLECULE
ASD01814040
  45   48    0    0    0
SMALL
NO_CHARGES


@<TRIPOS>ATOM
   1 C1            -0.5548     0.7245     0.2430 C.ar    
   2 C2            -0.2945    -0.6370     0.2290 C.ar    
   3 C3             0.9981    -1.1069     0.1357 C.ar    
   4 C4             2.0607    -0.2119     0.0537 C.ar    
   5 C5             1.7972     1.1689     0.0675 C.ar    
   6 C6             0.4827     1.6321     0.1629 C.ar    
   7 N7             3.3571    -0.6709    -0.0394 N.pl3   
   8 C8             4.4131     0.1489    -0.1197 C.2     
   9 C9             4.2796     1.5225    -0.1155 C.2     
  10 C10            2.9312     2.1057    -0.0199 C.2     
  11 F11            0.2283     2.9589     0.1762 F       
  12 O12            2.7602     3.3123    -0.0127 O.2     
  13 C13            5.4637     2.3885    -0.2043 C.2     
  14 O14            5.3203     3.7289    -0.1992 O.3     
  15 O15            6.5724     1.8961    -0.2824 O.2     
  16 C16            3.5897    -2.1173    -0.0506 C.3     
  17 C17            3.5656    -2.6190    -1.4714 C.ar    
  18 C18            4.7346    -2.6582    -2.2091 C.ar    
  19 C19            4.7159    -3.1174    -3.5115 C.ar    
  20 C20            3.5215    -3.5405    -4.0800 C.ar    
  21 C21            2.3494    -3.5003    -3.3363 C.ar    
  22 C22            2.3757    -3.0445    -2.0328 C.ar    
  23 N23            3.4991    -4.0059    -5.3993 N.am    
  24 C24            4.5417    -4.7094    -5.8836 C.2     
  25 C25            4.4740    -5.3003    -7.2683 C.3     
  26 O26            5.5346    -4.8668    -5.2050 O.2     
  27 C27            5.6898    -6.0879    -7.7605 C.3     
  28 C28            4.4027    -6.8243    -7.3833 C.3     
  29 H29           -1.5735     1.0766     0.3125 H       
  30 H30           -1.1138    -1.3377     0.2922 H       
  31 H31            1.1864    -2.1703     0.1265 H       
  32 H32            5.4021    -0.2792    -0.1897 H       
  33 H33            6.1281     4.2570    -0.2596 H       
  34 H34            4.5612    -2.3325     0.3943 H       
  35 H35            2.8087    -2.6154     0.5239 H       
  36 H36            5.6631    -2.3290    -1.7665 H       
  37 H37            5.6290    -3.1472    -4.0874 H       
  38 H38            1.4190    -3.8286    -3.7755 H       
  39 H39            1.4645    -3.0133    -1.4538 H       
  40 H40            2.7331    -3.8223    -5.9655 H       
  41 H41            3.9231    -4.7135    -8.0034 H       
  42 H42            5.9386    -6.0197    -8.8195 H       
  43 H43            6.5386    -6.1787    -7.0828 H       
  44 H44            4.4049    -7.3995    -6.4574 H       
  45 H45            3.8049    -7.2404    -8.1941 H       
@<TRIPOS>BOND
   1    1    2 ar
   2    1    6 ar
   3    1   29 1
   4    2    3 ar
   5    2   30 1
   6    3    4 ar
   7    3   31 1
   8    4    5 ar
   9    4    7 1
  10    5    6 ar
  11    5   10 1
  12    6   11 1
  13    7    8 1
  14    7   16 1
  15    8    9 2
  16    8   32 1
  17    9   10 1
  18    9   13 1
  19   10   12 2
  20   13   14 1
  21   13   15 2
  22   14   33 1
  23   16   17 1
  24   16   34 1
  25   16   35 1
  26   17   18 ar
  27   17   22 ar
  28   18   19 ar
  29   18   36 1
  30   19   20 ar
  31   19   37 1
  32   20   21 ar
  33   20   23 1
  34   21   22 ar
  35   21   38 1
  36   22   39 1
  37   23   24 am
  38   23   40 1
  39   24   25 1
  40   24   26 2
  41   25   27 1
  42   25   28 1
  43   25   41 1
  44   27   28 1
  45   27   42 1
  46   27   43 1
  47   28   44 1
  48   28   45 1

#	End of record

