#	Name: ASD01914943
#	Creating user name:	WinNT
#	Creation time:	15. 06. 2019 20:04

#	Modifying user name:	WinNT
#	Modification time:	15. 06. 2019 20:04

#	Program:	/corina/corina34_cracker 3.40 0067  02.08.2006

@<TRIPOS>MOLECULE
ASD01914943
  61   65    0    0    0
SMALL
NO_CHARGES


@<TRIPOS>ATOM
   1 C1            -0.0042     1.3296    -0.0209 C.2     
   2 N2             0.0148     0.0575     0.3181 N.2     
   3 C3             1.3066     1.7205    -0.3419 C.2     
   4 C4             2.1160     0.6340    -0.1829 C.2     
   5 N5             1.3334    -0.4054     0.2255 N.pl3   
   6 C6            -1.2058     2.2002    -0.0629 C.ar    
   7 C7            -2.4548     1.6845     0.2759 C.ar    
   8 C8            -3.5689     2.4983     0.2351 C.ar    
   9 C9            -3.4468     3.8235    -0.1419 C.ar    
  10 C10           -2.2091     4.3407    -0.4793 C.ar    
  11 C11           -1.0876     3.5373    -0.4358 C.ar    
  12 C12            3.5774     0.5910    -0.4125 C.ar    
  13 C13            1.7913    -1.7663     0.5166 C.3     
  14 C14            2.0702    -1.8977     1.9917 C.2     
  15 N15            2.5054    -3.0705     2.4934 N.am    
  16 O16            1.9029    -0.9482     2.7274 O.2     
  17 C17            2.7871    -3.2320     3.9295 C.3     
  18 C18            1.8012    -4.2567     4.4885 C.3     
  19 C19            1.7348    -5.4749     3.6051 C.ar    
  20 C20            2.1466    -5.4679     2.2907 C.ar    
  21 C21            2.7120    -4.2394     1.6317 C.3     
  22 C22            4.1817     1.5242    -1.2549 C.ar    
  23 C23            5.5447     1.4788    -1.4649 C.ar    
  24 C24            6.3116     0.5104    -0.8421 C.ar    
  25 C25            5.7181    -0.4182    -0.0058 C.ar    
  26 C26            4.3569    -0.3794     0.2171 C.ar    
  27 C27            1.2313    -6.6448     4.1613 C.ar    
  28 C28            1.1349    -7.7989     3.4062 C.ar    
  29 C29            1.5445    -7.7881     2.0763 C.ar    
  30 C30            2.0473    -6.6229     1.5266 C.ar    
  31 O31            0.6426    -8.9390     3.9604 O.3     
  32 C32            0.2426    -8.8740     5.3308 C.3     
  33 C33            1.8916    -8.8276    -0.0344 C.3     
  34 O34            1.4515    -8.9160     1.3223 O.3     
  35 H35            1.6178     2.7052    -0.6580 H       
  36 H36           -2.5513     0.6497     0.5697 H       
  37 H37           -4.5376     2.0996     0.4975 H       
  38 H38           -4.3212     4.4567    -0.1732 H       
  39 H39           -2.1194     5.3761    -0.7729 H       
  40 H40           -0.1216     3.9421    -0.6991 H       
  41 H41            1.0189    -2.4791     0.2279 H       
  42 H42            2.7027    -1.9709    -0.0451 H       
  43 H43            3.8077    -3.5889     4.0674 H       
  44 H44            2.6569    -2.2781     4.4405 H       
  45 H45            2.1217    -4.5549     5.4867 H       
  46 H46            0.8113    -3.8047     4.5508 H       
  47 H47            2.2161    -4.0806     0.6742 H       
  48 H48            3.7810    -4.3753     1.4676 H       
  49 H49            3.5841     2.2805    -1.7420 H       
  50 H50            6.0138     2.2006    -2.1172 H       
  51 H51            7.3781     0.4790    -1.0096 H       
  52 H52            6.3220    -1.1722     0.4770 H       
  53 H53            3.8947    -1.1047     0.8704 H       
  54 H54            0.9127    -6.6526     5.1932 H       
  55 H55            2.3655    -6.6114     0.4947 H       
  56 H56           -0.1300    -9.8482     5.6471 H       
  57 H57            1.0979    -8.5948     5.9461 H       
  58 H58           -0.5452    -8.1293     5.4443 H       
  59 H59            2.9443    -8.5461    -0.0572 H       
  60 H60            1.7633    -9.7942    -0.5217 H       
  61 H61            1.3028    -8.0752    -0.5591 H       
@<TRIPOS>BOND
   1    1    2 2
   2    1    3 1
   3    1    6 1
   4    2    5 1
   5    3    4 2
   6    3   35 1
   7    4    5 1
   8    4   12 1
   9    5   13 1
  10    6    7 ar
  11    6   11 ar
  12    7    8 ar
  13    7   36 1
  14    8    9 ar
  15    8   37 1
  16    9   10 ar
  17    9   38 1
  18   10   11 ar
  19   10   39 1
  20   11   40 1
  21   12   22 ar
  22   12   26 ar
  23   13   14 1
  24   13   41 1
  25   13   42 1
  26   14   15 am
  27   14   16 2
  28   15   17 1
  29   15   21 1
  30   17   18 1
  31   17   43 1
  32   17   44 1
  33   18   19 1
  34   18   45 1
  35   18   46 1
  36   19   20 ar
  37   19   27 ar
  38   20   21 1
  39   20   30 ar
  40   21   47 1
  41   21   48 1
  42   22   23 ar
  43   22   49 1
  44   23   24 ar
  45   23   50 1
  46   24   25 ar
  47   24   51 1
  48   25   26 ar
  49   25   52 1
  50   26   53 1
  51   27   28 ar
  52   27   54 1
  53   28   29 ar
  54   28   31 1
  55   29   30 ar
  56   29   34 1
  57   30   55 1
  58   31   32 1
  59   32   56 1
  60   32   57 1
  61   32   58 1
  62   33   34 1
  63   33   59 1
  64   33   60 1
  65   33   61 1

#	End of record

