#	Name: ASD01816128
#	Creating user name:	WinNT
#	Creation time:	15. 06. 2019 19:34

#	Modifying user name:	WinNT
#	Modification time:	15. 06. 2019 19:34

#	Program:	/corina/corina34_cracker 3.40 0067  02.08.2006

@<TRIPOS>MOLECULE
ASD01816128
  57   62    0    0    0
SMALL
NO_CHARGES


@<TRIPOS>ATOM
   1 C1            -0.0167     1.3813     0.0096 C.ar    
   2 C2             0.0021    -0.0041     0.0020 C.ar    
   3 C3             1.1984    -0.6909    -0.0127 C.ar    
   4 C4             2.4015     0.0059    -0.0200 C.ar    
   5 C5             2.3790     1.4106    -0.0127 C.ar    
   6 C6             1.1663     2.0916     0.0022 C.ar    
   7 N7             3.6053    -0.6772    -0.0338 N.pl3   
   8 C8             4.7970    -0.0586    -0.0409 C.2     
   9 C9             4.9000     1.3103    -0.0349 C.2     
  10 C10            3.6670     2.1301    -0.0207 C.2     
  11 C11            5.9971     2.2729    -0.0391 C.2     
  12 N12            5.4246     3.4960    -0.0282 N.am    
  13 N13            4.0323     3.3799    -0.0174 N.2     
  14 O14            7.1915     2.0229    -0.0495 O.2     
  15 C15            3.5779    -2.1419    -0.0404 C.3     
  16 C16            3.5560    -2.6375    -1.4634 C.ar    
  17 N17            2.4046    -2.7352    -2.0991 N.ar    
  18 C18            2.3312    -3.1625    -3.3431 C.ar    
  19 C19            3.4830    -3.5298    -4.0358 C.ar    
  20 C20            4.7190    -3.4375    -3.3894 C.ar    
  21 C21            4.7444    -2.9775    -2.0842 C.ar    
  22 C22            6.1265     4.7081    -0.0278 C.ar    
  23 C23            5.8865     5.6523     0.9648 C.ar    
  24 C24            7.0677     4.9677    -1.0150 C.ar    
  25 C25            7.7583     6.1639    -1.0120 C.ar    
  26 C26            7.5140     7.1037    -0.0273 C.ar    
  27 C27            6.5819     6.8478     0.9614 C.ar    
  28 F28            4.9754     5.4022     1.9305 F       
  29 C29            3.3990    -4.0113    -5.4363 C.ar    
  30 C30            2.4931    -5.0199    -5.7791 C.ar    
  31 C31            2.4214    -5.4636    -7.0895 C.ar    
  32 C32            3.2431    -4.9107    -8.0537 C.ar    
  33 C33            4.1406    -3.9130    -7.7175 C.ar    
  34 C34            4.2178    -3.4569    -6.4168 C.ar    
  35 O35            1.6867    -5.5631    -4.8304 O.3     
  36 C36            0.7865    -6.5889    -5.2539 C.3     
  37 F37            1.5151    -7.6585    -5.7853 F       
  38 F38            0.0373    -7.0331    -4.1591 F       
  39 F39           -0.0742    -6.0794    -6.2321 F       
  40 H40           -0.9602     1.9068     0.0170 H       
  41 H41           -0.9289    -0.5515     0.0080 H       
  42 H42            1.2004    -1.7709    -0.0181 H       
  43 H43            1.1506     3.1715     0.0077 H       
  44 H44            5.6983    -0.6536    -0.0513 H       
  45 H45            4.4654    -2.5242     0.4639 H       
  46 H46            2.6859    -2.4910     0.4797 H       
  47 H47            1.3696    -3.2292    -3.8303 H       
  48 H48            5.6313    -3.7144    -3.8968 H       
  49 H49            5.6811    -2.8931    -1.5534 H       
  50 H50            7.2599     4.2346    -1.7845 H       
  51 H51            8.4906     6.3655    -1.7798 H       
  52 H52            8.0560     8.0378    -0.0278 H       
  53 H53            6.3934     7.5839     1.7289 H       
  54 H54            1.7230    -6.2424    -7.3579 H       
  55 H55            3.1845    -5.2595    -9.0742 H       
  56 H56            4.7799    -3.4864    -8.4762 H       
  57 H57            4.9196    -2.6779    -6.1580 H       
@<TRIPOS>BOND
   1    1    2 ar
   2    1    6 ar
   3    1   40 1
   4    2    3 ar
   5    2   41 1
   6    3    4 ar
   7    3   42 1
   8    4    5 ar
   9    4    7 1
  10    5    6 ar
  11    5   10 1
  12    6   43 1
  13    7    8 1
  14    7   15 1
  15    8    9 2
  16    8   44 1
  17    9   10 1
  18    9   11 1
  19   10   13 2
  20   11   12 am
  21   11   14 2
  22   12   13 1
  23   12   22 1
  24   15   16 1
  25   15   45 1
  26   15   46 1
  27   16   17 ar
  28   16   21 ar
  29   17   18 ar
  30   18   19 ar
  31   18   47 1
  32   19   20 ar
  33   19   29 1
  34   20   21 ar
  35   20   48 1
  36   21   49 1
  37   22   23 ar
  38   22   24 ar
  39   23   28 1
  40   23   27 ar
  41   24   25 ar
  42   24   50 1
  43   25   26 ar
  44   25   51 1
  45   26   27 ar
  46   26   52 1
  47   27   53 1
  48   29   30 ar
  49   29   34 ar
  50   30   31 ar
  51   30   35 1
  52   31   32 ar
  53   31   54 1
  54   32   33 ar
  55   32   55 1
  56   33   34 ar
  57   33   56 1
  58   34   57 1
  59   35   36 1
  60   36   37 1
  61   36   38 1
  62   36   39 1

#	End of record

