#	Name: ASD05590002
#	Creating user name:	WinNT
#	Creation time:	15. 06. 2019 21:01

#	Modifying user name:	WinNT
#	Modification time:	15. 06. 2019 21:01

#	Program:	/corina/corina34_cracker 3.40 0067  02.08.2006

@<TRIPOS>MOLECULE
ASD05590002
  30   30    0    0    0
SMALL
NO_CHARGES


@<TRIPOS>ATOM
   1 C1            -0.0184     1.5028     0.0103 C.3     
   2 C2             0.0021    -0.0041     0.0020 C.2     
   3 C3             1.3172    -0.7397    -0.0145 C.3     
   4 C4             1.0581    -2.2476    -0.0201 C.3     
   5 O5            -1.0354    -0.6220     0.0086 O.2     
   6 C6             2.3732    -2.9833    -0.0366 C.ar    
   7 C7             2.9878    -3.3271     1.1529 C.ar    
   8 C8             4.1942    -4.0019     1.1377 C.ar    
   9 C9             4.7857    -4.3332    -0.0669 C.ar    
  10 C10            4.1707    -3.9902    -1.2564 C.ar    
  11 C11            2.9622    -3.3192    -1.2413 C.ar    
  12 C12            6.1014    -5.0679    -0.0834 C.3     
  13 C13            5.8433    -6.5760    -0.0880 C.3     
  14 S14            7.4270    -7.4604    -0.1078 S.3     
  15 H15            1.0042     1.8801     0.0026 H       
  16 H16           -0.5455     1.8639    -0.8728 H       
  17 H17           -0.5286     1.8543     0.9071 H       
  18 H18            1.8766    -0.4639    -0.9084 H       
  19 H19            1.8936    -0.4734     0.8715 H       
  20 H20            0.4987    -2.5235     0.8738 H       
  21 H21            0.4817    -2.5139    -0.9061 H       
  22 H22            2.5257    -3.0682     2.0941 H       
  23 H23            4.6747    -4.2699     2.0671 H       
  24 H24            4.6330    -4.2487    -2.1976 H       
  25 H25            2.4798    -3.0545    -2.1706 H       
  26 H26            6.6603    -4.7922    -0.9777 H       
  27 H27            6.6780    -4.8006     0.8022 H       
  28 H28            5.2844    -6.8517     0.8063 H       
  29 H29            5.2668    -6.8433    -0.9736 H       
  30 H30            7.0522    -8.7521    -0.1102 H       
@<TRIPOS>BOND
   1    1    2 1
   2    1   15 1
   3    1   16 1
   4    1   17 1
   5    2    3 1
   6    2    5 2
   7    3    4 1
   8    3   18 1
   9    3   19 1
  10    4    6 1
  11    4   20 1
  12    4   21 1
  13    6    7 ar
  14    6   11 ar
  15    7    8 ar
  16    7   22 1
  17    8    9 ar
  18    8   23 1
  19    9   10 ar
  20    9   12 1
  21   10   11 ar
  22   10   24 1
  23   11   25 1
  24   12   13 1
  25   12   26 1
  26   12   27 1
  27   13   14 1
  28   13   28 1
  29   13   29 1
  30   14   30 1

#	End of record

