#	Name: ASD00680001
#	Creating user name:	WinNT
#	Creation time:	15. 06. 2019 18:37

#	Modifying user name:	WinNT
#	Modification time:	15. 06. 2019 18:37

#	Program:	/corina/corina34_cracker 3.40 0067  02.08.2006

@<TRIPOS>MOLECULE
ASD00680001
  30   31    0    0    0
SMALL
NO_CHARGES


@<TRIPOS>ATOM
   1 C1            -0.2341     1.5013     0.1395 C.3     
   2 C2             0.0021    -0.0041     0.0020 C.3     
   3 C3             0.6693    -0.5238     1.2493 C.ar    
   4 C4            -1.3185    -0.7042    -0.1903 C.ar    
   5 C5            -2.5004    -0.0066    -0.0225 C.ar    
   6 C6            -3.7122    -0.6462    -0.1982 C.ar    
   7 C7            -3.7426    -1.9895    -0.5434 C.ar    
   8 C8            -2.5553    -2.6872    -0.7112 C.ar    
   9 C9            -1.3460    -2.0417    -0.5398 C.ar    
  10 C10            1.9932    -0.9206     1.2097 C.ar    
  11 C11            2.6070    -1.3975     2.3517 C.ar    
  12 C12            1.8940    -1.4780     3.5390 C.ar    
  13 C13            0.5658    -1.0793     3.5762 C.ar    
  14 C14           -0.0419    -0.5979     2.4327 C.ar    
  15 Cl15           1.3522     2.3573     0.1801 Cl      
  16 Cl16          -1.1984     2.0892    -1.2660 Cl      
  17 Cl17          -1.1344     1.8315     1.6663 Cl      
  18 O18           -4.9335    -2.6210    -0.7164 O.3     
  19 O19            2.4955    -1.9472     4.6637 O.3     
  20 H20            0.6429    -0.1942    -0.8590 H       
  21 H21           -2.4762     1.0391     0.2465 H       
  22 H22           -4.6351    -0.1009    -0.0667 H       
  23 H23           -2.5764    -3.7331    -0.9799 H       
  24 H24           -0.4215    -2.5844    -0.6703 H       
  25 H25            2.5477    -0.8581     0.2850 H       
  26 H26            3.6411    -1.7076     2.3201 H       
  27 H27            0.0086    -1.1410     4.4993 H       
  28 H28           -1.0759    -0.2873     2.4611 H       
  29 H29           -5.2703    -2.5841    -1.6221 H       
  30 H30            2.9221    -1.2622     5.1965 H       
@<TRIPOS>BOND
   1    1    2 1
   2    1   15 1
   3    1   16 1
   4    1   17 1
   5    2    3 1
   6    2    4 1
   7    2   20 1
   8    3   10 ar
   9    3   14 ar
  10    4    5 ar
  11    4    9 ar
  12    5    6 ar
  13    5   21 1
  14    6    7 ar
  15    6   22 1
  16    7    8 ar
  17    7   18 1
  18    8    9 ar
  19    8   23 1
  20    9   24 1
  21   10   11 ar
  22   10   25 1
  23   11   12 ar
  24   11   26 1
  25   12   13 ar
  26   12   19 1
  27   13   14 ar
  28   13   27 1
  29   14   28 1
  30   18   29 1
  31   19   30 1

#	End of record

