#	Name: ASD02030324
#	Creating user name:	WinNT
#	Creation time:	15. 06. 2019 20:15

#	Modifying user name:	WinNT
#	Modification time:	15. 06. 2019 20:15

#	Program:	/corina/corina34_cracker 3.40 0067  02.08.2006

@<TRIPOS>MOLECULE
ASD02030324
  62   65    0    0    0
SMALL
NO_CHARGES


@<TRIPOS>ATOM
   1 N1            -0.6646     1.6160    -0.0827 N.am    
   2 C2            -0.6628     0.1484    -0.1605 C.3     
   3 C3            -1.4136    -0.4078     1.0557 C.3     
   4 N4            -2.6996     0.2936     1.1748 N.am    
   5 C5            -2.7013     1.7612     1.2527 C.3     
   6 C6            -1.9502     2.3171     0.0421 C.3     
   7 C7             0.4924     2.3062    -0.1194 C.2     
   8 C8             1.7835     1.5863    -0.1011 C.2     
   9 N9             2.9723     2.1330     0.0359 N.2     
  10 N10            1.9494     0.2558    -0.2158 N.2     
  11 C11            3.2346     0.0172    -0.1515 C.2     
  12 N12            3.8616     1.2011     0.0060 N.pl3   
  13 C13            5.2463     1.3862     0.1173 C.ar    
  14 O14            0.4743     3.5207    -0.1677 O.2     
  15 C15           -1.7035     3.8148     0.2342 C.3     
  16 O16           -1.2296     4.3803    -0.9896 O.3     
  17 C17           -2.7768     2.0876    -1.2248 C.3     
  18 C18           -3.8566    -0.3966     1.2116 C.2     
  19 C19           -3.8359    -1.8780     1.2041 C.ar    
  20 O20           -4.9167     0.1960     1.2509 O.2     
  21 N21           -2.7103    -2.5218     1.4918 N.ar    
  22 C22           -2.6503    -3.8397     1.4959 C.ar    
  23 C23           -3.7744    -4.6049     1.1964 C.ar    
  24 C24           -4.9650    -3.9690     0.8917 C.ar    
  25 C25           -4.9976    -2.5820     0.9012 C.ar    
  26 O26           -1.4796    -4.4565     1.7951 O.3     
  27 C27            5.7667     2.6634     0.2768 C.ar    
  28 C28            7.1320     2.8427     0.3862 C.ar    
  29 C29            7.9800     1.7518     0.3370 C.ar    
  30 C30            7.4647     0.4783     0.1778 C.ar    
  31 C31            6.1003     0.2920     0.0740 C.ar    
  32 C32            7.6977     4.2288     0.5589 C.3     
  33 C33           -0.3619    -3.6175     2.0932 C.3     
  34 C34           -0.9667     5.7831    -0.9183 C.3     
  35 H35           -1.1622    -0.1700    -1.0757 H       
  36 H36            0.3641    -0.2170    -0.1551 H       
  37 H37           -1.5901    -1.4748     0.9201 H       
  38 H38           -0.8226    -0.2438     1.9568 H       
  39 H39           -3.7283     2.1266     1.2472 H       
  40 H40           -2.2020     2.0796     2.1678 H       
  41 H41            3.7072    -0.9520    -0.2114 H       
  42 H42           -2.6346     4.3023     0.5232 H       
  43 H43           -0.9581     3.9629     1.0155 H       
  44 H44           -3.7364     2.5957    -1.1295 H       
  45 H45           -2.2395     2.4846    -2.0861 H       
  46 H46           -2.9434     1.0191    -1.3614 H       
  47 H47           -3.7175    -5.6834     1.2015 H       
  48 H48           -5.8508    -4.5401     0.6559 H       
  49 H49           -5.9110    -2.0551     0.6680 H       
  50 H50            5.1048     3.5159     0.3150 H       
  51 H51            9.0471     1.8945     0.4228 H       
  52 H52            8.1297    -0.3718     0.1390 H       
  53 H53            5.6985    -0.7027    -0.0503 H       
  54 H54            7.7653     4.4639     1.6210 H       
  55 H55            8.6912     4.2738     0.1128 H       
  56 H56            7.0458     4.9511     0.0676 H       
  57 H57            0.5080    -4.2361     2.3141 H       
  58 H58           -0.1465    -2.9808     1.2351 H       
  59 H59           -0.5946    -2.9958     2.9577 H       
  60 H60           -1.8825     6.3114    -0.6532 H       
  61 H61           -0.2059     5.9721    -0.1608 H       
  62 H62           -0.6110     6.1358    -1.8863 H       
@<TRIPOS>BOND
   1    1    2 1
   2    1    7 am
   3    1    6 1
   4    2    3 1
   5    2   35 1
   6    2   36 1
   7    3    4 1
   8    3   37 1
   9    3   38 1
  10    4    5 1
  11    4   18 am
  12    5    6 1
  13    5   39 1
  14    5   40 1
  15    6   15 1
  16    6   17 1
  17    7    8 1
  18    7   14 2
  19    8    9 2
  20    8   10 1
  21    9   12 1
  22   10   11 2
  23   11   12 1
  24   11   41 1
  25   12   13 1
  26   13   27 ar
  27   13   31 ar
  28   15   16 1
  29   15   42 1
  30   15   43 1
  31   16   34 1
  32   17   44 1
  33   17   45 1
  34   17   46 1
  35   18   19 1
  36   18   20 2
  37   19   21 ar
  38   19   25 ar
  39   21   22 ar
  40   22   23 ar
  41   22   26 1
  42   23   24 ar
  43   23   47 1
  44   24   25 ar
  45   24   48 1
  46   25   49 1
  47   26   33 1
  48   27   28 ar
  49   27   50 1
  50   28   29 ar
  51   28   32 1
  52   29   30 ar
  53   29   51 1
  54   30   31 ar
  55   30   52 1
  56   31   53 1
  57   32   54 1
  58   32   55 1
  59   32   56 1
  60   33   57 1
  61   33   58 1
  62   33   59 1
  63   34   60 1
  64   34   61 1
  65   34   62 1

#	End of record

