#	Name: ASD00960235
#	Creating user name:	WinNT
#	Creation time:	15. 06. 2019 18:53

#	Modifying user name:	WinNT
#	Modification time:	15. 06. 2019 18:53

#	Program:	/corina/corina34_cracker 3.40 0067  02.08.2006

@<TRIPOS>MOLECULE
ASD00960235
  35   37    0    0    0
SMALL
NO_CHARGES


@<TRIPOS>ATOM
   1 C1            -0.0179     1.4710     0.0101 C.2     
   2 N2            -0.7498     3.5880     0.0238 N.pl3   
   3 C3             0.6220     3.6200     0.0147 C.2     
   4 C4             1.0945     2.3166     0.0040 C.2     
   5 N5            -1.4469     4.8050     0.0347 N.2     
   6 C6            -0.7908     5.9362     0.0361 C.2     
   7 N7             0.5371     5.9831     0.0273 N.2     
   8 C8             1.2683     4.8817     0.0176 C.2     
   9 N9             2.6452     4.9595     0.0085 N.pl3   
  10 C10           -1.1600     2.2912     0.0193 C.2     
  11 C11            0.0021    -0.0041     0.0020 C.2     
  12 O12            1.1780    -0.6618    -0.0122 O.3     
  13 O13           -1.0417    -0.6258     0.0082 O.2     
  14 C14           -2.5479     1.8299     0.0228 C.2     
  15 O15           -2.7929     0.6383     0.0180 O.2     
  16 O16           -3.5567     2.7261     0.0312 O.3     
  17 C17           -4.8874     2.2051     0.0342 C.3     
  18 C18           -5.8731     3.3450     0.0437 C.ar    
  19 C19           -6.3301     3.8735    -1.1490 C.ar    
  20 C20           -7.2343     4.9191    -1.1403 C.ar    
  21 C21           -7.6818     5.4359     0.0612 C.ar    
  22 C22           -7.2255     4.9067     1.2540 C.ar    
  23 C23           -6.3246     3.8583     1.2452 C.ar    
  24 H24            2.1304     2.0114    -0.0066 H       
  25 H25           -1.3463     6.8624     0.0442 H       
  26 H26            3.0821     5.8255     0.0092 H       
  27 H27            3.1767     4.1481     0.0013 H       
  28 H28            1.1404    -1.6281    -0.0171 H       
  29 H29           -5.0420     1.5985    -0.8581 H       
  30 H30           -5.0347     1.5899     0.9218 H       
  31 H31           -5.9805     3.4698    -2.0877 H       
  32 H32           -7.5909     5.3325    -2.0721 H       
  33 H33           -8.3877     6.2532     0.0681 H       
  34 H34           -7.5749     5.3107     2.1927 H       
  35 H35           -5.9709     3.4424     2.1771 H       
@<TRIPOS>BOND
   1    1   11 1
   2    1    4 1
   3    1   10 2
   4    2    3 1
   5    2    5 1
   6    2   10 1
   7    3    4 2
   8    3    8 1
   9    4   24 1
  10    5    6 2
  11    6    7 1
  12    6   25 1
  13    7    8 2
  14    8    9 1
  15    9   26 1
  16    9   27 1
  17   10   14 1
  18   11   12 1
  19   11   13 2
  20   12   28 1
  21   14   15 2
  22   14   16 1
  23   16   17 1
  24   17   18 1
  25   17   29 1
  26   17   30 1
  27   18   19 ar
  28   18   23 ar
  29   19   20 ar
  30   19   31 1
  31   20   21 ar
  32   20   32 1
  33   21   22 ar
  34   21   33 1
  35   22   23 ar
  36   22   34 1
  37   23   35 1

#	End of record

