#	Name: ASD03091606
#	Creating user name:	WinNT
#	Creation time:	15. 06. 2019 20:31

#	Modifying user name:	WinNT
#	Modification time:	15. 06. 2019 20:31

#	Program:	/corina/corina34_cracker 3.40 0067  02.08.2006

@<TRIPOS>MOLECULE
ASD03091606
  19   20    0    0    0
SMALL
NO_CHARGES


@<TRIPOS>ATOM
   1 C1            -0.0161     1.3332     0.0094 C.2     
   2 C2             0.0021    -0.0041     0.0020 C.2     
   3 C3             1.2771    -0.5930    -0.0133 C.ar    
   4 C4             2.3066     0.3556    -0.0181 C.ar    
   5 S5             1.6172     1.9747    -0.0028 S.3     
   6 C6             3.6535    -0.0693    -0.0328 C.ar    
   7 C7             3.9534    -1.4269    -0.0425 C.ar    
   8 C8             2.9320    -2.3620    -0.0382 C.ar    
   9 C9             1.6187    -1.9665    -0.0240 C.ar    
  10 C10           -1.2348     2.1518     0.0198 C.2     
  11 O11           -2.3265     1.6168     0.0223 O.2     
  12 O12           -1.1433     3.4972     0.0267 O.3     
  13 C13            4.7096     0.8978    -0.0381 C.1     
  14 N14            5.5475     1.6649    -0.0424 N.1     
  15 H15           -0.9037    -0.5922     0.0079 H       
  16 H16            4.9832    -1.7523    -0.0538 H       
  17 H17            3.1723    -3.4149    -0.0462 H       
  18 H18            0.8367    -2.7114    -0.0201 H       
  19 H19           -1.9732     3.9936     0.0335 H       
@<TRIPOS>BOND
   1    1    2 2
   2    1    5 1
   3    1   10 1
   4    2    3 1
   5    2   15 1
   6    3    4 ar
   7    3    9 ar
   8    4    5 1
   9    4    6 ar
  10    6    7 ar
  11    6   13 1
  12    7    8 ar
  13    7   16 1
  14    8    9 ar
  15    8   17 1
  16    9   18 1
  17   10   11 2
  18   10   12 1
  19   12   19 1
  20   13   14 3

#	End of record

