#	Name: ASD01884002
#	Creating user name:	WinNT
#	Creation time:	15. 06. 2019 19:47

#	Modifying user name:	WinNT
#	Modification time:	15. 06. 2019 19:47

#	Program:	/corina/corina34_cracker 3.40 0067  02.08.2006

@<TRIPOS>MOLECULE
ASD01884002
  54   57    0    0    0
SMALL
NO_CHARGES


@<TRIPOS>ATOM
   1 Cl1            0.0000     0.0000     0.0000 Cl      
   2 H2             0.0000     1.3700     0.0000 H       
   3 C3            13.6554    17.0780     8.1379 C.3     
   4 N4            13.6752    15.6132     8.1299 N.am    
   5 C5            12.4767    14.9139     8.1318 C.2     
   6 C6            11.1865    15.3543     8.1407 C.2     
   7 C7            10.3460    14.2279     8.1385 C.2     
   8 N8            11.1020    13.1496     8.1286 N.2     
   9 N9            12.4450    13.5525     8.1241 N.pl3   
  10 C10           13.6264    12.8172     8.1139 C.ar    
  11 C11           13.6041    11.4334     8.1055 C.ar    
  12 C12           14.8037    10.7259     8.0949 C.ar    
  13 C13           16.0239    11.4061     8.0933 C.ar    
  14 C14           16.0539    12.7718     8.1020 C.ar    
  15 C15           14.8594    13.4930     8.1117 C.ar    
  16 C16           14.8581    14.9655     8.1151 C.2     
  17 O17           15.9047    15.5862     8.1089 O.2     
  18 C18           14.7857     9.2430     8.0858 C.2     
  19 C19           14.2950     8.4094     9.1108 C.2     
  20 C20           13.6946     8.8693    10.4142 C.3     
  21 N21           14.4514     7.1685     8.7337 N.2     
  22 N22           15.0428     7.1595     7.4647 N.pl3   
  23 H23           15.2702     6.3700     6.9491 H       
  24 C24           15.2361     8.4362     7.0803 C.2     
  25 C25           15.8428     8.8914     5.7781 C.3     
  26 C26            8.8627    14.2498     8.1465 C.ar    
  27 C27            8.1625    15.4595     8.1516 C.ar    
  28 C28            6.7831    15.4345     8.1590 C.ar    
  29 C29            6.0161    16.7317     8.1645 C.3     
  30 N30            6.1266    14.2902     8.1610 N.ar    
  31 C31            6.7490    13.1269     8.1564 C.ar    
  32 C32            5.9440    11.8529     8.1584 C.3     
  33 C33            8.1271    13.0612     8.1434 C.ar    
  34 H34           14.6779    17.4553     8.1302 H       
  35 H35           13.1282    17.4391     7.2549 H       
  36 H36           13.1452    17.4296     9.0347 H       
  37 H37           10.8670    16.3859     8.1484 H       
  38 H38           12.6621    10.9053     8.1075 H       
  39 H39           16.9491    10.8490     8.0854 H       
  40 H40           17.0002    13.2923     8.1014 H       
  41 H41           12.6185     8.9947    10.2944 H       
  42 H42           13.8899     8.1255    11.1867 H       
  43 H43           14.1411     9.8203    10.7044 H       
  44 H44           16.9224     8.9867     5.8938 H       
  45 H45           15.6239     8.1601     5.0000 H       
  46 H46           15.4208     9.8568     5.4985 H       
  47 H47            8.6936    16.4000     8.1500 H       
  48 H48            5.8256    17.0455     7.1382 H       
  49 H49            5.0679    16.5909     8.6833 H       
  50 H50            6.6000    17.4969     8.6759 H       
  51 H51            5.7450    11.5472     7.1313 H       
  52 H52            6.5047    11.0697     8.6685 H       
  53 H53            5.0000    12.0205     8.6770 H       
  54 H54            8.6301    12.1055     8.1351 H       
@<TRIPOS>BOND
   1    1    2 1
   2    3    4 1
   3    3   34 1
   4    3   35 1
   5    3   36 1
   6    4   16 am
   7    4    5 1
   8    5    9 1
   9    5    6 2
  10    6    7 1
  11    6   37 1
  12    7    8 2
  13    7   26 1
  14    8    9 1
  15    9   10 1
  16   10   15 ar
  17   10   11 ar
  18   11   12 ar
  19   11   38 1
  20   12   13 ar
  21   12   18 1
  22   13   14 ar
  23   13   39 1
  24   14   15 ar
  25   14   40 1
  26   15   16 1
  27   16   17 2
  28   18   24 2
  29   18   19 1
  30   19   20 1
  31   19   21 2
  32   20   41 1
  33   20   42 1
  34   20   43 1
  35   21   22 1
  36   22   23 1
  37   22   24 1
  38   24   25 1
  39   25   44 1
  40   25   45 1
  41   25   46 1
  42   26   33 ar
  43   26   27 ar
  44   27   28 ar
  45   27   47 1
  46   28   29 1
  47   28   30 ar
  48   29   48 1
  49   29   49 1
  50   29   50 1
  51   30   31 ar
  52   31   32 1
  53   31   33 ar
  54   32   51 1
  55   32   52 1
  56   32   53 1
  57   33   54 1

#	End of record

