#	Name: ASD01028267
#	Creating user name:	WinNT
#	Creation time:	15. 06. 2019 18:56

#	Modifying user name:	WinNT
#	Modification time:	15. 06. 2019 18:56

#	Program:	/corina/corina34_cracker 3.40 0067  02.08.2006

@<TRIPOS>MOLECULE
ASD01028267
  51   55    0    0    0
SMALL
NO_CHARGES


@<TRIPOS>ATOM
   1 C1            -0.0166     1.3719     0.0096 C.ar    
   2 C2             0.0021    -0.0041     0.0020 C.ar    
   3 C3             1.1750     2.1035     0.0021 C.ar    
   4 C4             2.3797     1.4715    -0.0128 C.ar    
   5 C5             2.4326     0.0695    -0.0208 C.ar    
   6 C6             1.2322    -0.6815    -0.0134 C.ar    
   7 C7             3.6676    -0.6170    -0.0367 C.ar    
   8 C8             3.6411    -2.0003    -0.0444 C.ar    
   9 C9             2.4221    -2.6660    -0.0364 C.ar    
  10 N10            1.2804    -2.0188    -0.0211 N.ar    
  11 O11            4.8427     0.0593    -0.0447 O.3     
  12 C12            6.0400    -0.7207    -0.0607 C.3     
  13 C13            7.2364     0.1957    -0.0676 C.2     
  14 N14            7.8866     0.6794     1.0265 N.pl3   
  15 C15            8.9041     1.4649     0.5422 C.2     
  16 N16            8.8256     1.4220    -0.7776 N.2     
  17 N17            7.8436     0.6672    -1.1257 N.2     
  18 C18            7.7077     0.5256     2.3675 C.2     
  19 C19            8.5387     1.1510     3.2500 C.2     
  20 C20            9.5954     1.9664     2.7738 C.2     
  21 C21            9.7748     2.1193     1.4374 C.2     
  22 C22            8.3366     0.9785     4.7036 C.2     
  23 O23           -1.2065     2.0271     0.0188 O.3     
  24 C24           -1.1606     3.4553     0.0263 C.3     
  25 C25            9.2154     0.3700     5.5524 C.2     
  26 S26            6.9312     1.5330     5.6031 S.3     
  27 C27            7.5987     0.9035     7.1031 C.2     
  28 C28            8.8139     0.3275     6.8594 C.2     
  29 C29            6.9534     0.9883     8.4145 C.2     
  30 N30            5.7514     1.5857     8.5367 N.am    
  31 O31            7.5024     0.5192     9.3945 O.2     
  32 C32            5.1057     1.6705     9.8490 C.3     
  33 H33           -0.9239    -0.5598     0.0082 H       
  34 H34            1.1387     3.1829     0.0079 H       
  35 H35            3.2932     2.0476    -0.0188 H       
  36 H36            4.5646    -2.5602    -0.0569 H       
  37 H37            2.4134    -3.7460    -0.0425 H       
  38 H38            6.0728    -1.3543     0.8256 H       
  39 H39            6.0552    -1.3447    -0.9543 H       
  40 H40            6.9033    -0.0948     2.7343 H       
  41 H41           10.2546     2.4627     3.4705 H       
  42 H42           10.5769     2.7379     1.0628 H       
  43 H43           -0.6396     3.8068    -0.8642 H       
  44 H44           -2.1761     3.8514     0.0333 H       
  45 H45           -0.6312     3.7971     0.9157 H       
  46 H46           10.1543    -0.0459     5.2180 H       
  47 H47            9.4095    -0.1272     7.6372 H       
  48 H48            5.3140     1.9595     7.7558 H       
  49 H49            4.1488     2.1832     9.7506 H       
  50 H50            4.9412     0.6659    10.2386 H       
  51 H51            5.7465     2.2256    10.5341 H       
@<TRIPOS>BOND
   1    1    2 ar
   2    1    3 ar
   3    1   23 1
   4    2    6 ar
   5    2   33 1
   6    3    4 ar
   7    3   34 1
   8    4    5 ar
   9    4   35 1
  10    5    6 ar
  11    5    7 ar
  12    6   10 ar
  13    7    8 ar
  14    7   11 1
  15    8    9 ar
  16    8   36 1
  17    9   10 ar
  18    9   37 1
  19   11   12 1
  20   12   13 1
  21   12   38 1
  22   12   39 1
  23   13   14 1
  24   13   17 2
  25   14   15 1
  26   14   18 1
  27   15   16 2
  28   15   21 1
  29   16   17 1
  30   18   19 2
  31   18   40 1
  32   19   20 1
  33   19   22 1
  34   20   21 2
  35   20   41 1
  36   21   42 1
  37   22   26 1
  38   22   25 2
  39   23   24 1
  40   24   43 1
  41   24   44 1
  42   24   45 1
  43   25   28 1
  44   25   46 1
  45   26   27 1
  46   27   28 2
  47   27   29 1
  48   28   47 1
  49   29   30 am
  50   29   31 2
  51   30   32 1
  52   30   48 1
  53   32   49 1
  54   32   50 1
  55   32   51 1

#	End of record

