#	Name: ASD08150048
#	Creating user name:	WinNT
#	Creation time:	15. 06. 2019 21:15

#	Modifying user name:	WinNT
#	Modification time:	15. 06. 2019 21:15

#	Program:	/corina/corina34_cracker 3.40 0067  02.08.2006

@<TRIPOS>MOLECULE
ASD08150048
  52   56    0    0    0
SMALL
NO_CHARGES


@<TRIPOS>ATOM
   1 N1            -0.0155     1.2942     0.0092 N.2     
   2 C2             0.0021    -0.0041     0.0020 C.2     
   3 N3             1.1489    -0.7360    -0.0124 N.am    
   4 C4             2.3562    -0.1243    -0.0206 C.2     
   5 C5             2.3705     1.3450    -0.0133 C.ar    
   6 C6             3.5614     2.0710    -0.0204 C.ar    
   7 C7             3.5160     3.4496    -0.0126 C.ar    
   8 C8             2.2980     4.1155     0.0026 C.ar    
   9 C9             1.1114     3.4169     0.0098 C.ar    
  10 C10            1.1299     2.0209     0.0021 C.ar    
  11 O11            3.3903    -0.7666    -0.0332 O.2     
  12 C12            1.0795    -2.1349    -0.0184 C.ar    
  13 C13            1.0566    -2.8356     1.1805 C.ar    
  14 C14            0.9882    -4.2148     1.1713 C.ar    
  15 C15            0.9430    -4.8983    -0.0301 C.ar    
  16 C16            0.9662    -4.2037    -1.2254 C.ar    
  17 C17            1.0278    -2.8237    -1.2228 C.ar    
  18 C18            1.1067    -2.0916     2.4901 C.3     
  19 C19           -0.1516    -2.4038     3.3026 C.3     
  20 C20            2.3437    -2.5282     3.2777 C.3     
  21 Cl21           5.0888     1.2461    -0.0382 Cl      
  22 C22           -1.3145    -0.7374     0.0106 C.3     
  23 N23           -3.9895     1.5401     0.7794 N.2     
  24 C24           -3.0705     0.6878     1.1299 C.2     
  25 N25           -2.4131     0.2317     0.0263 N.pl3   
  26 C26           -2.9686     0.8469    -1.0670 C.ar    
  27 N27           -2.7535     0.8048    -2.3776 N.ar    
  28 C28           -3.4758     1.5362    -3.2000 C.ar    
  29 N29           -4.4362     2.3381    -2.7778 N.ar    
  30 C30           -4.7238     2.4462    -1.4847 C.ar    
  31 C31           -3.9802     1.6847    -0.5675 C.ar    
  32 N32           -5.7320     3.2897    -1.0518 N.pl3   
  33 H33            4.4358     4.0157    -0.0180 H       
  34 H34            2.2809     5.1954     0.0093 H       
  35 H35            0.1703     3.9466     0.0216 H       
  36 H36            0.9703    -4.7602     2.1033 H       
  37 H37            0.8899    -5.9770    -0.0347 H       
  38 H38            0.9315    -4.7404    -2.1620 H       
  39 H39            1.0407    -2.2814    -2.1566 H       
  40 H40            1.1582    -1.0200     2.2974 H       
  41 H41           -0.2031    -3.4754     3.4952 H       
  42 H42           -0.1153    -1.8656     4.2498 H       
  43 H43           -1.0328    -2.0927     2.7415 H       
  44 H44            2.2922    -3.5998     3.4703 H       
  45 H45            3.2401    -2.3058     2.6989 H       
  46 H46            2.3799    -1.9901     4.2249 H       
  47 H47           -1.3904    -1.3583    -0.8820 H       
  48 H48           -1.3734    -1.3678     0.8979 H       
  49 H49           -2.8597     0.3866     2.1454 H       
  50 H50           -3.2751     1.4785    -4.2596 H       
  51 H51           -6.2381     3.8106    -1.6947 H       
  52 H52           -5.9324     3.3600    -0.1053 H       
@<TRIPOS>BOND
   1    1    2 2
   2    1   10 1
   3    2    3 1
   4    2   22 1
   5    3    4 am
   6    3   12 1
   7    4    5 1
   8    4   11 2
   9    5    6 ar
  10    5   10 ar
  11    6    7 ar
  12    6   21 1
  13    7    8 ar
  14    7   33 1
  15    8    9 ar
  16    8   34 1
  17    9   10 ar
  18    9   35 1
  19   12   13 ar
  20   12   17 ar
  21   13   14 ar
  22   13   18 1
  23   14   15 ar
  24   14   36 1
  25   15   16 ar
  26   15   37 1
  27   16   17 ar
  28   16   38 1
  29   17   39 1
  30   18   19 1
  31   18   20 1
  32   18   40 1
  33   19   41 1
  34   19   42 1
  35   19   43 1
  36   20   44 1
  37   20   45 1
  38   20   46 1
  39   22   25 1
  40   22   47 1
  41   22   48 1
  42   23   24 2
  43   23   31 1
  44   24   25 1
  45   24   49 1
  46   25   26 1
  47   26   27 ar
  48   26   31 ar
  49   27   28 ar
  50   28   29 ar
  51   28   50 1
  52   29   30 ar
  53   30   31 ar
  54   30   32 1
  55   32   51 1
  56   32   52 1

#	End of record

