#	Name: ASD01870068
#	Creating user name:	WinNT
#	Creation time:	15. 06. 2019 19:38

#	Modifying user name:	WinNT
#	Modification time:	15. 06. 2019 19:38

#	Program:	/corina/corina34_cracker 3.40 0067  02.08.2006

@<TRIPOS>MOLECULE
ASD01870068
  41   44    0    0    0
SMALL
NO_CHARGES


@<TRIPOS>ATOM
   1 C1             0.0117     1.2649    -0.3707 C.ar    
   2 C2            -0.0277     0.1139     0.3927 C.ar    
   3 N3             1.0646    -0.3886     0.9235 N.ar    
   4 C4             2.2672     0.1761     0.7591 C.ar    
   5 C5             2.3942     1.3369     0.0040 C.ar    
   6 C6             1.2287     1.8991    -0.5791 C.ar    
   7 S7             3.8350    -0.3263     1.3750 S.3     
   8 C8             4.6626     1.0233     0.6184 C.2     
   9 C9             3.7755     1.8203    -0.0736 C.2     
  10 C10            6.0379     1.3783     0.6251 C.2     
  11 N11            6.4263     2.4813    -0.0452 N.am    
  12 C12            5.5079     3.2305    -0.7107 C.2     
  13 N13            4.2488     2.9178    -0.7251 N.2     
  14 N14            1.3042     3.0562    -1.3413 N.pl3   
  15 C15            7.7758     2.8557    -0.0555 C.ar    
  16 O16            6.8522     0.6979     1.2265 O.2     
  17 C17            0.0908     3.6223    -1.9356 C.3     
  18 C18            8.6217     2.3820    -1.0497 C.ar    
  19 C19            9.9519     2.7534    -1.0573 C.ar    
  20 C20           10.4418     3.5957    -0.0761 C.ar    
  21 C21            9.6021     4.0687     0.9156 C.ar    
  22 C22            8.2695     3.7059     0.9252 C.ar    
  23 C23           11.8939     3.9985    -0.0872 C.3     
  24 C24           12.0622     5.2773    -0.9102 C.3     
  25 C25            0.4354     4.8386    -2.6898 C.1     
  26 N26            0.7012     5.7773    -3.2718 N.1     
  27 H27           -0.8935     1.6641    -0.8040 H       
  28 H28           -0.9732    -0.3816     0.5565 H       
  29 H29            5.8356     4.1115    -1.2425 H       
  30 H30            2.1605     3.4902    -1.4805 H       
  31 H31           -0.3586     2.8924    -2.6090 H       
  32 H32           -0.6177     3.8729    -1.1461 H       
  33 H33            8.2399     1.7236    -1.8159 H       
  34 H34           10.6103     2.3853    -1.8303 H       
  35 H35            9.9878     4.7261     1.6808 H       
  36 H36            7.6141     4.0760     1.6997 H       
  37 H37           12.2292     4.1772     0.9345 H       
  38 H38           12.4891     3.2002    -0.5305 H       
  39 H39           11.7269     5.0986    -1.9318 H       
  40 H40           11.4670     6.0756    -0.4669 H       
  41 H41           13.1125     5.5686    -0.9182 H       
@<TRIPOS>BOND
   1    1    2 ar
   2    1    6 ar
   3    1   27 1
   4    2    3 ar
   5    2   28 1
   6    3    4 ar
   7    4    5 ar
   8    4    7 1
   9    5    6 ar
  10    5    9 1
  11    6   14 1
  12    7    8 1
  13    8    9 2
  14    8   10 1
  15    9   13 1
  16   10   11 am
  17   10   16 2
  18   11   12 1
  19   11   15 1
  20   12   13 2
  21   12   29 1
  22   14   17 1
  23   14   30 1
  24   15   18 ar
  25   15   22 ar
  26   17   25 1
  27   17   31 1
  28   17   32 1
  29   18   19 ar
  30   18   33 1
  31   19   20 ar
  32   19   34 1
  33   20   21 ar
  34   20   23 1
  35   21   22 ar
  36   21   35 1
  37   22   36 1
  38   23   24 1
  39   23   37 1
  40   23   38 1
  41   24   39 1
  42   24   40 1
  43   24   41 1
  44   25   26 3

#	End of record

