#	Name: ASD05720038
#	Creating user name:	WinNT
#	Creation time:	15. 06. 2019 21:01

#	Modifying user name:	WinNT
#	Modification time:	15. 06. 2019 21:01

#	Program:	/corina/corina34_cracker 3.40 0067  02.08.2006

@<TRIPOS>MOLECULE
ASD05720038
  51   55    0    0    0
SMALL
NO_CHARGES


@<TRIPOS>ATOM
   1 O1             0.7983     2.2333    -0.0353 O.3     
   2 C2             1.6566     1.3400    -0.5399 C.2     
   3 N3             1.4401     0.0849    -0.1232 N.am    
   4 C4             0.2872     0.0789     0.7904 C.3     
   5 C5            -0.1459     1.5567     0.8442 C.3     
   6 O6             2.5504     1.6391    -1.3066 O.2     
   7 C7             0.7044    -0.4098     2.1789 C.3     
   8 C8             0.5320    -1.9280     2.2583 C.3     
   9 C9             1.1065    -2.4381     3.5814 C.3     
  10 C10           -0.9556    -2.2772     2.1799 C.3     
  11 C11            4.1680    -1.9483    -1.2315 C.2     
  12 N12            3.4393    -0.8873    -0.8713 N.2     
  13 C13            2.1827    -1.0285    -0.4937 C.2     
  14 C14            1.5939    -2.3091    -0.4659 C.2     
  15 C15            2.3285    -3.3849    -0.8293 C.2     
  16 N16            3.6277    -3.2068    -1.2162 N.pl3   
  17 N17            4.6150    -4.1045    -1.6377 N.2     
  18 C18            5.7153    -3.4443    -1.9032 C.2     
  19 C19            5.4919    -2.0816    -1.6711 C.2     
  20 C20            6.4714    -0.9871    -1.8538 C.ar    
  21 C21            7.7027    -1.0351    -1.1977 C.ar    
  22 C22            8.6135    -0.0165    -1.3681 C.ar    
  23 C23            8.3061     1.0631    -2.1961 C.ar    
  24 C24            7.0760     1.1116    -2.8519 C.ar    
  25 C25            6.1667     0.0909    -2.6869 C.ar    
  26 N26           10.2833     3.9960    -3.0126 N.pl3   
  27 N27            9.1146     3.2261    -3.1298 N.2     
  28 C28            9.2873     2.1600    -2.3788 C.2     
  29 N29           10.4966     2.2299    -1.8055 N.2     
  30 C30           11.1005     3.3268    -2.1797 C.2     
  31 H31           -0.5151    -0.5409     0.3902 H       
  32 H32           -0.0647     1.9419     1.8607 H       
  33 H33           -1.1640     1.6703     0.4717 H       
  34 H34            1.7488    -0.1530     2.3559 H       
  35 H35            0.0799     0.0667     2.9346 H       
  36 H36            1.0596    -2.3975     1.4280 H       
  37 H37            0.5232    -2.0361     4.4098 H       
  38 H38            1.0627    -3.5270     3.6008 H       
  39 H39            2.1431    -2.1145     3.6762 H       
  40 H40           -1.3562    -1.9474     1.2213 H       
  41 H41           -1.0811    -3.3558     2.2744 H       
  42 H42           -1.4892    -1.7771     2.9881 H       
  43 H43            0.5661    -2.4300    -0.1569 H       
  44 H44            1.8939    -4.3735    -0.8137 H       
  45 H45            6.6417    -3.8794    -2.2480 H       
  46 H46            7.9408    -1.8707    -0.5562 H       
  47 H47            9.5659    -0.0533    -0.8603 H       
  48 H48            6.8386     1.9478    -3.4929 H       
  49 H49            5.2162     0.1263    -3.1986 H       
  50 H50           10.4668     4.8422    -3.4498 H       
  51 H51           12.0869     3.6419    -1.8730 H       
@<TRIPOS>BOND
   1    1    2 1
   2    1    5 1
   3    2    3 am
   4    2    6 2
   5    3    4 1
   6    3   13 1
   7    4    5 1
   8    4    7 1
   9    4   31 1
  10    5   32 1
  11    5   33 1
  12    7    8 1
  13    7   34 1
  14    7   35 1
  15    8    9 1
  16    8   10 1
  17    8   36 1
  18    9   37 1
  19    9   38 1
  20    9   39 1
  21   10   40 1
  22   10   41 1
  23   10   42 1
  24   11   12 1
  25   11   16 1
  26   11   19 2
  27   12   13 2
  28   13   14 1
  29   14   15 2
  30   14   43 1
  31   15   16 1
  32   15   44 1
  33   16   17 1
  34   17   18 2
  35   18   19 1
  36   18   45 1
  37   19   20 1
  38   20   21 ar
  39   20   25 ar
  40   21   22 ar
  41   21   46 1
  42   22   23 ar
  43   22   47 1
  44   23   24 ar
  45   23   28 1
  46   24   25 ar
  47   24   48 1
  48   25   49 1
  49   26   27 1
  50   26   30 1
  51   26   50 1
  52   27   28 2
  53   28   29 1
  54   29   30 2
  55   30   51 1

#	End of record

