#	Name: ASD01901053
#	Creating user name:	WinNT
#	Creation time:	15. 06. 2019 19:53

#	Modifying user name:	WinNT
#	Modification time:	15. 06. 2019 19:53

#	Program:	/corina/corina34_cracker 3.40 0067  02.08.2006

@<TRIPOS>MOLECULE
ASD01901053
  44   47    0    0    0
SMALL
NO_CHARGES


@<TRIPOS>ATOM
   1 C1             0.9853     3.1576     0.7501 C.ar    
   2 C2             2.0492     3.6082     1.5287 C.ar    
   3 C3             3.2483     2.9142     1.4963 C.ar    
   4 C4             3.3420     1.7933     0.6861 C.ar    
   5 C5             2.2432     1.4021    -0.0619 C.ar    
   6 N6             1.1167     2.0792    -0.0125 N.ar    
   7 C7            -0.3050     3.8845     0.7782 C.2     
   8 O8            -0.4323     4.8696     1.4784 O.2     
   9 N9            -1.3378     3.4535     0.0271 N.am    
  10 C10           -2.5840     4.0799     0.1267 C.ar    
  11 C11           -2.6591     5.4507     0.3375 C.ar    
  12 C12           -3.8915     6.0664     0.4349 C.ar    
  13 C13           -5.0499     5.3195     0.3232 C.ar    
  14 C14           -4.9787     3.9545     0.1133 C.ar    
  15 C15           -3.7495     3.3336     0.0092 C.ar    
  16 S16           -6.6202     6.1087     0.4492 S.o2    
  17 O17           -7.5432     5.1046     0.8480 O.2     
  18 O18           -6.4094     7.3067     1.1839 O.2     
  19 N19           -7.0615     6.5690    -1.0791 N.am    
  20 C20           -7.8300     5.7443    -2.0153 C.3     
  21 C21           -7.9805     6.6051    -3.2804 C.3     
  22 C22           -7.2611     7.8936    -2.9505 C.ar    
  23 C23           -7.0641     9.0386    -3.6985 C.ar    
  24 C24           -6.3595    10.1025    -3.1669 C.ar    
  25 C25           -5.8518    10.0188    -1.8832 C.ar    
  26 C26           -6.0460     8.8789    -1.1330 C.ar    
  27 C27           -6.7609     7.8015    -1.6612 C.ar    
  28 H28            1.9411     4.4860     2.1485 H       
  29 H29            4.0908     3.2395     2.0886 H       
  30 H30            4.2625     1.2305     0.6380 H       
  31 H31            2.3128     0.5295    -0.6945 H       
  32 H32           -1.2166     2.7088    -0.5824 H       
  33 H33           -1.7547     6.0345     0.4256 H       
  34 H34           -3.9505     7.1322     0.5988 H       
  35 H35           -5.8853     3.3740     0.0268 H       
  36 H36           -3.6945     2.2681    -0.1588 H       
  37 H37           -7.2876     4.8270    -2.2444 H       
  38 H38           -8.8095     5.5112    -1.5978 H       
  39 H39           -7.5102     6.1143    -4.1325 H       
  40 H40           -9.0333     6.7990    -3.4854 H       
  41 H41           -7.4613     9.1024    -4.7008 H       
  42 H42           -6.2056    10.9966    -3.7528 H       
  43 H43           -5.3009    10.8493    -1.4672 H       
  44 H44           -5.6466     8.8199    -0.1314 H       
@<TRIPOS>BOND
   1    1    2 ar
   2    1    6 ar
   3    1    7 1
   4    2    3 ar
   5    2   28 1
   6    3    4 ar
   7    3   29 1
   8    4    5 ar
   9    4   30 1
  10    5    6 ar
  11    5   31 1
  12    7    8 2
  13    7    9 am
  14    9   10 1
  15    9   32 1
  16   10   11 ar
  17   10   15 ar
  18   11   12 ar
  19   11   33 1
  20   12   13 ar
  21   12   34 1
  22   13   14 ar
  23   13   16 1
  24   14   15 ar
  25   14   35 1
  26   15   36 1
  27   16   17 2
  28   16   18 2
  29   16   19 am
  30   19   20 1
  31   19   27 1
  32   20   21 1
  33   20   37 1
  34   20   38 1
  35   21   22 1
  36   21   39 1
  37   21   40 1
  38   22   23 ar
  39   22   27 ar
  40   23   24 ar
  41   23   41 1
  42   24   25 ar
  43   24   42 1
  44   25   26 ar
  45   25   43 1
  46   26   27 ar
  47   26   44 1

#	End of record

