#	Name: ASD05430029
#	Creating user name:	WinNT
#	Creation time:	15. 06. 2019 20:59

#	Modifying user name:	WinNT
#	Modification time:	15. 06. 2019 20:59

#	Program:	/corina/corina34_cracker 3.40 0067  02.08.2006

@<TRIPOS>MOLECULE
ASD05430029
  63   69    0    0    0
SMALL
NO_CHARGES


@<TRIPOS>ATOM
   1 C1             0.0717     1.1593     0.4491 C.ar    
   2 C2             0.0167    -0.0118    -0.3163 C.ar    
   3 C3             1.1434    -0.4699    -0.9829 C.ar    
   4 C4             2.3326     0.2211    -0.9012 C.ar    
   5 C5             2.4022     1.3911    -0.1361 C.ar    
   6 C6             1.2692     1.8470     0.5358 C.ar    
   7 C7             4.8692    -0.0319     0.1672 C.3     
   8 C8             4.8361     1.4743     0.0341 C.2     
   9 C9             3.6675     2.1376    -0.0414 C.2     
  10 C10            6.2111    -0.4780     0.7378 C.3     
  11 C11            6.8862     0.5489     1.6453 C.3     
  12 N12            7.1056     1.7796     0.8849 N.pl3   
  13 C13            6.1211     2.1942    -0.0099 C.2     
  14 N14           -1.1853    -0.7265    -0.4092 N.pl3   
  15 C15           -1.9753    -1.1155     0.6250 C.2     
  16 C16           -1.7888    -1.1598    -1.5613 C.2     
  17 C17           -2.9158    -1.7993    -1.1946 C.2     
  18 N18           -3.0048    -1.7572     0.1431 N.2     
  19 C19           -3.9079    -2.4463    -2.1263 C.3     
  20 C20           -0.3076     2.6733     2.1147 C.3     
  21 O21           -0.9093     1.7838     1.1586 O.3     
  22 C22            8.3117     2.5910     1.0433 C.3     
  23 C23            8.7017     3.1472    -0.3308 C.3     
  24 O24            7.5901     3.8129    -0.9215 O.3     
  25 N25            6.3468     3.1543    -0.8457 N.2     
  26 C26            8.0375     3.7288     1.9926 C.ar    
  27 C27            8.9942     4.1020     2.9181 C.ar    
  28 C28            8.7440     5.1455     3.7889 C.ar    
  29 C29            7.5345     5.8173     3.7342 C.ar    
  30 C30            6.5771     5.4426     2.8068 C.ar    
  31 C31            6.8316     4.4022     1.9335 C.ar    
  32 F32            7.2886     6.8373     4.5852 F       
  33 C33            6.1794    -1.8920     1.3400 C.3     
  34 O34            7.4355    -2.0855     0.6582 O.3     
  35 C35            7.1590    -1.0641    -0.3217 C.3     
  36 C36            1.0339     3.0425     1.4382 C.3     
  37 H37            1.0883    -1.3748    -1.5699 H       
  38 H38            3.2064    -0.1383    -1.4243 H       
  39 H39            4.0684    -0.3536     0.8330 H       
  40 H40            4.7250    -0.4847    -0.8138 H       
  41 H41            3.6579     3.2175    -0.0326 H       
  42 H42            6.2443     0.7579     2.5011 H       
  43 H43            7.8430     0.1577     1.9910 H       
  44 H44           -1.7837    -0.9259     1.6708 H       
  45 H45           -1.4296    -1.0155    -2.5696 H       
  46 H46           -3.6262    -3.4862    -2.2918 H       
  47 H47           -4.9028    -2.4054    -1.6830 H       
  48 H48           -3.9121    -1.9151    -3.0782 H       
  49 H49           -0.9246     3.5602     2.2591 H       
  50 H50           -0.1350     2.1629     3.0622 H       
  51 H51            9.1212     1.9737     1.4330 H       
  52 H52            9.5254     3.8517    -0.2153 H       
  53 H53            9.0171     2.3276    -0.9765 H       
  54 H54            9.9374     3.5776     2.9609 H       
  55 H55            9.4914     5.4367     4.5121 H       
  56 H56            5.6333     5.9659     2.7632 H       
  57 H57            6.0849     4.1097     1.2101 H       
  58 H58            6.2598    -1.9105     2.4269 H       
  59 H59            5.3702    -2.5155     0.9598 H       
  60 H60            6.6508    -1.4332    -1.2126 H       
  61 H61            8.0141    -0.4276    -0.5492 H       
  62 H62            1.8300     3.1357     2.1769 H       
  63 H63            0.9369     3.9580     0.8546 H       
@<TRIPOS>BOND
   1    1    2 ar
   2    1    6 ar
   3    1   21 1
   4    2    3 ar
   5    2   14 1
   6    3    4 ar
   7    3   37 1
   8    4    5 ar
   9    4   38 1
  10    5    6 ar
  11    5    9 1
  12    6   36 1
  13    7    8 1
  14    7   10 1
  15    7   39 1
  16    7   40 1
  17    8    9 2
  18    8   13 1
  19    9   41 1
  20   10   11 1
  21   10   33 1
  22   10   35 1
  23   11   12 1
  24   11   42 1
  25   11   43 1
  26   12   13 1
  27   12   22 1
  28   13   25 2
  29   14   15 1
  30   14   16 1
  31   15   18 2
  32   15   44 1
  33   16   17 2
  34   16   45 1
  35   17   18 1
  36   17   19 1
  37   19   46 1
  38   19   47 1
  39   19   48 1
  40   20   21 1
  41   20   36 1
  42   20   49 1
  43   20   50 1
  44   22   23 1
  45   22   26 1
  46   22   51 1
  47   23   24 1
  48   23   52 1
  49   23   53 1
  50   24   25 1
  51   26   27 ar
  52   26   31 ar
  53   27   28 ar
  54   27   54 1
  55   28   29 ar
  56   28   55 1
  57   29   30 ar
  58   29   32 1
  59   30   31 ar
  60   30   56 1
  61   31   57 1
  62   33   34 1
  63   33   58 1
  64   33   59 1
  65   34   35 1
  66   35   60 1
  67   35   61 1
  68   36   62 1
  69   36   63 1

#	End of record

