#	Name: ASD05730049
#	Creating user name:	WinNT
#	Creation time:	15. 06. 2019 21:02

#	Modifying user name:	WinNT
#	Modification time:	15. 06. 2019 21:02

#	Program:	/corina/corina34_cracker 3.40 0067  02.08.2006

@<TRIPOS>MOLECULE
ASD05730049
  92   97    0    0    0
SMALL
NO_CHARGES


@<TRIPOS>ATOM
   1 N1            -0.4611     0.8452    -0.8332 N.pl3   
   2 C2            -0.2986    -0.5262    -0.6076 C.ar    
   3 C3             0.8101    -0.9888     0.0893 C.ar    
   4 C4             0.9704    -2.3419     0.3119 C.ar    
   5 C5             0.0230    -3.2404    -0.1611 C.ar    
   6 C6            -1.0856    -2.7780    -0.8579 C.ar    
   7 C7            -1.2489    -1.4243    -1.0755 C.ar    
   8 N8             0.1859    -4.6132     0.0644 N.pl3   
   9 C9            -0.9120    -5.4013     0.3495 C.ar    
  10 N10           -0.7485    -6.7120     0.4462 N.ar    
  11 C11           -1.7805    -7.5023     0.7191 C.ar    
  12 C12           -3.0523    -6.9176     0.9035 C.ar    
  13 C13           -3.1731    -5.5243     0.7906 C.ar    
  14 N14           -2.0923    -4.8162     0.5220 N.ar    
  15 N15           -1.6204    -8.8612     0.8207 N.am    
  16 C16           -2.6706    -9.6581     1.0967 C.2     
  17 C17           -4.0033    -9.0838     1.2932 C.2     
  18 C18           -4.1724    -7.7286     1.1956 C.2     
  19 C19           -0.2937    -9.4515     0.6264 C.3     
  20 O20           -2.5112   -10.8626     1.1830 O.2     
  21 C21           -5.1581    -9.9613     1.5964 C.ar    
  22 C22           -5.6748   -10.0156     2.8904 C.ar    
  23 C23           -1.5673     1.3246    -1.6655 C.3     
  24 C24           -2.5403     2.1341    -0.8053 C.3     
  25 C25           -5.7358   -10.7315     0.5873 C.ar    
  26 C26           -6.8111   -11.5463     0.8750 C.ar    
  27 C27           -7.3172   -11.6002     2.1628 C.ar    
  28 C28           -6.7507   -10.8342     3.1672 C.ar    
  29 N29           -3.6384     2.6326    -1.6433 N.3     
  30 C30           -3.1396     3.5291    -2.6940 C.3     
  31 C31           -2.1845     2.7613    -3.6106 C.3     
  32 C32           -1.0176     2.2164    -2.7823 C.3     
  33 C33            0.4247    -9.5190     1.9494 C.2     
  34 N34            1.6703   -10.0295     2.0146 N.am    
  35 C35            2.4824   -10.1546     3.2338 C.3     
  36 C36            0.4715     1.8020    -0.2323 C.3     
  37 O37           -0.1181    -9.1139     2.9555 O.2     
  38 C38            2.4417   -10.5609     0.8762 C.3     
  39 C39            3.9241   -10.4318     1.3069 C.3     
  40 C40            3.8376   -10.7666     2.8208 C.3     
  41 S41           -4.9549    -9.0413     4.1699 S.o2    
  42 Cl42          -8.6709   -12.6273     2.5178 Cl      
  43 C43           -3.2806    -9.7124     4.3622 C.3     
  44 C44           -2.5443    -8.9399     5.4586 C.3     
  45 N45           -1.1884    -9.4834     5.6143 N.3     
  46 C46           -0.3734    -8.6240     6.4833 C.3     
  47 C47           -1.2286   -10.8606     6.1240 C.3     
  48 O48           -4.9068    -7.7293     3.6263 O.2     
  49 O49           -5.7429    -9.3309     5.3164 O.2     
  50 H50            1.5471    -0.2900     0.4568 H       
  51 H51            1.8328    -2.7017     0.8535 H       
  52 H52           -1.8224    -3.4768    -1.2256 H       
  53 H53           -2.1113    -1.0647    -1.6171 H       
  54 H54            1.0697    -5.0105     0.0202 H       
  55 H55           -4.1296    -5.0411     0.9250 H       
  56 H56           -5.1474    -7.2862     1.3375 H       
  57 H57           -0.3995   -10.4568     0.2187 H       
  58 H58            0.2795    -8.8366    -0.0674 H       
  59 H59           -2.0894     0.4734    -2.1024 H       
  60 H60           -2.9444     1.4981    -0.0177 H       
  61 H61           -2.0141     2.9769    -0.3570 H       
  62 H62           -5.3423   -10.6897    -0.4176 H       
  63 H63           -7.2592   -12.1431     0.0943 H       
  64 H64           -7.1493   -10.8799     4.1699 H       
  65 H65           -4.1659     1.8693    -2.0397 H       
  66 H66           -3.9790     3.9062    -3.2782 H       
  67 H67           -2.6106     4.3654    -2.2369 H       
  68 H68           -2.7165     1.9330    -4.0787 H       
  69 H69           -1.8024     3.4310    -4.3810 H       
  70 H70           -0.4621     3.0463    -2.3456 H       
  71 H71           -0.3574     1.6322    -3.4233 H       
  72 H72            2.6394    -9.1713     3.6771 H       
  73 H73            1.9819   -10.8095     3.9470 H       
  74 H74            1.3048     1.9740    -0.9135 H       
  75 H75           -0.0447     2.7435    -0.0446 H       
  76 H76            0.8482     1.4004     0.7084 H       
  77 H77            2.1874   -11.6061     0.7004 H       
  78 H78            2.2538    -9.9682    -0.0191 H       
  79 H79            4.5478   -11.1559     0.7827 H       
  80 H80            4.2898    -9.4171     1.1494 H       
  81 H81            4.6557   -10.2970     3.3670 H       
  82 H82            3.8367   -11.8452     2.9778 H       
  83 H83           -3.3406   -10.7654     4.6374 H       
  84 H84           -2.7391    -9.6131     3.4215 H       
  85 H85           -2.4843    -7.8869     5.1834 H       
  86 H86           -3.0858    -9.0393     6.3993 H       
  87 H87           -0.8382    -8.5569     7.4670 H       
  88 H88            0.6253    -9.0495     6.5816 H       
  89 H89           -0.3026    -7.6280     6.0462 H       
  90 H90           -1.7796   -11.4905     5.4256 H       
  91 H91           -0.2118   -11.2386     6.2298 H       
  92 H92           -1.7243   -10.8744     7.0946 H       
@<TRIPOS>BOND
   1    1    2 1
   2    1   36 1
   3    1   23 1
   4    2    3 ar
   5    2    7 ar
   6    3    4 ar
   7    3   50 1
   8    4    5 ar
   9    4   51 1
  10    5    6 ar
  11    5    8 1
  12    6    7 ar
  13    6   52 1
  14    7   53 1
  15    8    9 1
  16    8   54 1
  17    9   10 ar
  18    9   14 ar
  19   10   11 ar
  20   11   12 ar
  21   11   15 1
  22   12   13 ar
  23   12   18 1
  24   13   14 ar
  25   13   55 1
  26   15   16 am
  27   15   19 1
  28   16   17 1
  29   16   20 2
  30   17   18 2
  31   17   21 1
  32   18   56 1
  33   19   33 1
  34   19   57 1
  35   19   58 1
  36   21   22 ar
  37   21   25 ar
  38   22   41 1
  39   22   28 ar
  40   23   24 1
  41   23   32 1
  42   23   59 1
  43   24   29 1
  44   24   60 1
  45   24   61 1
  46   25   26 ar
  47   25   62 1
  48   26   27 ar
  49   26   63 1
  50   27   28 ar
  51   27   42 1
  52   28   64 1
  53   29   30 1
  54   29   65 1
  55   30   31 1
  56   30   66 1
  57   30   67 1
  58   31   32 1
  59   31   68 1
  60   31   69 1
  61   32   70 1
  62   32   71 1
  63   33   34 am
  64   33   37 2
  65   34   35 1
  66   34   38 1
  67   35   40 1
  68   35   72 1
  69   35   73 1
  70   36   74 1
  71   36   75 1
  72   36   76 1
  73   38   39 1
  74   38   77 1
  75   38   78 1
  76   39   40 1
  77   39   79 1
  78   39   80 1
  79   40   81 1
  80   40   82 1
  81   41   43 1
  82   41   48 2
  83   41   49 2
  84   43   44 1
  85   43   83 1
  86   43   84 1
  87   44   45 1
  88   44   85 1
  89   44   86 1
  90   45   46 1
  91   45   47 1
  92   46   87 1
  93   46   88 1
  94   46   89 1
  95   47   90 1
  96   47   91 1
  97   47   92 1

#	End of record

