#	Name: ASD03092941
#	Creating user name:	WinNT
#	Creation time:	15. 06. 2019 20:33

#	Modifying user name:	WinNT
#	Modification time:	15. 06. 2019 20:33

#	Program:	/corina/corina34_cracker 3.40 0067  02.08.2006

@<TRIPOS>MOLECULE
ASD03092941
  52   54    0    0    0
SMALL
NO_CHARGES


@<TRIPOS>ATOM
   1 C1            -0.4126     1.7164    -1.3606 C.3     
   2 C2            -0.5012     0.2398    -1.7513 C.3     
   3 C3             0.7124    -0.4899    -1.2359 C.2     
   4 O4             1.6105     0.1280    -0.6995 O.2     
   5 C5             0.8056    -1.8894    -1.3760 C.2     
   6 C6             1.2818    -2.5769    -2.4927 C.2     
   7 C7             1.1905    -3.9567    -2.1849 C.2     
   8 C8             0.6759    -4.0629    -0.9255 C.2     
   9 C9             0.4104    -5.3557    -0.1980 C.3     
  10 N10            0.4484    -2.8292    -0.4323 N.pl3   
  11 C11           -0.0959    -2.5336     0.8953 C.3     
  12 C12            1.5820    -5.0808    -3.0703 C.ar    
  13 C13            0.8989    -5.3001    -4.2647 C.ar    
  14 C14            1.2668    -6.3467    -5.0855 C.ar    
  15 C15            2.3135    -7.1786    -4.7235 C.ar    
  16 F16            2.6706    -8.2018    -5.5302 F       
  17 C17            2.9956    -6.9643    -3.5366 C.ar    
  18 C18            4.1338    -7.8725    -3.1484 C.3     
  19 C19            2.6380    -5.9172    -2.7125 C.ar    
  20 C20            1.7837    -1.9819    -3.7512 C.ar    
  21 C21            1.0945    -2.1875    -4.9471 C.ar    
  22 C22            1.5674    -1.6296    -6.1169 C.ar    
  23 C23            2.7224    -0.8681    -6.1062 C.ar    
  24 C24            3.4106    -0.6608    -4.9239 C.ar    
  25 C25            2.9448    -1.2081    -3.7462 C.ar    
  26 S26            3.3199    -0.1596    -7.6048 S.o2    
  27 N27            2.6267     1.3373    -7.7498 N.am    
  28 O28            4.7116     0.0591    -7.4183 O.2     
  29 O29            2.7921    -0.9503    -8.6609 O.2     
  30 H30           -0.3704     1.8031    -0.2749 H       
  31 H31            0.4862     2.1539    -1.7953 H       
  32 H32           -1.2904     2.2442    -1.7334 H       
  33 H33           -1.4000    -0.1977    -1.3166 H       
  34 H34           -0.5434     0.1531    -2.8370 H       
  35 H35            1.2967    -5.6428     0.3678 H       
  36 H36           -0.4290    -5.2228     0.4844 H       
  37 H37            0.1716    -6.1365    -0.9201 H       
  38 H38           -1.1752    -2.3992     0.8239 H       
  39 H39            0.1234    -3.3608     1.5703 H       
  40 H40            0.3592    -1.6207     1.2796 H       
  41 H41            0.0824    -4.6522    -4.5476 H       
  42 H42            0.7376    -6.5177    -6.0114 H       
  43 H43            5.0677    -7.4745    -3.5453 H       
  44 H44            4.1968    -7.9320    -2.0619 H       
  45 H45            3.9601    -8.8678    -3.5573 H       
  46 H46            3.1731    -5.7481    -1.7898 H       
  47 H47            0.1931    -2.7824    -4.9569 H       
  48 H48            1.0349    -1.7880    -7.0431 H       
  49 H49            4.3120    -0.0660    -4.9223 H       
  50 H50            3.4802    -1.0416    -2.8231 H       
  51 H51            2.0164     1.6574    -7.0671 H       
  52 H52            2.8309     1.8941    -8.5175 H       
@<TRIPOS>BOND
   1    1    2 1
   2    1   30 1
   3    1   31 1
   4    1   32 1
   5    2    3 1
   6    2   33 1
   7    2   34 1
   8    3    4 2
   9    3    5 1
  10    5   10 1
  11    5    6 2
  12    6    7 1
  13    6   20 1
  14    7    8 2
  15    7   12 1
  16    8    9 1
  17    8   10 1
  18    9   35 1
  19    9   36 1
  20    9   37 1
  21   10   11 1
  22   11   38 1
  23   11   39 1
  24   11   40 1
  25   12   19 ar
  26   12   13 ar
  27   13   14 ar
  28   13   41 1
  29   14   15 ar
  30   14   42 1
  31   15   16 1
  32   15   17 ar
  33   17   18 1
  34   17   19 ar
  35   18   43 1
  36   18   44 1
  37   18   45 1
  38   19   46 1
  39   20   25 ar
  40   20   21 ar
  41   21   22 ar
  42   21   47 1
  43   22   23 ar
  44   22   48 1
  45   23   24 ar
  46   23   26 1
  47   24   25 ar
  48   24   49 1
  49   25   50 1
  50   26   27 am
  51   26   28 2
  52   26   29 2
  53   27   51 1
  54   27   52 1

#	End of record

