#	Name: ASD00960248
#	Creating user name:	WinNT
#	Creation time:	15. 06. 2019 18:53

#	Modifying user name:	WinNT
#	Modification time:	15. 06. 2019 18:53

#	Program:	/corina/corina34_cracker 3.40 0067  02.08.2006

@<TRIPOS>MOLECULE
ASD00960248
  40   43    0    0    0
SMALL
NO_CHARGES


@<TRIPOS>ATOM
   1 C1            -0.0167     1.3827     0.0096 C.2     
   2 C2             0.0021    -0.0041     0.0020 C.2     
   3 N3             1.2816     1.8102    -0.0005 N.pl3   
   4 C4             2.0981     0.7198     0.0007 C.2     
   5 C5             1.3461    -0.3960    -0.0053 C.2     
   6 N6             1.7963     3.1154     0.0016 N.2     
   7 C7             3.0777     3.2787    -0.2228 C.2     
   8 N8             3.9037     2.2038    -0.5222 N.pl3   
   9 C9             3.6031     0.8666     0.0198 C.3     
  10 N10            4.1018     0.7586     1.3974 N.3     
  11 C11            3.6535     4.6324    -0.1565 C.2     
  12 S12            2.7601     6.1067     0.2075 S.3     
  13 C13            4.2460     7.0408     0.0452 C.2     
  14 C14            5.2410     6.1954    -0.2560 C.2     
  15 N15            4.9077     4.9319    -0.3521 N.2     
  16 C16           -1.2077     2.2322     0.0202 C.2     
  17 O17           -2.3146     1.7277     0.0234 O.2     
  18 O18           -1.0784     3.5751     0.0263 O.3     
  19 C19           -2.2836     4.3429     0.0365 C.3     
  20 C20           -1.9438     5.8110     0.0422 C.ar    
  21 C21           -1.7942     6.4905    -1.1523 C.ar    
  22 C22           -1.4826     7.8372    -1.1471 C.ar    
  23 C23           -1.3209     8.5046     0.0526 C.ar    
  24 C24           -1.4714     7.8254     1.2472 C.ar    
  25 C25           -1.7873     6.4796     1.2420 C.ar    
  26 H26           -0.8575    -0.6580     0.0023 H       
  27 H27            1.7134    -1.4115    -0.0136 H       
  28 H28            4.6802     2.3331    -1.0891 H       
  29 H29            4.0605     0.0994    -0.6049 H       
  30 H30            5.1003     0.8998     1.4326 H       
  31 H31            3.6235     1.4051     2.0068 H       
  32 H32            4.3383     8.1100     0.1668 H       
  33 H33            6.2556     6.5339    -0.4060 H       
  34 H34           -2.8707     4.1092    -0.8516 H       
  35 H35           -2.8614     4.1002     0.9283 H       
  36 H36           -1.9206     5.9691    -2.0896 H       
  37 H37           -1.3650     8.3679    -2.0803 H       
  38 H38           -1.0767     9.5566     0.0567 H       
  39 H39           -1.3447     8.3467     2.1845 H       
  40 H40           -1.9085     5.9498     2.1752 H       
@<TRIPOS>BOND
   1    1    2 2
   2    1    3 1
   3    1   16 1
   4    2    5 1
   5    2   26 1
   6    3    4 1
   7    3    6 1
   8    4    5 2
   9    4    9 1
  10    5   27 1
  11    6    7 2
  12    7    8 1
  13    7   11 1
  14    8    9 1
  15    8   28 1
  16    9   10 1
  17    9   29 1
  18   10   30 1
  19   10   31 1
  20   11   12 1
  21   11   15 2
  22   12   13 1
  23   13   14 2
  24   13   32 1
  25   14   15 1
  26   14   33 1
  27   16   17 2
  28   16   18 1
  29   18   19 1
  30   19   20 1
  31   19   34 1
  32   19   35 1
  33   20   21 ar
  34   20   25 ar
  35   21   22 ar
  36   21   36 1
  37   22   23 ar
  38   22   37 1
  39   23   24 ar
  40   23   38 1
  41   24   25 ar
  42   24   39 1
  43   25   40 1

#	End of record

