#	Name: ASD05513019
#	Creating user name:	WinNT
#	Creation time:	15. 06. 2019 21:01

#	Modifying user name:	WinNT
#	Modification time:	15. 06. 2019 21:01

#	Program:	/corina/corina34_cracker 3.40 0067  02.08.2006

@<TRIPOS>MOLECULE
ASD05513019
  33   35    0    0    0
SMALL
NO_CHARGES


@<TRIPOS>ATOM
   1 C1            -0.0067     1.4285     0.3278 C.2     
   2 C2             0.0021    -0.0041     0.0020 C.2     
   3 C3             1.1833    -0.6674    -0.1155 C.2     
   4 C4             2.3845    -0.5240     0.7325 C.ar    
   5 C5             3.3414    -1.4134     0.2217 C.ar    
   6 N6             2.8097    -2.0863    -0.8740 N.am    
   7 C7             1.5463    -1.7003    -1.1215 C.2     
   8 C8             2.6813     0.2703     1.8391 C.ar    
   9 C9             3.9254     0.1785     2.4333 C.ar    
  10 C10            4.8712    -0.6984     1.9303 C.ar    
  11 C11            4.5861    -1.4903     0.8347 C.ar    
  12 O12            0.8318    -2.1149    -2.0126 O.2     
  13 O13            1.0364     2.0545     0.3466 O.2     
  14 C14           -1.2812     2.1094     0.6262 C.ar    
  15 Cl15           1.4937     1.3699     2.4670 Cl      
  16 C16           -2.4859     1.4020     0.6019 C.ar    
  17 N17           -3.6230     2.0102     0.8678 N.ar    
  18 C18           -3.6687     3.3002     1.1654 C.ar    
  19 C19           -2.5078     4.0675     1.2081 C.ar    
  20 C20           -1.3013     3.4766     0.9444 C.ar    
  21 O21           -4.8630     3.8816     1.4316 O.3     
  22 C22           -6.0197     3.0446     1.3722 C.3     
  23 H23           -0.9296    -0.5303    -0.1441 H       
  24 H24            3.2887    -2.7527    -1.3911 H       
  25 H25            4.1603     0.7917     3.2908 H       
  26 H26            5.8418    -0.7645     2.3993 H       
  27 H27            5.3333    -2.1700     0.4527 H       
  28 H28           -2.4844     0.3488     0.3630 H       
  29 H29           -2.5581     5.1186     1.4513 H       
  30 H30           -0.3871     4.0510     0.9714 H       
  31 H31           -6.1144     2.6265     0.3700 H       
  32 H32           -5.9201     2.2354     2.0956 H       
  33 H33           -6.9067     3.6335     1.6055 H       
@<TRIPOS>BOND
   1    1    2 1
   2    1   13 2
   3    1   14 1
   4    2    3 2
   5    2   23 1
   6    3    4 1
   7    3    7 1
   8    4    5 ar
   9    4    8 ar
  10    5    6 1
  11    5   11 ar
  12    6    7 am
  13    6   24 1
  14    7   12 2
  15    8    9 ar
  16    8   15 1
  17    9   10 ar
  18    9   25 1
  19   10   11 ar
  20   10   26 1
  21   11   27 1
  22   14   16 ar
  23   14   20 ar
  24   16   17 ar
  25   16   28 1
  26   17   18 ar
  27   18   19 ar
  28   18   21 1
  29   19   20 ar
  30   19   29 1
  31   20   30 1
  32   21   22 1
  33   22   31 1
  34   22   32 1
  35   22   33 1

#	End of record

