#	Name: ASD00460009
#	Creating user name:	WinNT
#	Creation time:	15. 06. 2019 18:36

#	Modifying user name:	WinNT
#	Modification time:	15. 06. 2019 18:36

#	Program:	/corina/corina34_cracker 3.40 0067  02.08.2006

@<TRIPOS>MOLECULE
ASD00460009
  76   81    0    0    0
SMALL
NO_CHARGES


@<TRIPOS>ATOM
   1 C1             0.7480     2.5896     1.5312 C.ar    
   2 C2             0.6391     1.2178     1.6082 C.ar    
   3 C3             1.6936     0.4100     1.2157 C.ar    
   4 C4             2.8643     0.9699     0.7431 C.ar    
   5 C5             2.9914     2.3479     0.6588 C.ar    
   6 C6             1.9267     3.1691     1.0549 C.ar    
   7 O7             4.1414     2.8993     0.1950 O.3     
   8 C8             5.1829     1.9998    -0.1900 C.3     
   9 C9             6.3908     2.7992    -0.6828 C.3     
  10 C10            7.5490     1.8438    -0.9770 C.3     
  11 N11            8.7444     2.6190    -1.3349 N.3     
  12 C12            9.8794     1.7325    -1.6248 C.3     
  13 C13           11.1029     2.5743    -1.9926 C.3     
  14 C14           11.4249     3.5344    -0.8457 C.3     
  15 C15           12.7284     4.3107    -1.1296 C.3     
  16 C16           12.5025     5.6901    -0.5487 C.ar    
  17 C17           11.1514     5.8936    -0.3398 C.ar    
  18 C18           10.3770     4.6648    -0.7659 C.3     
  19 C19           13.4075     6.6885    -0.2288 C.ar    
  20 C20           12.9642     7.8855     0.2984 C.ar    
  21 C21           11.6128     8.0890     0.5074 C.ar    
  22 C22           10.7088     7.0949     0.1886 C.ar    
  23 O23            6.0408     3.5049    -1.8751 O.3     
  24 C24           10.1947     0.8870    -0.3892 C.3     
  25 C25            9.5226     0.8130    -2.7945 C.3     
  26 C26            1.5629    -1.0886     1.3055 C.3     
  27 C27            1.8666    -1.5748     2.7556 C.3     
  28 C28            1.0143    -0.6402     3.6673 C.3     
  29 C29           -0.4480    -1.0700     3.4092 C.3     
  30 C30           -0.3414    -2.2239     2.3659 C.3     
  31 C31            0.1007    -1.5184     1.0474 C.3     
  32 C32            1.0103    -2.8891     2.8062 C.3     
  33 C33            0.1962    -1.3032     4.7772 C.3     
  34 C34            2.0464     4.5936     0.9718 C.1     
  35 N35            2.1414     5.7237     0.9059 N.1     
  36 C36           -0.2615    -0.4311     5.9178 C.2     
  37 O37            0.0205     0.7438     5.9308 O.2     
  38 O38           -0.9823    -0.9594     6.9193 O.3     
  39 H39           -0.0783     3.2156     1.8344 H       
  40 H40           -0.2724     0.7708     1.9765 H       
  41 H41            3.6821     0.3334     0.4390 H       
  42 H42            5.4740     1.3928     0.6672 H       
  43 H43            4.8256     1.3513    -0.9899 H       
  44 H44            6.6932     3.5111     0.0853 H       
  45 H45            7.7575     1.2422    -0.0923 H       
  46 H46            7.2787     1.1895    -1.8058 H       
  47 H47            8.5574     3.2333    -2.1132 H       
  48 H48           11.9558     1.9185    -2.1677 H       
  49 H49           10.8924     3.1457    -2.8966 H       
  50 H50           11.4922     2.9969     0.1001 H       
  51 H51           13.5718     3.8265    -0.6373 H       
  52 H52           12.9032     4.3765    -2.2035 H       
  53 H53            9.9193     4.8258    -1.7420 H       
  54 H54            9.6148     4.4224    -0.0253 H       
  55 H55           14.4633     6.5303    -0.3917 H       
  56 H56           13.6726     8.6617     0.5475 H       
  57 H57           11.2644     9.0244     0.9197 H       
  58 H58            9.6533     7.2545     0.3521 H       
  59 H59            5.7610     2.9329    -2.6029 H       
  60 H60            9.3713     0.1983    -0.2005 H       
  61 H61           11.1101     0.3207    -0.5605 H       
  62 H62           10.3274     1.5398     0.4735 H       
  63 H63            9.2980     1.4154    -3.6747 H       
  64 H64           10.3648     0.1553    -3.0096 H       
  65 H65            8.6509     0.2134    -2.5324 H       
  66 H66            2.2338    -1.5710     0.5946 H       
  67 H67            2.9210    -1.6635     3.0174 H       
  68 H68            1.3122     0.4052     3.7484 H       
  69 H69           -1.2588    -0.3506     3.2947 H       
  70 H70           -1.2099    -2.8778     2.2882 H       
  71 H71           -0.5237    -0.6458     0.8556 H       
  72 H72            0.0513    -2.2137     0.2094 H       
  73 H73            1.3553    -3.6299     2.0848 H       
  74 H74            0.9537    -3.3017     3.8135 H       
  75 H75            0.4506    -2.3290     5.0441 H       
  76 H76           -1.2531    -0.3606     7.6287 H       
@<TRIPOS>BOND
   1    1    2 ar
   2    1    6 ar
   3    1   39 1
   4    2    3 ar
   5    2   40 1
   6    3    4 ar
   7    3   26 1
   8    4    5 ar
   9    4   41 1
  10    5    6 ar
  11    5    7 1
  12    6   34 1
  13    7    8 1
  14    8    9 1
  15    8   42 1
  16    8   43 1
  17    9   10 1
  18    9   23 1
  19    9   44 1
  20   10   11 1
  21   10   45 1
  22   10   46 1
  23   11   12 1
  24   11   47 1
  25   12   13 1
  26   12   24 1
  27   12   25 1
  28   13   14 1
  29   13   48 1
  30   13   49 1
  31   14   15 1
  32   14   18 1
  33   14   50 1
  34   15   16 1
  35   15   51 1
  36   15   52 1
  37   16   17 ar
  38   16   19 ar
  39   17   18 1
  40   17   22 ar
  41   18   53 1
  42   18   54 1
  43   19   20 ar
  44   19   55 1
  45   20   21 ar
  46   20   56 1
  47   21   22 ar
  48   21   57 1
  49   22   58 1
  50   23   59 1
  51   24   60 1
  52   24   61 1
  53   24   62 1
  54   25   63 1
  55   25   64 1
  56   25   65 1
  57   26   27 1
  58   26   31 1
  59   26   66 1
  60   27   28 1
  61   27   32 1
  62   27   67 1
  63   28   29 1
  64   28   33 1
  65   28   68 1
  66   29   30 1
  67   29   33 1
  68   29   69 1
  69   30   31 1
  70   30   32 1
  71   30   70 1
  72   31   71 1
  73   31   72 1
  74   32   73 1
  75   32   74 1
  76   33   36 1
  77   33   75 1
  78   34   35 3
  79   36   37 2
  80   36   38 1
  81   38   76 1

#	End of record

