#	Name: ASD02198781
#	Creating user name:	WinNT
#	Creation time:	15. 06. 2019 20:20

#	Modifying user name:	WinNT
#	Modification time:	15. 06. 2019 20:20

#	Program:	/corina/corina34_cracker 3.40 0067  02.08.2006

@<TRIPOS>MOLECULE
ASD02198781
  52   56    0    0    0
SMALL
NO_CHARGES


@<TRIPOS>ATOM
   1 F1             2.8099    -1.1568     3.0000 F       
   2 C2             0.2374     1.5470     0.1085 C.2     
   3 C3             0.2831     0.2526     0.5127 C.2     
   4 N4             1.4666    -0.3702     0.7112 N.pl3   
   5 N5             2.6008     0.2010     0.5365 N.2     
   6 C6             2.6997     1.4535     0.1454 C.2     
   7 C7             1.4663     2.2188    -0.0974 C.2     
   8 C8             1.4527    -1.7053     1.1289 C.ar    
   9 C9             2.1339    -2.0809     2.2828 C.ar    
  10 C10            2.1188    -3.4003     2.6943 C.ar    
  11 C11            1.4241    -4.3493     1.9564 C.ar    
  12 C12            0.7443    -3.9736     0.8045 C.ar    
  13 C13            0.7540    -2.6559     0.3952 C.ar    
  14 C14            4.0237     2.0798    -0.0454 C.2     
  15 N15            4.4791     2.6854    -1.1827 N.pl3   
  16 N16            5.7791     3.1417    -0.9317 N.2     
  17 C17            6.1042     2.8313     0.2979 C.2     
  18 C18            5.0298     2.1687     0.8915 C.2     
  19 C19            3.7724     2.8247    -2.3840 C.ar    
  20 C20            3.8072     4.0281    -3.0762 C.ar    
  21 C21            3.1093     4.1623    -4.2604 C.ar    
  22 C22            2.3764     3.0999    -4.7569 C.ar    
  23 C23            2.3394     1.9005    -4.0698 C.ar    
  24 C24            3.0402     1.7580    -2.8882 C.ar    
  25 O25            1.5016     3.3846    -0.4620 O.2     
  26 N26            1.4091    -5.6874     2.3735 N.pl3   
  27 N27            1.4588    -6.8123     1.5402 N.2     
  28 C28            1.4249    -7.8837     2.2908 C.2     
  29 C29            1.3525    -7.4843     3.6289 C.2     
  30 C30            1.3498    -6.1251     3.6594 C.2     
  31 O31            1.2893    -5.3471     4.7703 O.3     
  32 C32            1.3357    -6.0145     6.0330 C.3     
  33 C33            1.1389    -4.9946     7.1564 C.3     
  34 F34           -0.1029    -4.3682     7.0053 F       
  35 F35            1.1843    -5.6480     8.3927 F       
  36 F36            2.1553    -4.0350     7.0985 F       
  37 H37           -0.7057     2.0472    -0.0552 H       
  38 H38           -0.6377    -0.2870     0.6782 H       
  39 H39            2.6474    -3.6930     3.5895 H       
  40 H40            0.2043    -4.7127     0.2314 H       
  41 H41            0.2249    -2.3649    -0.5003 H       
  42 H42            7.0471     3.0544     0.7749 H       
  43 H43            4.9953     1.7882     1.9016 H       
  44 H44            4.3791     4.8582    -2.6887 H       
  45 H45            3.1356     5.0980    -4.7990 H       
  46 H46            1.8314     3.2074    -5.6831 H       
  47 H47            1.7655     1.0729    -4.4598 H       
  48 H48            3.0109     0.8209    -2.3520 H       
  49 H49            1.4488    -8.9037     1.9367 H       
  50 H50            1.3108    -8.1394     4.4865 H       
  51 H51            0.5438    -6.7621     6.0782 H       
  52 H52            2.3032    -6.5025     6.1507 H       
@<TRIPOS>BOND
   1    1    9 1
   2    2    3 2
   3    2    7 1
   4    2   37 1
   5    3    4 1
   6    3   38 1
   7    4    5 1
   8    4    8 1
   9    5    6 2
  10    6    7 1
  11    6   14 1
  12    7   25 2
  13    8    9 ar
  14    8   13 ar
  15    9   10 ar
  16   10   11 ar
  17   10   39 1
  18   11   12 ar
  19   11   26 1
  20   12   13 ar
  21   12   40 1
  22   13   41 1
  23   14   15 1
  24   14   18 2
  25   15   16 1
  26   15   19 1
  27   16   17 2
  28   17   18 1
  29   17   42 1
  30   18   43 1
  31   19   20 ar
  32   19   24 ar
  33   20   21 ar
  34   20   44 1
  35   21   22 ar
  36   21   45 1
  37   22   23 ar
  38   22   46 1
  39   23   24 ar
  40   23   47 1
  41   24   48 1
  42   26   27 1
  43   26   30 1
  44   27   28 2
  45   28   29 1
  46   28   49 1
  47   29   30 2
  48   29   50 1
  49   30   31 1
  50   31   32 1
  51   32   33 1
  52   32   51 1
  53   32   52 1
  54   33   34 1
  55   33   35 1
  56   33   36 1

#	End of record

