#	Name: ASD01881599
#	Creating user name:	WinNT
#	Creation time:	15. 06. 2019 19:43

#	Modifying user name:	WinNT
#	Modification time:	15. 06. 2019 19:43

#	Program:	/corina/corina34_cracker 3.40 0067  02.08.2006

@<TRIPOS>MOLECULE
ASD01881599
  62   65    0    0    0
SMALL
NO_CHARGES


@<TRIPOS>ATOM
   1 C1            -2.2266    -0.2813    -3.2899 C.3     
   2 C2            -1.4911    -1.2248    -2.3362 C.3     
   3 C3            -1.9078    -0.9206    -0.8958 C.3     
   4 O4            -1.8250    -2.5777    -2.6530 O.3     
   5 C5            -0.0042    -1.0271    -2.4814 C.ar    
   6 C6             0.8690    -1.7149    -1.6412 C.ar    
   7 C7             2.2445    -1.5194    -1.7900 C.ar    
   8 C8             2.6812    -0.6459    -2.7714 C.ar    
   9 C9             1.7510    -0.0009    -3.5655 C.ar    
  10 N10            0.4584    -0.2098    -3.4049 N.ar    
  11 C11            0.3466    -2.6396    -0.6048 C.ar    
  12 C12           -0.4228    -3.7412    -0.9742 C.ar    
  13 C13           -0.9056    -4.5982    -0.0063 C.ar    
  14 C14           -0.6275    -4.3650     1.3287 C.ar    
  15 C15            0.1352    -3.2731     1.7010 C.ar    
  16 C16            0.6285    -2.4128     0.7406 C.ar    
  17 C17           -1.7378    -5.7899    -0.4042 C.3     
  18 O18           -0.8836    -6.9124    -0.6330 O.3     
  19 N19           -3.0365   -11.7213    -2.1308 N.pl3   
  20 N20           -1.8208   -12.4163    -2.2119 N.2     
  21 N21           -0.8536   -11.6235    -1.9108 N.2     
  22 C22           -1.3274   -10.3957    -1.6193 C.ar    
  23 C23           -2.7261   -10.4345    -1.7537 C.ar    
  24 C24           -0.7095    -9.1968    -1.2380 C.ar    
  25 C25           -1.4803    -8.0771    -1.0026 C.ar    
  26 C26           -2.8652    -8.1310    -1.1403 C.ar    
  27 C27           -3.4816    -9.2932    -1.5099 C.ar    
  28 C28           -4.3729   -12.2577    -2.4005 C.3     
  29 C29           -4.9645   -12.8262    -1.1091 C.3     
  30 C30           -5.0626   -11.7158    -0.0611 C.3     
  31 C31           -6.3601   -13.3864    -1.3908 C.3     
  32 C32           -4.0623   -13.9448    -0.5840 C.3     
  33 Br33           1.1701    -9.1142    -1.0484 Br      
  34 H34           -1.9720     0.7506    -3.0483 H       
  35 H35           -1.9298    -0.4980    -4.3161 H       
  36 H36           -3.3021    -0.4243    -3.1849 H       
  37 H37           -2.9954    -0.9271    -0.8231 H       
  38 H38           -1.4947    -1.6786    -0.2302 H       
  39 H39           -1.5303     0.0605    -0.6078 H       
  40 H40           -1.6621    -2.8173    -3.5756 H       
  41 H41            2.9491    -2.0363    -1.1553 H       
  42 H42            3.7371    -0.4699    -2.9150 H       
  43 H43            2.0880     0.6814    -4.3318 H       
  44 H44           -0.6411    -3.9237    -2.0160 H       
  45 H45           -1.0077    -5.0380     2.0830 H       
  46 H46            0.3487    -3.0953     2.7446 H       
  47 H47            1.2280    -1.5631     1.0320 H       
  48 H48           -2.4409    -6.0252     0.3948 H       
  49 H49           -2.2883    -5.5603    -1.3166 H       
  50 H50           -3.4569    -7.2472    -0.9526 H       
  51 H51           -4.5561    -9.3249    -1.6137 H       
  52 H52           -5.0156   -11.4608    -2.7746 H       
  53 H53           -4.3029   -13.0487    -3.1471 H       
  54 H54           -5.7053   -10.9189    -0.4351 H       
  55 H55           -5.4841   -12.1208     0.8590 H       
  56 H56           -4.0683   -11.3167     0.1396 H       
  57 H57           -6.2901   -14.1774    -2.1374 H       
  58 H58           -6.7815   -13.7914    -0.4708 H       
  59 H59           -7.0028   -12.5894    -1.7649 H       
  60 H60           -3.0680   -13.5457    -0.3833 H       
  61 H61           -4.4838   -14.3498     0.3360 H       
  62 H62           -3.9924   -14.7358    -1.3306 H       
@<TRIPOS>BOND
   1    1    2 1
   2    1   34 1
   3    1   35 1
   4    1   36 1
   5    2    3 1
   6    2    4 1
   7    2    5 1
   8    3   37 1
   9    3   38 1
  10    3   39 1
  11    4   40 1
  12    5    6 ar
  13    5   10 ar
  14    6    7 ar
  15    6   11 1
  16    7    8 ar
  17    7   41 1
  18    8    9 ar
  19    8   42 1
  20    9   10 ar
  21    9   43 1
  22   11   12 ar
  23   11   16 ar
  24   12   13 ar
  25   12   44 1
  26   13   14 ar
  27   13   17 1
  28   14   15 ar
  29   14   45 1
  30   15   16 ar
  31   15   46 1
  32   16   47 1
  33   17   18 1
  34   17   48 1
  35   17   49 1
  36   18   25 1
  37   19   20 1
  38   19   23 1
  39   19   28 1
  40   20   21 2
  41   21   22 1
  42   22   23 ar
  43   22   24 ar
  44   23   27 ar
  45   24   25 ar
  46   24   33 1
  47   25   26 ar
  48   26   27 ar
  49   26   50 1
  50   27   51 1
  51   28   29 1
  52   28   52 1
  53   28   53 1
  54   29   30 1
  55   29   31 1
  56   29   32 1
  57   30   54 1
  58   30   55 1
  59   30   56 1
  60   31   57 1
  61   31   58 1
  62   31   59 1
  63   32   60 1
  64   32   61 1
  65   32   62 1

#	End of record

