#	Name: ASD01820058
#	Creating user name:	WinNT
#	Creation time:	15. 06. 2019 19:36

#	Modifying user name:	WinNT
#	Modification time:	15. 06. 2019 19:36

#	Program:	/corina/corina34_cracker 3.40 0067  02.08.2006

@<TRIPOS>MOLECULE
ASD01820058
  96   99    0    0    0
SMALL
NO_CHARGES


@<TRIPOS>ATOM
   1 C1            -0.0167     1.3779     0.0096 C.ar    
   2 C2             0.0021    -0.0041     0.0020 C.ar    
   3 C3             1.2065    -0.6905    -0.0132 C.ar    
   4 C4             2.3989     0.0148    -0.0209 C.ar    
   5 C5             2.3798     1.4244    -0.0131 C.ar    
   6 C6             1.1686     2.0969     0.0022 C.ar    
   7 C7             3.8260    -0.3702    -0.0371 C.2     
   8 N8             4.5720     0.7493    -0.0385 N.am    
   9 C9             3.7959     1.8480    -0.0249 C.2     
  10 O10            4.1924     2.9959    -0.0234 O.2     
  11 O11            4.2534    -1.5069    -0.0471 O.2     
  12 C12            6.0368     0.7692    -0.0519 C.3     
  13 C13            6.5334     0.7832    -1.4990 C.3     
  14 C14            8.0631     0.8041    -1.5131 C.3     
  15 N15            8.5399     0.8175    -2.9025 N.4     
  16 C16           10.0087     0.8375    -2.9160 C.3     
  17 C17           10.5053     0.8516    -4.3631 C.3     
  18 C18           12.0351     0.8724    -4.3771 C.3     
  19 N19           20.0797     1.0109   -10.2211 N.4     
  20 C20           20.5565     1.0244   -11.6105 C.3     
  21 C21           22.0863     1.0452   -11.6246 C.3     
  22 C22           22.5829     1.0592   -13.0717 C.3     
  23 N23           24.0477     1.0792   -13.0851 N.am    
  24 C24            8.0602    -0.3850    -3.5965 C.3     
  25 C25            8.0277     2.0136    -3.5844 C.3     
  26 C26           24.8237    -0.0196   -13.0977 C.2     
  27 C27           26.2398     0.4041   -13.1092 C.ar    
  28 C28           26.2207     1.8136   -13.1024 C.ar    
  29 C29           24.7936     2.1986   -13.0923 C.2     
  30 C30           27.4510    -0.2684   -13.1244 C.ar    
  31 C31           28.6363     0.4505   -13.1327 C.ar    
  32 C32           28.6176     1.8325   -13.1256 C.ar    
  33 C33           27.4132     2.5189   -13.1112 C.ar    
  34 O34           24.3661     3.3354   -13.0845 O.2     
  35 O35           24.4273    -1.1675   -13.0993 O.2     
  36 C36           20.5919    -0.1851    -9.5392 C.3     
  37 C37           20.5594     2.2135    -9.5271 C.3     
  38 C38           12.5317     0.8864    -5.8242 C.3     
  39 C39           14.0615     0.9072    -5.8382 C.3     
  40 C40           14.5581     0.9212    -7.2853 C.3     
  41 C41           16.0879     0.9421    -7.2994 C.3     
  42 C42           16.5845     0.9561    -8.7465 C.3     
  43 C43           18.1143     0.9769    -8.7605 C.3     
  44 C44           18.6109     0.9909   -10.2076 C.3     
  45 H45           -0.9613     1.9013     0.0169 H       
  46 H46           -0.9280    -0.5530     0.0083 H       
  47 H47            1.2151    -1.7704    -0.0187 H       
  48 H48            1.1479     3.1766     0.0078 H       
  49 H49            6.3927     1.6615     0.4630 H       
  50 H50            6.4169    -0.1183     0.4541 H       
  51 H51            6.1774    -0.1091    -2.0140 H       
  52 H52            6.1533     1.6707    -2.0050 H       
  53 H53            8.4191     1.6964    -0.9981 H       
  54 H54            8.4432    -0.0834    -1.0071 H       
  55 H55           10.3647     1.7298    -2.4010 H       
  56 H56           10.3888    -0.0500    -2.4100 H       
  57 H57           10.1494    -0.0408    -4.8780 H       
  58 H58           10.1252     1.7390    -4.8690 H       
  59 H59           12.3911     1.7647    -3.8621 H       
  60 H60           12.4152    -0.0151    -3.8711 H       
  61 H61           20.2005     0.1321   -12.1255 H       
  62 H62           20.1764     1.9119   -12.1165 H       
  63 H63           22.4422     1.9375   -11.1096 H       
  64 H64           22.4664     0.1577   -11.1186 H       
  65 H65           22.2269     0.1669   -13.5866 H       
  66 H66           22.2028     1.9467   -13.5776 H       
  67 H67            6.9703    -0.3999    -3.5865 H       
  68 H68            8.4140    -0.3750    -4.6274 H       
  69 H69            8.4403    -1.2725    -3.0905 H       
  70 H70            8.3836     2.9059    -3.0694 H       
  71 H71            8.3815     2.0236    -4.6153 H       
  72 H72            6.9378     1.9988    -3.5744 H       
  73 H73           27.4717    -1.3482   -13.1293 H       
  74 H74           29.5809    -0.0729   -13.1445 H       
  75 H75           29.5476     2.3814   -13.1319 H       
  76 H76           27.4046     3.5989   -13.1059 H       
  77 H77           21.6818    -0.1703    -9.5492 H       
  78 H78           20.2382    -0.1951    -8.5083 H       
  79 H79           20.2360    -1.0774   -10.0542 H       
  80 H80           20.1793     3.1010   -10.0331 H       
  81 H81           20.2056     2.2035    -8.4962 H       
  82 H82           21.6493     2.2283    -9.5371 H       
  83 H83           12.1758    -0.0059    -6.3392 H       
  84 H84           12.1516     1.7739    -6.3302 H       
  85 H85           14.4175     1.7995    -5.3233 H       
  86 H86           14.4416     0.0197    -5.3323 H       
  87 H87           14.2021     0.0289    -7.8003 H       
  88 H88           14.1780     1.8087    -7.7913 H       
  89 H89           16.4439     1.8344    -6.7844 H       
  90 H90           16.4680     0.0546    -6.7934 H       
  91 H91           16.2285     0.0638    -9.2614 H       
  92 H92           16.2044     1.8436    -9.2525 H       
  93 H93           18.4703     1.8692    -8.2456 H       
  94 H94           18.4944     0.0894    -8.2546 H       
  95 H95           18.2308     1.8784   -10.7136 H       
  96 H96           18.2549     0.0986   -10.7226 H       
@<TRIPOS>BOND
   1    1    2 ar
   2    1    6 ar
   3    1   45 1
   4    2    3 ar
   5    2   46 1
   6    3    4 ar
   7    3   47 1
   8    4    5 ar
   9    4    7 1
  10    5    6 ar
  11    5    9 1
  12    6   48 1
  13    7    8 am
  14    7   11 2
  15    8    9 am
  16    8   12 1
  17    9   10 2
  18   12   13 1
  19   12   49 1
  20   12   50 1
  21   13   14 1
  22   13   51 1
  23   13   52 1
  24   14   15 1
  25   14   53 1
  26   14   54 1
  27   15   16 1
  28   15   24 1
  29   15   25 1
  30   16   17 1
  31   16   55 1
  32   16   56 1
  33   17   18 1
  34   17   57 1
  35   17   58 1
  36   18   38 1
  37   18   59 1
  38   18   60 1
  39   19   20 1
  40   19   36 1
  41   19   37 1
  42   19   44 1
  43   20   21 1
  44   20   61 1
  45   20   62 1
  46   21   22 1
  47   21   63 1
  48   21   64 1
  49   22   23 1
  50   22   65 1
  51   22   66 1
  52   23   26 am
  53   23   29 am
  54   24   67 1
  55   24   68 1
  56   24   69 1
  57   25   70 1
  58   25   71 1
  59   25   72 1
  60   26   27 1
  61   26   35 2
  62   27   28 ar
  63   27   30 ar
  64   28   29 1
  65   28   33 ar
  66   29   34 2
  67   30   31 ar
  68   30   73 1
  69   31   32 ar
  70   31   74 1
  71   32   33 ar
  72   32   75 1
  73   33   76 1
  74   36   77 1
  75   36   78 1
  76   36   79 1
  77   37   80 1
  78   37   81 1
  79   37   82 1
  80   38   39 1
  81   38   83 1
  82   38   84 1
  83   39   40 1
  84   39   85 1
  85   39   86 1
  86   40   41 1
  87   40   87 1
  88   40   88 1
  89   41   42 1
  90   41   89 1
  91   41   90 1
  92   42   43 1
  93   42   91 1
  94   42   92 1
  95   43   44 1
  96   43   93 1
  97   43   94 1
  98   44   95 1
  99   44   96 1

#	End of record

