#	Name: ASD01880026
#	Creating user name:	WinNT
#	Creation time:	15. 06. 2019 19:39

#	Modifying user name:	WinNT
#	Modification time:	15. 06. 2019 19:39

#	Program:	/corina/corina34_cracker 3.40 0067  02.08.2006

@<TRIPOS>MOLECULE
ASD01880026
  61   62    0    0    0
SMALL
NO_CHARGES


@<TRIPOS>ATOM
   1 C1            -0.0240     1.4710    -0.0943 C.2     
   2 C2            -0.0035    -0.0049    -0.0964 C.ar    
   3 C3            -1.2027    -0.7222    -0.0993 C.ar    
   4 C4            -1.1793    -2.0990    -0.1012 C.ar    
   5 C5             0.0351    -2.7753    -0.1003 C.ar    
   6 C6             1.2301    -2.0655    -0.0970 C.ar    
   7 C7             1.2152    -0.6885    -0.1014 C.ar    
   8 C8             3.6512   -10.4652    -0.1056 C.ar    
   9 C9             2.4531   -11.1746    -0.1084 C.ar    
  10 C10            2.4585   -12.5392    -0.1155 C.ar    
  11 C11            3.6741   -13.2364    -0.1205 C.ar    
  12 C12            4.8863   -12.5225    -0.1182 C.ar    
  13 C13            4.8646   -11.1388    -0.1104 C.ar    
  14 O14            6.0688   -13.1861    -0.1225 O.3     
  15 C15            3.6825   -14.7013    -0.1277 C.2     
  16 C16            2.3879   -15.4629    -0.0046 C.3     
  17 O17            4.7318   -15.3014    -0.2327 O.2     
  18 O18            0.0540    -4.1323    -0.1022 O.3     
  19 C19            1.3361    -4.7632    -0.1011 C.3     
  20 C20            2.3502    -8.4777    -0.1048 C.3     
  21 C21            1.1568    -6.2827    -0.1035 C.3     
  22 C22            2.5295    -6.9583    -0.1024 C.3     
  23 O23            3.6324    -9.1087    -0.1037 O.3     
  24 C24            6.1573   -10.3642    -0.1083 C.3     
  25 C25            6.5923   -10.0940    -1.5501 C.3     
  26 C26            7.9047    -9.3076    -1.5479 C.3     
  27 N27            1.1337     2.1610    -0.0916 N.am    
  28 O28           -1.0853     2.0642    -0.1001 O.2     
  29 S29            1.1106     3.8169    -0.0893 S.o2    
  30 C30            0.3596     4.2568     1.5023 C.3     
  31 O31            2.4825     4.1865    -0.1124 O.2     
  32 O32            0.2421     4.1568    -1.1614 O.2     
  33 H33           -2.1466    -0.1974    -0.0996 H       
  34 H34           -2.1057    -2.6541    -0.1030 H       
  35 H35            2.1716    -2.5946    -0.0956 H       
  36 H36            2.1442    -0.1377    -0.0992 H       
  37 H37            1.5138   -10.6416    -0.1046 H       
  38 H38            1.5250   -13.0824    -0.1170 H       
  39 H39            6.4110   -13.3743    -1.0071 H       
  40 H40            1.5706   -14.7639     0.1729 H       
  41 H41            2.2013   -16.0135    -0.9266 H       
  42 H42            2.4555   -16.1621     0.8288 H       
  43 H43            1.8903    -4.4614    -0.9898 H       
  44 H44            1.8876    -4.4639     0.7902 H       
  45 H45            1.7960    -8.7796     0.7839 H       
  46 H46            1.7987    -8.7771    -0.9960 H       
  47 H47            0.6025    -6.5845     0.7852 H       
  48 H48            0.6052    -6.5820    -0.9947 H       
  49 H49            3.0811    -6.6589     0.7889 H       
  50 H50            3.0838    -6.6564    -0.9911 H       
  51 H51            6.0124    -9.4169     0.4111 H       
  52 H52            6.9273   -10.9437     0.4010 H       
  53 H53            6.7372   -11.0413    -2.0694 H       
  54 H54            5.8223    -9.5145    -2.0593 H       
  55 H55            7.7598    -8.3603    -1.0286 H       
  56 H56            8.6747    -9.8871    -1.0386 H       
  57 H57            8.2146    -9.1151    -2.5751 H       
  58 H58            1.9804     1.6878    -0.0910 H       
  59 H59            0.9677     3.8572     2.3138 H       
  60 H60            0.3041     5.3419     1.5902 H       
  61 H61           -0.6442     3.8358     1.5591 H       
@<TRIPOS>BOND
   1    1    2 1
   2    1   27 am
   3    1   28 2
   4    2    3 ar
   5    2    7 ar
   6    3    4 ar
   7    3   33 1
   8    4    5 ar
   9    4   34 1
  10    5    6 ar
  11    5   18 1
  12    6    7 ar
  13    6   35 1
  14    7   36 1
  15    8    9 ar
  16    8   13 ar
  17    8   23 1
  18    9   10 ar
  19    9   37 1
  20   10   11 ar
  21   10   38 1
  22   11   12 ar
  23   11   15 1
  24   12   13 ar
  25   12   14 1
  26   13   24 1
  27   14   39 1
  28   15   16 1
  29   15   17 2
  30   16   40 1
  31   16   41 1
  32   16   42 1
  33   18   19 1
  34   19   21 1
  35   19   43 1
  36   19   44 1
  37   20   23 1
  38   20   22 1
  39   20   45 1
  40   20   46 1
  41   21   22 1
  42   21   47 1
  43   21   48 1
  44   22   49 1
  45   22   50 1
  46   24   25 1
  47   24   51 1
  48   24   52 1
  49   25   26 1
  50   25   53 1
  51   25   54 1
  52   26   55 1
  53   26   56 1
  54   26   57 1
  55   27   29 am
  56   27   58 1
  57   29   30 1
  58   29   31 2
  59   29   32 2
  60   30   59 1
  61   30   60 1
  62   30   61 1

#	End of record

