#	Name: ASD08150369
#	Creating user name:	WinNT
#	Creation time:	15. 06. 2019 21:15

#	Modifying user name:	WinNT
#	Modification time:	15. 06. 2019 21:15

#	Program:	/corina/corina34_cracker 3.40 0067  02.08.2006

@<TRIPOS>MOLECULE
ASD08150369
  28   29    0    0    0
SMALL
NO_CHARGES


@<TRIPOS>ATOM
   1 C1            -0.0181     1.4720     0.0151 C.2     
   2 C2             0.0014    -0.0045     0.0121 C.ar    
   3 C3             0.0194    -0.7097     1.2199 C.ar    
   4 C4             0.0372    -2.0923     1.2077 C.ar    
   5 C5             0.0376    -2.7755     0.0058 C.ar    
   6 C6             0.0203    -2.0826    -1.1924 C.ar    
   7 C7            -0.0038    -0.7038    -1.1965 C.ar    
   8 O8             1.0266     2.0938     0.0088 O.2     
   9 N9            -1.1942     2.1303     0.0193 N.am    
  10 C10           -1.2149     3.5241     0.1325 C.ar    
  11 C11           -2.1829     4.2624    -0.5360 C.ar    
  12 C12           -2.2005     5.6386    -0.4222 C.ar    
  13 C13           -1.2558     6.2817     0.3565 C.ar    
  14 C14           -0.2907     5.5496     1.0234 C.ar    
  15 C15           -0.2710     4.1726     0.9184 C.ar    
  16 N16           -0.0290     0.0335    -2.4797 N.pl3   
  17 O17           -0.0335    -0.5776    -3.5333 O.2     
  18 O18           -0.0452     1.2514    -2.4820 O.2     
  19 F19            0.0199    -0.0423     2.3945 F       
  20 H20            0.0511    -2.6395     2.1387 H       
  21 H21            0.0519    -3.8554     0.0017 H       
  22 H22            0.0214    -2.6237    -2.1271 H       
  23 H23           -2.0262     1.6375    -0.0563 H       
  24 H24           -2.9208     3.7608    -1.1446 H       
  25 H25           -2.9528     6.2133    -0.9421 H       
  26 H26           -1.2716     7.3580     0.4436 H       
  27 H27            0.4457     6.0548     1.6308 H       
  28 H28            0.4801     3.6011     1.4433 H       
@<TRIPOS>BOND
   1    1    2 1
   2    1    8 2
   3    1    9 am
   4    2    3 ar
   5    2    7 ar
   6    3    4 ar
   7    3   19 1
   8    4    5 ar
   9    4   20 1
  10    5    6 ar
  11    5   21 1
  12    6    7 ar
  13    6   22 1
  14    7   16 1
  15    9   10 1
  16    9   23 1
  17   10   11 ar
  18   10   15 ar
  19   11   12 ar
  20   11   24 1
  21   12   13 ar
  22   12   25 1
  23   13   14 ar
  24   13   26 1
  25   14   15 ar
  26   14   27 1
  27   15   28 1
  28   16   17 2
  29   16   18 2

#	End of record

