#	Name: ASD01883827
#	Creating user name:	WinNT
#	Creation time:	15. 06. 2019 19:47

#	Modifying user name:	WinNT
#	Modification time:	15. 06. 2019 19:47

#	Program:	/corina/corina34_cracker 3.40 0067  02.08.2006

@<TRIPOS>MOLECULE
ASD01883827
  45   47    0    0    0
SMALL
NO_CHARGES


@<TRIPOS>ATOM
   1 N1            -0.0106     1.3262    -0.2316 N.ar    
   2 C2             0.0052     0.0069    -0.2450 C.ar    
   3 C3             1.1967    -0.6873    -0.2095 C.ar    
   4 C4             2.3969     0.0276    -0.1587 C.ar    
   5 C5             2.3338     1.4236    -0.1461 C.ar    
   6 C6             1.0989     2.0382    -0.1840 C.ar    
   7 C7             3.7022    -0.6766    -0.1187 C.2     
   8 C8             3.8941    -2.0669    -0.2255 C.2     
   9 C9             5.2293    -2.3093    -0.1436 C.2     
  10 N10            5.8576    -1.1138     0.0095 N.pl3   
  11 N11            4.8820    -0.1090     0.0171 N.2     
  12 C12            1.0167     3.5429    -0.1710 C.3     
  13 C13            7.3028    -0.9115     0.1396 C.3     
  14 C14            7.9173    -0.7161    -1.2479 C.3     
  15 C15            9.4265    -0.5048    -1.1120 C.3     
  16 N16            5.8428    -3.5580    -0.2050 N.pl3   
  17 C17            5.0652    -4.7185    -0.2183 C.ar    
  18 C18            5.4622    -5.8136    -0.9753 C.ar    
  19 C19            4.6921    -6.9603    -0.9868 C.ar    
  20 C20            3.5264    -7.0199    -0.2463 C.ar    
  21 C21            3.1265    -5.9303     0.5101 C.ar    
  22 C22            3.8965    -4.7816     0.5299 C.ar    
  23 C23            2.6886    -8.2725    -0.2623 C.3     
  24 F24            3.2906    -9.2257    -1.0906 F       
  25 F25            2.5861    -8.7816     1.0368 F       
  26 F26            1.4112    -7.9729    -0.7478 F       
  27 F27            1.9865    -5.9915     1.2324 F       
  28 H28           -0.9272    -0.5367    -0.2840 H       
  29 H29            1.2022    -1.7672    -0.2204 H       
  30 H30            3.2381     2.0127    -0.1069 H       
  31 H31            3.1190    -2.8087    -0.3497 H       
  32 H32            0.9599     3.8948     0.8591 H       
  33 H33            1.9035     3.9594    -0.6488 H       
  34 H34            0.1273     3.8629    -0.7138 H       
  35 H35            7.4925    -0.0277     0.7487 H       
  36 H36            7.7504    -1.7838     0.6157 H       
  37 H37            7.7275    -1.5999    -1.8570 H       
  38 H38            7.4696     0.1563    -1.7240 H       
  39 H39            9.6163     0.3790    -0.5029 H       
  40 H40            9.8742    -1.3771    -0.6360 H       
  41 H41            9.8643    -0.3656    -2.1005 H       
  42 H42            6.8101    -3.6219    -0.2385 H       
  43 H43            6.3723    -5.7683    -1.5550 H       
  44 H44            5.0011    -7.8114    -1.5754 H       
  45 H45            3.5852    -3.9320     1.1195 H       
@<TRIPOS>BOND
   1    1    2 ar
   2    1    6 ar
   3    2    3 ar
   4    2   28 1
   5    3    4 ar
   6    3   29 1
   7    4    5 ar
   8    4    7 1
   9    5    6 ar
  10    5   30 1
  11    6   12 1
  12    7    8 1
  13    7   11 2
  14    8    9 2
  15    8   31 1
  16    9   10 1
  17    9   16 1
  18   10   11 1
  19   10   13 1
  20   12   32 1
  21   12   33 1
  22   12   34 1
  23   13   14 1
  24   13   35 1
  25   13   36 1
  26   14   15 1
  27   14   37 1
  28   14   38 1
  29   15   39 1
  30   15   40 1
  31   15   41 1
  32   16   17 1
  33   16   42 1
  34   17   18 ar
  35   17   22 ar
  36   18   19 ar
  37   18   43 1
  38   19   20 ar
  39   19   44 1
  40   20   21 ar
  41   20   23 1
  42   21   22 ar
  43   21   27 1
  44   22   45 1
  45   23   24 1
  46   23   25 1
  47   23   26 1

#	End of record

