#	Name: ASD06610034
#	Creating user name:	WinNT
#	Creation time:	15. 06. 2019 21:07

#	Modifying user name:	WinNT
#	Modification time:	15. 06. 2019 21:07

#	Program:	/corina/corina34_cracker 3.40 0067  02.08.2006

@<TRIPOS>MOLECULE
ASD06610034
 344  347    0    0    0
SMALL
NO_CHARGES


@<TRIPOS>ATOM
   1 C1            -4.1227    -5.3857     6.8030 C.2     
   2 O2            -4.0745    -6.3669     6.0919 O.2     
   3 N3            -1.8265    -5.9289     7.3698 N.am    
   4 C4            -2.9179    -4.9825     7.6135 C.3     
   5 C5            -2.4747    -3.5766     7.2038 C.3     
   6 C6            -1.1802    -3.2164     7.9353 C.3     
   7 O7            -2.2506    -3.5401     5.7929 O.3     
   8 C8            -7.2791    -3.8290     5.8145 C.2     
   9 O9            -7.1430    -2.8344     6.4951 O.2     
  10 N10           -5.2520    -4.6526     6.8642 N.am    
  11 C11           -6.4213    -5.0411     6.0717 C.3     
  12 C12           -7.2329    -6.0868     6.8389 C.3     
  13 C13           -6.4109    -7.3699     6.9767 C.3     
  14 C14           -7.5740    -5.5479     8.2296 C.3     
  15 C15          -10.5000    -3.2001     4.4230 C.2     
  16 O16          -10.7073    -4.3807     4.2386 O.2     
  17 N17           -8.1974    -3.8503     4.8283 N.am    
  18 C18           -9.0922    -2.7064     4.6358 C.3     
  19 C19           -8.6416    -1.9068     3.4117 C.3     
  20 C20           -7.2827    -1.3103     3.6736 C.ar    
  21 C21           -6.1420    -2.0179     3.3434 C.ar    
  22 C22           -4.8955    -1.4708     3.5837 C.ar    
  23 C23           -4.7897    -0.2160     4.1539 C.ar    
  24 C24           -5.9304     0.4920     4.4833 C.ar    
  25 C25           -7.1769    -0.0533     4.2389 C.ar    
  26 C26          -13.4711    -1.9564     3.0313 C.2     
  27 O27          -12.8191    -1.0596     2.5399 O.2     
  28 N28          -11.5289    -2.3296     4.4375 N.am    
  29 C29          -12.8858    -2.7941     4.1388 C.3     
  30 C30          -13.7561    -2.6650     5.3904 C.3     
  31 C31          -13.2191    -3.5677     6.4711 C.2     
  32 C32          -13.6297    -4.8158     6.7461 C.2     
  33 N33          -12.9106    -5.3233     7.7938 N.pl3   
  34 C34          -11.9965    -4.3904     8.2297 C.ar    
  35 C35          -11.0388    -4.3868     9.2383 C.ar    
  36 C36          -10.2539    -3.2710     9.4326 C.ar    
  37 C37          -10.4088    -2.1484     8.6315 C.ar    
  38 C38          -11.3439    -2.1302     7.6351 C.ar    
  39 C39          -12.1456    -3.2519     7.4165 C.ar    
  40 C40          -16.7922    -1.4133     1.6035 C.2     
  41 O41          -17.3352    -2.0480     2.4828 O.2     
  42 N42          -14.7192    -2.2038     2.5869 N.am    
  43 C43          -15.2883    -1.3894     1.5102 C.3     
  44 C44          -14.8522    -1.9556     0.1574 C.3     
  45 O45          -15.4133    -3.2583    -0.0169 O.3     
  46 C46          -19.5878    -0.4763    -0.5575 C.2     
  47 O47          -18.8601    -0.2795    -1.5076 O.2     
  48 N48          -17.5338    -0.7292     0.7099 N.am    
  49 C49          -18.9958    -0.7524     0.8006 C.3     
  50 C50          -19.4626     0.3192     1.7878 C.3     
  51 O51          -19.1360     1.6129     1.2762 O.3     
  52 C52          -22.8847     0.3956    -1.8739 C.2     
  53 O53          -23.3446     0.5647    -0.7645 O.2     
  54 N54          -20.9259    -0.4481    -0.7163 N.am    
  55 C55          -21.5013    -0.1797    -2.0365 C.3     
  56 C56          -21.5816    -1.4838    -2.8326 C.3     
  57 C57          -20.1683    -2.0028    -3.1050 C.3     
  58 C58          -20.2486    -3.3069    -3.9010 C.3     
  59 N59          -18.8954    -3.8039    -4.1619 N.pl3   
  60 C60          -18.7155    -4.9707    -4.8664 C.2     
  61 N61          -19.7489    -5.6348    -5.3022 N.2     
  62 N62          -17.4456    -5.4371    -5.1112 N.pl3   
  63 C63          -25.7670     0.9956    -4.0408 C.2     
  64 O64          -25.2708     0.3850    -4.9637 O.2     
  65 N65          -23.6108     0.7221    -2.9614 N.am    
  66 C66          -24.9556     1.2813    -2.8034 C.3     
  67 C67          -24.8578     2.7940    -2.5957 C.3     
  68 C68          -24.1418     3.0821    -1.2746 C.3     
  69 C69          -24.0455     4.5720    -1.0699 C.2     
  70 O70          -24.5025     5.3261    -1.8960 O.2     
  71 O71          -23.4519     5.0614     0.0300 O.3     
  72 C72          -28.9254     2.1704    -5.4576 C.2     
  73 O73          -29.0344     3.0495    -4.6293 O.2     
  74 N74          -27.0441     1.4187    -4.1217 N.am    
  75 C75          -27.8329     1.1410    -5.3246 C.3     
  76 C76          -28.4556    -0.2523    -5.2158 C.3     
  77 C77          -27.3472    -1.3070    -5.2062 C.3     
  78 C78          -27.9698    -2.7003    -5.0973 C.3     
  79 C79          -26.8614    -3.7549    -5.0877 C.3     
  80 N80          -27.4593    -5.0927    -4.9832 N.3     
  81 C81          -31.9808     2.5394    -7.4304 C.2     
  82 O82          -31.9111     1.4049    -7.8535 O.2     
  83 N83          -29.7814     2.1142    -6.4972 N.am    
  84 C84          -30.8434     3.1150    -6.6265 C.3     
  85 C85          -30.2932     4.3538    -7.3361 C.3     
  86 C86          -29.2233     5.0098    -6.4608 C.3     
  87 C87          -28.6731     6.2486    -7.1703 C.3     
  88 N88          -27.6487     6.8767    -6.3322 N.pl3   
  89 C89          -27.0082     8.0135    -6.7654 C.2     
  90 N90          -27.3124     8.5324    -7.9218 N.2     
  91 N91          -26.0469     8.6029    -5.9790 N.pl3   
  92 C92          -34.9533     3.8446    -9.1108 C.2     
  93 O93          -34.6134     4.9961    -8.9385 O.2     
  94 N94          -33.0755     3.2853    -7.6790 N.am    
  95 C95          -34.1811     2.7258    -8.4604 C.3     
  96 C96          -35.1097     1.9351    -7.5365 C.3     
  97 C97          -34.3600     0.7263    -6.9729 C.3     
  98 C98          -35.2885    -0.0644    -6.0491 C.3     
  99 N99          -34.5706    -1.2218    -5.5094 N.pl3   
 100 C100         -35.2065    -2.0850    -4.6487 C.2     
 101 N101         -34.5678    -3.1147    -4.1686 N.2     
 102 N102         -36.5160    -1.8619    -4.2944 N.pl3   
 103 C103         -38.1842     4.2001   -10.7834 C.2     
 104 O104         -38.5296     3.0789   -10.4761 O.2     
 105 N105         -36.0215     3.5657    -9.8839 N.am    
 106 C106         -36.7721     4.6534   -10.5161 C.3     
 107 C107         -36.1007     5.0361   -11.8366 C.3     
 108 O108         -36.1840     3.9392   -12.7487 O.3     
 109 C109         -41.0134     5.4002   -12.7630 C.2     
 110 O110         -40.3441     6.2545   -13.3044 O.2     
 111 N111         -39.0633     5.0407   -11.3641 N.am    
 112 C112         -40.4361     4.6000   -11.6239 C.3     
 113 C113         -41.2859     4.8121   -10.3694 C.3     
 114 C114         -43.4853     7.2335   -13.5649 C.2     
 115 O115         -43.4259     7.3759   -12.3620 O.2     
 116 N116         -42.2735     5.1665   -13.1800 N.am    
 117 C117         -42.8736     6.0171   -14.2108 C.3     
 118 C118         -43.9587     5.2327   -14.9512 C.3     
 119 C119         -43.3339     4.0606   -15.6632 C.2     
 120 O120         -42.1549     3.8319   -15.5308 O.2     
 121 O121         -44.0872     3.2707   -16.4444 O.3     
 122 C122         -45.7918     9.8830   -14.5766 C.2     
 123 O123         -46.0525     9.3323   -15.6253 O.2     
 124 N124         -44.0984     8.1632   -14.3241 N.am    
 125 C125         -44.6931     9.3457   -13.6962 C.3     
 126 C126         -43.6185    10.4187   -13.5094 C.3     
 127 C127         -43.0384    10.8022   -14.8722 C.3     
 128 C128         -42.0546    11.9612   -14.6999 C.3     
 129 C129         -42.5030     9.8732   -12.6155 C.3     
 130 C130         -47.7439    12.9670   -14.7793 C.2     
 131 O131         -47.0557    13.5231   -13.9498 O.2     
 132 N132         -46.4848    10.9754   -14.1986 N.am    
 133 C133         -47.5529    11.4977   -15.0545 C.3     
 134 C134         -48.8547    10.7500   -14.7592 C.3     
 135 C135         -48.7024     9.3026   -15.1501 C.ar    
 136 C136         -48.2362     8.3832   -14.2290 C.ar    
 137 C137         -48.0965     7.0556   -14.5876 C.ar    
 138 C138         -48.4234     6.6471   -15.8672 C.ar    
 139 C139         -48.8905     7.5663   -16.7880 C.ar    
 140 C140         -49.0343     8.8932   -16.4280 C.ar    
 141 C141         -49.7917    15.2659   -14.0115 C.2     
 142 O142         -50.2498    14.2966   -13.4542 O.2     
 143 N143         -48.6797    13.6630   -15.4548 N.am    
 144 C144         -48.8654    15.0914   -15.1872 C.3     
 145 C145         -49.4720    15.7663   -16.4190 C.3     
 146 C146         -49.5506    17.2765   -16.1863 C.3     
 147 C147         -50.0401    17.9644   -17.4623 C.3     
 148 C148         -50.8779    15.2140   -16.6628 C.3     
 149 O149         -50.1080    16.4981   -13.5833 O.3     
 150 C150          -0.8645    -6.1017     8.2979 C.2     
 151 O151          -0.9024    -5.4737     9.3347 O.2     
 152 C152          14.8752   -14.0289    14.6704 C.3     
 153 C153          13.7354   -13.0405    14.9248 C.3     
 154 C154          12.7871   -13.0355    13.7242 C.3     
 155 C155          11.6473   -12.0471    13.9787 C.3     
 156 C156          10.6989   -12.0422    12.7780 C.3     
 157 C157           9.5591   -11.0538    13.0325 C.3     
 158 C158           8.6108   -11.0488    11.8319 C.3     
 159 C159           7.4710   -10.0604    12.0864 C.3     
 160 C160           6.5226   -10.0554    10.8857 C.3     
 161 C161           5.3828    -9.0670    11.1402 C.3     
 162 C162           4.4345    -9.0620     9.9396 C.3     
 163 C163           3.2947    -8.0736    10.1940 C.3     
 164 C164           2.3463    -8.0686     8.9934 C.3     
 165 C165           1.2065    -7.0802     9.2479 C.3     
 166 C166           0.2582    -7.0753     8.0472 C.3     
 167 H167          -1.7961    -6.4312     6.5406 H       
 168 H168          -3.1741    -4.9884     8.6729 H       
 169 H169          -3.2523    -2.8595     7.4668 H       
 170 H170          -0.4026    -3.9335     7.6723 H       
 171 H171          -0.8645    -2.2148     7.6434 H       
 172 H172          -1.3511    -3.2443     9.0115 H       
 173 H173          -1.5695    -4.1544     5.4868 H       
 174 H174          -5.2906    -3.8678     7.4330 H       
 175 H175          -6.0926    -5.4618     5.1214 H       
 176 H176          -8.1537    -6.3016     6.2966 H       
 177 H177          -5.4901    -7.1550     7.5189 H       
 178 H178          -6.9892    -8.1149     7.5233 H       
 179 H179          -6.1680    -7.7538     5.9859 H       
 180 H180          -8.2186    -4.6743     8.1327 H       
 181 H181          -8.0904    -6.3188     8.8015 H       
 182 H182          -6.6559    -5.2665     8.7455 H       
 183 H183          -8.2660    -4.6230     4.2460 H       
 184 H184          -9.0607    -2.0678     5.5186 H       
 185 H185          -8.5879    -2.5671     2.5461 H       
 186 H186          -9.3572    -1.1083     3.2157 H       
 187 H187          -6.2247    -2.9983     2.8979 H       
 188 H188          -4.0043    -2.0239     3.3264 H       
 189 H189          -3.8158     0.2112     4.3423 H       
 190 H190          -5.8477     1.4722     4.9290 H       
 191 H191          -8.0681     0.5013     4.4929 H       
 192 H192         -11.3709    -1.3954     4.6457 H       
 193 H193         -12.8519    -3.8377     3.8259 H       
 194 H194         -13.7407    -1.6323     5.7388 H       
 195 H195         -14.7801    -2.9528     5.1522 H       
 196 H196         -14.4120    -5.3414     6.2187 H       
 197 H197         -13.0275    -6.2084     8.1730 H       
 198 H198         -10.9109    -5.2554     9.8672 H       
 199 H199          -9.5110    -3.2700    10.2165 H       
 200 H200          -9.7855    -1.2821     8.7970 H       
 201 H201         -11.4590    -1.2528     7.0159 H       
 202 H202         -15.2407    -2.9210     2.9799 H       
 203 H203         -14.9346    -0.3628     1.6054 H       
 204 H204         -15.2010    -1.3000    -0.6404 H       
 205 H205         -13.7646    -2.0211     0.1245 H       
 206 H206         -15.1780    -3.6789    -0.8553 H       
 207 H207         -17.0995    -0.2215     0.0066 H       
 208 H208         -19.3228    -1.7328     1.1470 H       
 209 H209         -20.5415     0.2436     1.9228 H       
 210 H210         -18.9653     0.1714     2.7464 H       
 211 H211         -19.4034     2.3425     1.8518 H       
 212 H212         -21.5078    -0.6054     0.0436 H       
 213 H213         -20.8718     0.5330    -2.5692 H       
 214 H214         -22.1370    -2.2260    -2.2591 H       
 215 H215         -22.0903    -1.3010    -3.7791 H       
 216 H216         -19.6130    -1.2607    -3.6785 H       
 217 H217         -19.6597    -2.1856    -2.1584 H       
 218 H218         -20.8039    -4.0491    -3.3275 H       
 219 H219         -20.7573    -3.1241    -4.8476 H       
 220 H220         -18.1263    -3.3097    -3.8375 H       
 221 H221         -19.6220    -6.4580    -5.7993 H       
 222 H222         -16.6765    -4.9429    -4.7868 H       
 223 H223         -17.3186    -6.2603    -5.6082 H       
 224 H224         -23.2430     0.5868    -3.8487 H       
 225 H225         -25.4391     0.8263    -1.9389 H       
 226 H226         -24.2963     3.2380    -3.4176 H       
 227 H227         -25.8597     3.2223    -2.5669 H       
 228 H228         -24.7034     2.6380    -0.4526 H       
 229 H229         -23.1399     2.6537    -1.3033 H       
 230 H230         -23.4141     6.0237     0.1172 H       
 231 H231         -27.4410     1.9070    -3.3835 H       
 232 H232         -27.1860     1.1824    -6.2009 H       
 233 H233         -29.0313    -0.3219    -4.2928 H       
 234 H234         -29.1131    -0.4240    -6.0680 H       
 235 H235         -26.7714    -1.2374    -6.1291 H       
 236 H236         -26.6896    -1.1352    -4.3539 H       
 237 H237         -28.5456    -2.7699    -4.1744 H       
 238 H238         -28.6274    -2.8720    -5.9495 H       
 239 H239         -26.2857    -3.6853    -6.0106 H       
 240 H240         -26.2039    -3.5832    -4.2355 H       
 241 H241         -28.1223    -5.2515    -5.7270 H       
 242 H242         -26.7471    -5.8074    -4.9749 H       
 243 H243         -29.6942     1.4111    -7.1597 H       
 244 H244         -31.2030     3.3933    -5.6359 H       
 245 H245         -29.8533     4.0611    -8.2895 H       
 246 H246         -31.1032     5.0617    -7.5117 H       
 247 H247         -29.6632     5.3024    -5.5074 H       
 248 H248         -28.4133     4.3018    -6.2852 H       
 249 H249         -28.2333     5.9559    -8.1237 H       
 250 H250         -29.4831     6.9565    -7.3459 H       
 251 H251         -27.4223     6.4905    -5.4717 H       
 252 H252         -26.8605     9.3344    -8.2274 H       
 253 H253         -25.8205     8.2167    -5.1184 H       
 254 H254         -25.5950     9.4049    -6.2846 H       
 255 H255         -33.1312     4.1926    -7.3405 H       
 256 H256         -33.7838     2.0635    -9.2296 H       
 257 H257         -35.4368     2.5744    -6.7165 H       
 258 H258         -35.9781     1.5937    -8.0998 H       
 259 H259         -34.0328     0.0870    -7.7929 H       
 260 H260         -33.4915     1.0677    -6.4096 H       
 261 H261         -35.6157     0.5749    -5.2291 H       
 262 H262         -36.1570    -0.4058    -6.6124 H       
 263 H263         -33.6467    -1.3792    -5.7594 H       
 264 H264         -35.0164    -3.7237    -3.5613 H       
 265 H265         -36.9913    -1.0955    -4.6517 H       
 266 H266         -36.9646    -2.4709    -3.6871 H       
 267 H267         -36.2933     2.6448   -10.0216 H       
 268 H268         -36.7875     5.5179    -9.8525 H       
 269 H269         -36.6058     5.9026   -12.2633 H       
 270 H270         -35.0537     5.2788   -11.6549 H       
 271 H271         -35.7776     4.1114   -13.6091 H       
 272 H272         -38.7870     5.9374   -11.6099 H       
 273 H273         -40.4344     3.5422   -11.8871 H       
 274 H274         -42.3073     4.4842   -10.5628 H       
 275 H275         -40.8683     4.2333    -9.5456 H       
 276 H276         -41.2875     5.8698   -10.1062 H       
 277 H277         -42.7832     4.4351   -12.7976 H       
 278 H278         -42.1045     6.3289   -14.9175 H       
 279 H279         -44.6978     4.8715   -14.2361 H       
 280 H280         -44.4445     5.8829   -15.6788 H       
 281 H281         -43.6420     2.5313   -16.8805 H       
 282 H282         -44.1459     8.0493   -15.2862 H       
 283 H283         -45.1063     9.0724   -12.7253 H       
 284 H284         -44.0610    11.2985   -13.0422 H       
 285 H285         -42.5186     9.9450   -15.3001 H       
 286 H286         -43.8458    11.1070   -15.5380 H       
 287 H287         -42.5744    12.8185   -14.2720 H       
 288 H288         -41.2472    11.6565   -14.0341 H       
 289 H289         -41.6413    12.2345   -15.6708 H       
 290 H290         -42.0606     8.9934   -13.0827 H       
 291 H291         -41.7375    10.6376   -12.4825 H       
 292 H292         -42.9163     9.6000   -11.6446 H       
 293 H293         -46.2763    11.4158   -13.3599 H       
 294 H294         -47.2820    11.3563   -16.1008 H       
 295 H295         -49.0788    10.8172   -13.6946 H       
 296 H296         -49.6681    11.1971   -15.3306 H       
 297 H297         -47.9808     8.7023   -13.2294 H       
 298 H298         -47.7316     6.3374   -13.8682 H       
 299 H299         -48.3136     5.6099   -16.1476 H       
 300 H300         -49.1456     7.2473   -17.7877 H       
 301 H301         -49.4027     9.6107   -17.1463 H       
 302 H302         -49.2301    13.2183   -16.1182 H       
 303 H303         -47.9014    15.5470   -14.9610 H       
 304 H304         -48.8467    15.5648   -17.2887 H       
 305 H305         -50.2458    17.4830   -15.3726 H       
 306 H306         -48.5626    17.6558   -15.9252 H       
 307 H307         -51.0281    17.5851   -17.7234 H       
 308 H308         -50.0961    19.0402   -17.2965 H       
 309 H309         -49.3449    17.7578   -18.2760 H       
 310 H310         -51.5033    15.4156   -15.7931 H       
 311 H311         -51.3101    15.6949   -17.5403 H       
 312 H312         -50.8219    14.1382   -16.8286 H       
 313 H313         -50.7058    16.5597   -12.8257 H       
 314 H314          15.5508   -14.0325    15.5257 H       
 315 H315          14.4644   -15.0284    14.5277 H       
 316 H316          15.4225   -13.7301    13.7763 H       
 317 H317          13.1881   -13.3394    15.8189 H       
 318 H318          14.1463   -12.0410    15.0675 H       
 319 H319          13.3343   -12.7367    12.8302 H       
 320 H320          12.3762   -14.0350    13.5816 H       
 321 H321          11.1000   -12.3460    14.8727 H       
 322 H322          12.0581   -11.0477    14.1213 H       
 323 H323          11.2462   -11.7433    11.8840 H       
 324 H324          10.2881   -13.0417    12.6354 H       
 325 H325           9.0118   -11.3526    13.9265 H       
 326 H326           9.9700   -10.0543    13.1751 H       
 327 H327           9.1580   -10.7499    10.9378 H       
 328 H328           8.1999   -12.0483    11.6892 H       
 329 H329           6.9237   -10.3592    12.9804 H       
 330 H330           7.8818    -9.0609    12.2290 H       
 331 H331           7.0699    -9.7565     9.9917 H       
 332 H332           6.1118   -11.0549    10.7431 H       
 333 H333           4.8355    -9.3659    12.0342 H       
 334 H334           5.7936    -8.0675    11.2828 H       
 335 H335           4.9817    -8.7632     9.0455 H       
 336 H336           4.0236   -10.0615     9.7969 H       
 337 H337           2.7474    -8.3725    11.0881 H       
 338 H338           3.7055    -7.0741    10.3367 H       
 339 H339           2.8936    -7.7698     8.0994 H       
 340 H340           1.9355    -9.0681     8.8508 H       
 341 H341           0.6592    -7.3791    10.1419 H       
 342 H342           1.6173    -6.0808     9.3905 H       
 343 H343          -0.1527    -8.0748     7.9046 H       
 344 H344           0.8054    -6.7764     7.1532 H       
@<TRIPOS>BOND
   1    1    2 2
   2    1    4 1
   3    1   10 am
   4    3  150 am
   5    3    4 1
   6    3  167 1
   7    4    5 1
   8    4  168 1
   9    5    6 1
  10    5    7 1
  11    5  169 1
  12    6  170 1
  13    6  171 1
  14    6  172 1
  15    7  173 1
  16    8    9 2
  17    8   11 1
  18    8   17 am
  19   10   11 1
  20   10  174 1
  21   11   12 1
  22   11  175 1
  23   12   13 1
  24   12   14 1
  25   12  176 1
  26   13  177 1
  27   13  178 1
  28   13  179 1
  29   14  180 1
  30   14  181 1
  31   14  182 1
  32   15   16 2
  33   15   18 1
  34   15   28 am
  35   17   18 1
  36   17  183 1
  37   18   19 1
  38   18  184 1
  39   19   20 1
  40   19  185 1
  41   19  186 1
  42   20   21 ar
  43   20   25 ar
  44   21   22 ar
  45   21  187 1
  46   22   23 ar
  47   22  188 1
  48   23   24 ar
  49   23  189 1
  50   24   25 ar
  51   24  190 1
  52   25  191 1
  53   26   27 2
  54   26   29 1
  55   26   42 am
  56   28   29 1
  57   28  192 1
  58   29   30 1
  59   29  193 1
  60   30   31 1
  61   30  194 1
  62   30  195 1
  63   31   32 2
  64   31   39 1
  65   32   33 1
  66   32  196 1
  67   33   34 1
  68   33  197 1
  69   34   35 ar
  70   34   39 ar
  71   35   36 ar
  72   35  198 1
  73   36   37 ar
  74   36  199 1
  75   37   38 ar
  76   37  200 1
  77   38   39 ar
  78   38  201 1
  79   40   41 2
  80   40   43 1
  81   40   48 am
  82   42   43 1
  83   42  202 1
  84   43   44 1
  85   43  203 1
  86   44   45 1
  87   44  204 1
  88   44  205 1
  89   45  206 1
  90   46   47 2
  91   46   49 1
  92   46   54 am
  93   48   49 1
  94   48  207 1
  95   49   50 1
  96   49  208 1
  97   50   51 1
  98   50  209 1
  99   50  210 1
 100   51  211 1
 101   52   53 2
 102   52   55 1
 103   52   65 am
 104   54   55 1
 105   54  212 1
 106   55   56 1
 107   55  213 1
 108   56   57 1
 109   56  214 1
 110   56  215 1
 111   57   58 1
 112   57  216 1
 113   57  217 1
 114   58   59 1
 115   58  218 1
 116   58  219 1
 117   59   60 1
 118   59  220 1
 119   60   61 2
 120   60   62 1
 121   61  221 1
 122   62  222 1
 123   62  223 1
 124   63   64 2
 125   63   66 1
 126   63   74 am
 127   65   66 1
 128   65  224 1
 129   66   67 1
 130   66  225 1
 131   67   68 1
 132   67  226 1
 133   67  227 1
 134   68   69 1
 135   68  228 1
 136   68  229 1
 137   69   70 2
 138   69   71 1
 139   71  230 1
 140   72   73 2
 141   72   75 1
 142   72   83 am
 143   74   75 1
 144   74  231 1
 145   75   76 1
 146   75  232 1
 147   76   77 1
 148   76  233 1
 149   76  234 1
 150   77   78 1
 151   77  235 1
 152   77  236 1
 153   78   79 1
 154   78  237 1
 155   78  238 1
 156   79   80 1
 157   79  239 1
 158   79  240 1
 159   80  241 1
 160   80  242 1
 161   81   82 2
 162   81   84 1
 163   81   94 am
 164   83   84 1
 165   83  243 1
 166   84   85 1
 167   84  244 1
 168   85   86 1
 169   85  245 1
 170   85  246 1
 171   86   87 1
 172   86  247 1
 173   86  248 1
 174   87   88 1
 175   87  249 1
 176   87  250 1
 177   88   89 1
 178   88  251 1
 179   89   90 2
 180   89   91 1
 181   90  252 1
 182   91  253 1
 183   91  254 1
 184   92   93 2
 185   92   95 1
 186   92  105 am
 187   94   95 1
 188   94  255 1
 189   95   96 1
 190   95  256 1
 191   96   97 1
 192   96  257 1
 193   96  258 1
 194   97   98 1
 195   97  259 1
 196   97  260 1
 197   98   99 1
 198   98  261 1
 199   98  262 1
 200   99  100 1
 201   99  263 1
 202  100  101 2
 203  100  102 1
 204  101  264 1
 205  102  265 1
 206  102  266 1
 207  103  104 2
 208  103  106 1
 209  103  111 am
 210  105  106 1
 211  105  267 1
 212  106  107 1
 213  106  268 1
 214  107  108 1
 215  107  269 1
 216  107  270 1
 217  108  271 1
 218  109  110 2
 219  109  112 1
 220  109  116 am
 221  111  112 1
 222  111  272 1
 223  112  113 1
 224  112  273 1
 225  113  274 1
 226  113  275 1
 227  113  276 1
 228  114  115 2
 229  114  117 1
 230  114  124 am
 231  116  117 1
 232  116  277 1
 233  117  118 1
 234  117  278 1
 235  118  119 1
 236  118  279 1
 237  118  280 1
 238  119  120 2
 239  119  121 1
 240  121  281 1
 241  122  123 2
 242  122  125 1
 243  122  132 am
 244  124  125 1
 245  124  282 1
 246  125  126 1
 247  125  283 1
 248  126  127 1
 249  126  129 1
 250  126  284 1
 251  127  128 1
 252  127  285 1
 253  127  286 1
 254  128  287 1
 255  128  288 1
 256  128  289 1
 257  129  290 1
 258  129  291 1
 259  129  292 1
 260  130  131 2
 261  130  133 1
 262  130  143 am
 263  132  133 1
 264  132  293 1
 265  133  134 1
 266  133  294 1
 267  134  135 1
 268  134  295 1
 269  134  296 1
 270  135  136 ar
 271  135  140 ar
 272  136  137 ar
 273  136  297 1
 274  137  138 ar
 275  137  298 1
 276  138  139 ar
 277  138  299 1
 278  139  140 ar
 279  139  300 1
 280  140  301 1
 281  141  142 2
 282  141  144 1
 283  141  149 1
 284  143  144 1
 285  143  302 1
 286  144  145 1
 287  144  303 1
 288  145  146 1
 289  145  148 1
 290  145  304 1
 291  146  147 1
 292  146  305 1
 293  146  306 1
 294  147  307 1
 295  147  308 1
 296  147  309 1
 297  148  310 1
 298  148  311 1
 299  148  312 1
 300  149  313 1
 301  150  151 2
 302  150  166 1
 303  152  153 1
 304  152  314 1
 305  152  315 1
 306  152  316 1
 307  153  154 1
 308  153  317 1
 309  153  318 1
 310  154  155 1
 311  154  319 1
 312  154  320 1
 313  155  156 1
 314  155  321 1
 315  155  322 1
 316  156  157 1
 317  156  323 1
 318  156  324 1
 319  157  158 1
 320  157  325 1
 321  157  326 1
 322  158  159 1
 323  158  327 1
 324  158  328 1
 325  159  160 1
 326  159  329 1
 327  159  330 1
 328  160  161 1
 329  160  331 1
 330  160  332 1
 331  161  162 1
 332  161  333 1
 333  161  334 1
 334  162  163 1
 335  162  335 1
 336  162  336 1
 337  163  164 1
 338  163  337 1
 339  163  338 1
 340  164  165 1
 341  164  339 1
 342  164  340 1
 343  165  166 1
 344  165  341 1
 345  165  342 1
 346  166  343 1
 347  166  344 1

#	End of record

