#	Name: ASD03330912
#	Creating user name:	WinNT
#	Creation time:	15. 06. 2019 20:38

#	Modifying user name:	WinNT
#	Modification time:	15. 06. 2019 20:38

#	Program:	/corina/corina34_cracker 3.40 0067  02.08.2006

@<TRIPOS>MOLECULE
ASD03330912
  67   70    0    0    0
SMALL
NO_CHARGES


@<TRIPOS>ATOM
   1 C1             0.4577     1.7681     0.6042 C.2     
   2 C2             0.5097     0.2640     0.6793 C.3     
   3 N3             1.5444     2.5498     0.3390 N.pl3   
   4 N4             1.7738    -0.1786     0.0636 N.3     
   5 C5             2.9189     0.5642     0.6082 C.3     
   6 C6             2.8874     2.0126     0.1032 C.3     
   7 C7             1.1281     3.8431     0.3452 C.2     
   8 N8            -0.1599     3.8663     0.6062 N.2     
   9 C9            -0.6024     2.5977     0.7665 C.2     
  10 C10           -1.9869     2.1912     1.0656 C.2     
  11 O11           -2.2613     1.0128     1.1893 O.2     
  12 N12           -2.9489     3.1251     1.2023 N.am    
  13 C13            1.9601    -1.6266     0.2265 C.3     
  14 C14            1.0402    -2.3714    -0.7431 C.3     
  15 C15            1.4519    -2.0543    -2.1821 C.3     
  16 C16            1.1552    -3.8776    -0.4999 C.3     
  17 C17           -4.3253     2.7209     1.4997 C.3     
  18 C18           -4.4891     2.5419     3.0103 C.3     
  19 C19           -5.9266     2.1198     3.3209 C.3     
  20 O20           -6.4153     3.5785     0.3297 O.3     
  21 C21           -5.2770     3.7833     1.0135 C.2     
  22 N22           -5.1476     5.0689     1.1798 N.2     
  23 N23           -6.1450     5.6725     0.6355 N.2     
  24 C24           -6.9448     4.7925     0.1034 C.2     
  25 C25           -8.2279     5.0829    -0.6318 C.3     
  26 C26           -3.5228     1.4633     3.5039 C.3     
  27 C27           -4.1819     3.8638     3.7168 C.3     
  28 C28            1.9811     5.0262     0.0999 C.ar    
  29 C29            1.9079     6.1327     0.9503 C.ar    
  30 C30            2.7084     7.2347     0.7153 C.ar    
  31 C31            3.5796     7.2434    -0.3588 C.ar    
  32 C32            3.6560     6.1501    -1.2050 C.ar    
  33 C33            2.8664     5.0402    -0.9779 C.ar    
  34 F34            1.0566     6.1255     1.9993 F       
  35 Cl35           4.7526     6.1719    -2.5506 Cl      
  36 H36            0.4760    -0.0544     1.7213 H       
  37 H37           -0.3338    -0.1615     0.1358 H       
  38 H38            2.8693     0.5590     1.6971 H       
  39 H39            3.8454     0.0886     0.2866 H       
  40 H40            3.1106     2.0353    -0.9634 H       
  41 H41            3.6220     2.6074     0.6460 H       
  42 H42           -2.7300     4.0649     1.1037 H       
  43 H43            2.9975    -1.8856     0.0146 H       
  44 H44            1.7163    -1.9114     1.2500 H       
  45 H45            0.0097    -2.0550    -0.5818 H       
  46 H46            0.8340    -2.6291    -2.8719 H       
  47 H47            1.3154    -0.9898    -2.3728 H       
  48 H48            2.4996    -2.3179    -2.3268 H       
  49 H49            0.8620    -4.1036     0.5253 H       
  50 H50            0.4999    -4.4082    -1.1907 H       
  51 H51            2.1858    -4.1941    -0.6612 H       
  52 H52           -4.5442     1.7791     0.9964 H       
  53 H53           -6.1455     1.1780     2.8177 H       
  54 H54           -6.0433     1.9923     4.3971 H       
  55 H55           -6.6150     2.8882     2.9693 H       
  56 H56           -9.0577     5.0906     0.0749 H       
  57 H57           -8.1557     6.0557    -1.1182 H       
  58 H58           -8.3981     4.3124    -1.3837 H       
  59 H59           -2.4988     1.7640     3.2826 H       
  60 H60           -3.6396     1.3358     4.5801 H       
  61 H61           -3.7417     0.5215     3.0006 H       
  62 H62           -4.8703     4.6323     3.3651 H       
  63 H63           -4.2986     3.7364     4.7930 H       
  64 H64           -3.1578     4.1646     3.4955 H       
  65 H65            2.6533     8.0908     1.3714 H       
  66 H66            4.2028     8.1069    -0.5385 H       
  67 H67            2.9306     4.1866    -1.6365 H       
@<TRIPOS>BOND
   1    1    2 1
   2    1    3 1
   3    1    9 2
   4    2    4 1
   5    2   36 1
   6    2   37 1
   7    3    6 1
   8    3    7 1
   9    4    5 1
  10    4   13 1
  11    5    6 1
  12    5   38 1
  13    5   39 1
  14    6   40 1
  15    6   41 1
  16    7    8 2
  17    7   28 1
  18    8    9 1
  19    9   10 1
  20   10   11 2
  21   10   12 am
  22   12   17 1
  23   12   42 1
  24   13   14 1
  25   13   43 1
  26   13   44 1
  27   14   15 1
  28   14   16 1
  29   14   45 1
  30   15   46 1
  31   15   47 1
  32   15   48 1
  33   16   49 1
  34   16   50 1
  35   16   51 1
  36   17   18 1
  37   17   21 1
  38   17   52 1
  39   18   19 1
  40   18   26 1
  41   18   27 1
  42   19   53 1
  43   19   54 1
  44   19   55 1
  45   20   21 1
  46   20   24 1
  47   21   22 2
  48   22   23 1
  49   23   24 2
  50   24   25 1
  51   25   56 1
  52   25   57 1
  53   25   58 1
  54   26   59 1
  55   26   60 1
  56   26   61 1
  57   27   62 1
  58   27   63 1
  59   27   64 1
  60   28   29 ar
  61   28   33 ar
  62   29   30 ar
  63   29   34 1
  64   30   31 ar
  65   30   65 1
  66   31   32 ar
  67   31   66 1
  68   32   33 ar
  69   32   35 1
  70   33   67 1

#	End of record

