#	Name: ASD01912173
#	Creating user name:	WinNT
#	Creation time:	15. 06. 2019 19:59

#	Modifying user name:	WinNT
#	Modification time:	15. 06. 2019 19:59

#	Program:	/corina/corina34_cracker 3.40 0067  02.08.2006

@<TRIPOS>MOLECULE
ASD01912173
  45   47    0    0    0
SMALL
NO_CHARGES


@<TRIPOS>ATOM
   1 C1            -0.0169     1.3932     0.0097 C.ar    
   2 C2             0.0021    -0.0041     0.0020 C.ar    
   3 C3            -1.2261    -0.7403     0.0093 C.1     
   4 C4            -2.2331    -1.3439     0.0153 C.1     
   5 C5            -3.4613    -2.0802     0.0226 C.ar    
   6 C6            -3.4601    -3.4815     0.0151 C.ar    
   7 N7            -4.6147    -4.1223     0.0222 N.ar    
   8 C8            -5.7614    -3.4590     0.0362 C.ar    
   9 N9            -5.8059    -2.1350     0.0437 N.ar    
  10 C10           -4.6965    -1.4187     0.0433 C.ar    
  11 N11           -6.9523    -4.1728     0.0427 N.am    
  12 C12            1.2254    -0.6794    -0.0133 C.ar    
  13 C13            2.4042     0.0364    -0.0207 C.ar    
  14 C14            2.3776     1.4200    -0.0126 C.ar    
  15 C15            1.1700     2.0956     0.0021 C.ar    
  16 C16           -8.2001    -3.4197     0.0582 C.3     
  17 C17           -6.8828    -5.5045     0.0291 C.2     
  18 C18           -8.0895    -6.3973    -0.0149 C.3     
  19 C19           -9.3359    -5.6089     0.3951 C.3     
  20 C20           -9.3620    -4.2995    -0.4046 C.3     
  21 C21          -10.6844    -3.5717    -0.1547 C.3     
  22 C22          -10.5897    -6.4276     0.0810 C.3     
  23 C23           -9.2818    -5.3025     1.8931 C.3     
  24 O24           -5.7864    -6.0222     0.0532 O.2     
  25 H25           -0.9586     1.9218     0.0170 H       
  26 H26           -2.5293    -4.0290     0.0033 H       
  27 H27           -4.7406    -0.3396     0.0498 H       
  28 H28            1.2477    -1.7591    -0.0189 H       
  29 H29            3.3505    -0.4841    -0.0325 H       
  30 H30            3.3040     1.9752    -0.0177 H       
  31 H31            1.1570     3.1755     0.0081 H       
  32 H32           -8.3959    -3.0677     1.0710 H       
  33 H33           -8.1109    -2.5611    -0.6074 H       
  34 H34           -8.2200    -6.7801    -1.0271 H       
  35 H35           -7.9474    -7.2323     0.6711 H       
  36 H36           -9.2573    -4.5179    -1.4674 H       
  37 H37          -10.7814    -3.3491     0.9079 H       
  38 H38          -10.7007    -2.6422    -0.7236 H       
  39 H39          -11.5132    -4.2055    -0.4702 H       
  40 H40          -10.5581    -7.3668     0.6333 H       
  41 H41          -11.4749    -5.8633     0.3742 H       
  42 H42          -10.6292    -6.6359    -0.9882 H       
  43 H43           -8.3923    -4.7115     2.1112 H       
  44 H44          -10.1706    -4.7412     2.1815 H       
  45 H45           -9.2441    -6.2364     2.4539 H       
@<TRIPOS>BOND
   1    1    2 ar
   2    1   15 ar
   3    1   25 1
   4    2    3 1
   5    2   12 ar
   6    3    4 3
   7    4    5 1
   8    5    6 ar
   9    5   10 ar
  10    6    7 ar
  11    6   26 1
  12    7    8 ar
  13    8    9 ar
  14    8   11 1
  15    9   10 ar
  16   10   27 1
  17   11   16 1
  18   11   17 am
  19   12   13 ar
  20   12   28 1
  21   13   14 ar
  22   13   29 1
  23   14   15 ar
  24   14   30 1
  25   15   31 1
  26   16   20 1
  27   16   32 1
  28   16   33 1
  29   17   18 1
  30   17   24 2
  31   18   19 1
  32   18   34 1
  33   18   35 1
  34   19   20 1
  35   19   22 1
  36   19   23 1
  37   20   21 1
  38   20   36 1
  39   21   37 1
  40   21   38 1
  41   21   39 1
  42   22   40 1
  43   22   41 1
  44   22   42 1
  45   23   43 1
  46   23   44 1
  47   23   45 1

#	End of record

