#	Name: ASD01180053
#	Creating user name:	WinNT
#	Creation time:	15. 06. 2019 19:06

#	Modifying user name:	WinNT
#	Modification time:	15. 06. 2019 19:06

#	Program:	/corina/corina34_cracker 3.40 0067  02.08.2006

@<TRIPOS>MOLECULE
ASD01180053
 132  131    0    0    0
SMALL
NO_CHARGES


@<TRIPOS>ATOM
   1 C1            -4.0726     5.0280     1.6377 C.3     
   2 C2            -3.6825     3.5498     1.5777 C.3     
   3 C3            -4.9449     2.6936     1.4593 C.3     
   4 C4            -4.5547     1.2154     1.3993 C.3     
   5 C5            -5.8171     0.3591     1.2808 C.3     
   6 C6            -5.4270    -1.1191     1.2208 C.3     
   7 C7            -6.6894    -1.9754     1.1024 C.3     
   8 C8            -6.2992    -3.4536     1.0424 C.3     
   9 C9            -7.5616    -4.3098     0.9239 C.3     
  10 C10           -7.1715    -5.7880     0.8639 C.3     
  11 C11           -8.4339    -6.6443     0.7454 C.3     
  12 C12           -8.0437    -8.1225     0.6855 C.3     
  13 C13           -9.3061    -8.9788     0.5670 C.3     
  14 C14           -8.9219   -10.4348     0.5079 C.2     
  15 O15           -9.8728   -11.3761     0.4022 O.3     
  16 C16           -9.4297   -12.7579     0.3506 C.3     
  17 C17           -9.3550   -13.3229     1.7704 C.3     
  18 O18          -10.6670   -13.3675     2.3350 O.3     
  19 P19          -10.9638   -13.9089     3.8220 P.3     
  20 O20          -12.5206   -13.6931     4.1708 O.3     
  21 C21          -13.0767   -13.9767     5.4563 C.3     
  22 C22          -14.5739   -13.6615     5.4451 C.3     
  23 N23          -15.2664   -14.6056     4.5579 N.4     
  24 C24           -2.8102     5.8843     1.7562 C.3     
  25 O25           -7.7577   -10.7547     0.5556 O.2     
  26 C26          -10.4212   -13.5809    -0.4743 C.3     
  27 O27          -10.6223   -15.4137     3.8999 O.co2   
  28 O28          -10.0961   -13.1307     4.8361 O.co2   
  29 C29          -10.4948   -13.0244    -1.8729 C.2     
  30 C30          -10.2745   -13.8056    -2.9011 C.2     
  31 C31          -10.3482   -13.2490    -4.2997 C.3     
  32 C32           -9.0385   -13.5415    -5.0346 C.3     
  33 C33           -9.1132   -12.9765    -6.4544 C.3     
  34 C34           -7.8035   -13.2690    -7.1893 C.3     
  35 C35           -7.8783   -12.7040    -8.6092 C.3     
  36 C36           -6.5686   -12.9965    -9.3441 C.3     
  37 C37           -6.6433   -12.4315   -10.7640 C.3     
  38 C38           -5.3337   -12.7240   -11.4989 C.3     
  39 C39           -5.4084   -12.1589   -12.9188 C.3     
  40 C40           -4.0987   -12.4515   -13.6537 C.3     
  41 C41           -4.1735   -11.8864   -15.0735 C.3     
  42 O42           -9.9851   -14.9408    -0.5252 O.3     
  43 C43           -2.8638   -12.1789   -15.8084 C.3     
  44 C44           -2.9385   -11.6139   -17.2283 C.3     
  45 C45           -3.2004     7.3625     1.8162 C.3     
  46 C46           -1.9380     8.2187     1.9347 C.3     
  47 C47           -2.3281     9.6969     1.9947 C.3     
  48 C48          -14.9674   -15.9812     4.9776 C.3     
  49 C49          -16.7152   -14.3748     4.6325 C.3     
  50 C50          -14.8090   -14.4048     3.1764 C.3     
  51 H51           -4.6114     5.2987     0.7297 H       
  52 H52           -4.7112     5.2004     2.5041 H       
  53 H53           -3.0439     3.3775     0.7114 H       
  54 H54           -3.1437     3.2791     2.4858 H       
  55 H55           -5.5835     2.8659     2.3257 H       
  56 H56           -5.4836     2.9643     0.5512 H       
  57 H57           -3.9162     1.0430     0.5329 H       
  58 H58           -4.0160     0.9446     2.3073 H       
  59 H59           -6.4557     0.5315     2.1472 H       
  60 H60           -6.3559     0.6298     0.3728 H       
  61 H61           -4.7884    -1.2915     0.3544 H       
  62 H62           -4.8882    -1.3898     2.1289 H       
  63 H63           -7.3280    -1.8030     1.9687 H       
  64 H64           -7.2281    -1.7047     0.1943 H       
  65 H65           -5.6607    -3.6259     0.1760 H       
  66 H66           -5.7605    -3.7243     1.9504 H       
  67 H67           -8.2002    -4.1375     1.7903 H       
  68 H68           -8.1004    -4.0391     0.0158 H       
  69 H69           -6.5329    -5.9604    -0.0025 H       
  70 H70           -6.6327    -6.0588     1.7720 H       
  71 H71           -9.0725    -6.4719     1.6118 H       
  72 H72           -8.9726    -6.3736    -0.1626 H       
  73 H73           -7.4052    -8.2949    -0.1809 H       
  74 H74           -7.5050    -8.3932     1.5935 H       
  75 H75           -9.9447    -8.8064     1.4334 H       
  76 H76           -9.8449    -8.7081    -0.3411 H       
  77 H77           -8.4440   -12.8063    -0.1121 H       
  78 H78           -8.9384   -14.3297     1.7394 H       
  79 H79           -8.7176   -12.6847     2.3824 H       
  80 H80          -12.9291   -15.0307     5.6916 H       
  81 H81          -12.5820   -13.3635     6.2095 H       
  82 H82          -14.9721   -13.7536     6.4556 H       
  83 H83          -14.7284   -12.6444     5.0850 H       
  84 H84           -2.2715     5.6136     2.6643 H       
  85 H85           -2.1717     5.7119     0.8898 H       
  86 H86          -11.4070   -13.5326    -0.0117 H       
  87 H87          -10.7292   -11.9815    -2.0274 H       
  88 H88          -10.0401   -14.8484    -2.7466 H       
  89 H89          -11.1762   -13.7156    -4.8332 H       
  90 H90          -10.5064   -12.1715    -4.2541 H       
  91 H91           -8.2104   -13.0750    -4.5010 H       
  92 H92           -8.8803   -14.6190    -5.0802 H       
  93 H93           -9.9413   -13.4431    -6.9880 H       
  94 H94           -9.2714   -11.8990    -6.4088 H       
  95 H95           -6.9755   -12.8025    -6.6557 H       
  96 H96           -7.6453   -14.3465    -7.2349 H       
  97 H97           -8.7064   -13.1705    -9.1428 H       
  98 H98           -8.0365   -11.6265    -8.5636 H       
  99 H99           -5.7405   -12.5299    -8.8105 H       
 100 H100          -6.4104   -14.0740    -9.3897 H       
 101 H101          -7.4714   -12.8980   -11.2976 H       
 102 H102          -6.8016   -11.3540   -10.7184 H       
 103 H103          -4.5056   -12.2574   -10.9653 H       
 104 H104          -5.1755   -13.8015   -11.5445 H       
 105 H105          -6.2365   -12.6255   -13.4524 H       
 106 H106          -5.5666   -11.0814   -12.8732 H       
 107 H107          -3.2707   -11.9849   -13.1201 H       
 108 H108          -3.9405   -13.5289   -13.6993 H       
 109 H109          -5.0015   -12.3530   -15.6071 H       
 110 H110          -4.3317   -10.8089   -15.0279 H       
 111 H111          -9.1130   -15.0595    -0.9258 H       
 112 H112          -2.0357   -11.7124   -15.2749 H       
 113 H113          -2.7056   -13.2564   -15.8540 H       
 114 H114          -3.0967   -10.5364   -17.1827 H       
 115 H115          -2.0055   -11.8223   -17.7519 H       
 116 H116          -3.7666   -12.0805   -17.7619 H       
 117 H117          -3.7391     7.6332     0.9081 H       
 118 H118          -3.8390     7.5348     2.6826 H       
 119 H119          -1.3992     7.9480     2.8427 H       
 120 H120          -1.2994     8.0464     1.0683 H       
 121 H121          -2.8669     9.9677     1.0866 H       
 122 H122          -2.9667     9.8693     2.8610 H       
 123 H123          -1.4288    10.3070     2.0791 H       
 124 H124         -15.3068   -16.1302     6.0027 H       
 125 H125         -15.4813   -16.6817     4.3193 H       
 126 H126         -13.8924   -16.1525     4.9223 H       
 127 H127         -16.9371   -13.3541     4.3211 H       
 128 H128         -17.2291   -15.0753     3.9742 H       
 129 H129         -17.0546   -14.5238     5.6576 H       
 130 H130         -13.7762   -14.7402     3.0833 H       
 131 H131         -15.4401   -14.9786     2.4978 H       
 132 H132         -14.8716   -13.3464     2.9232 H       
@<TRIPOS>BOND
   1    1    2 1
   2    1   24 1
   3    1   51 1
   4    1   52 1
   5    2    3 1
   6    2   53 1
   7    2   54 1
   8    3    4 1
   9    3   55 1
  10    3   56 1
  11    4    5 1
  12    4   57 1
  13    4   58 1
  14    5    6 1
  15    5   59 1
  16    5   60 1
  17    6    7 1
  18    6   61 1
  19    6   62 1
  20    7    8 1
  21    7   63 1
  22    7   64 1
  23    8    9 1
  24    8   65 1
  25    8   66 1
  26    9   10 1
  27    9   67 1
  28    9   68 1
  29   10   11 1
  30   10   69 1
  31   10   70 1
  32   11   12 1
  33   11   71 1
  34   11   72 1
  35   12   13 1
  36   12   73 1
  37   12   74 1
  38   13   14 1
  39   13   75 1
  40   13   76 1
  41   14   15 1
  42   14   25 2
  43   15   16 1
  44   16   17 1
  45   16   26 1
  46   16   77 1
  47   17   18 1
  48   17   78 1
  49   17   79 1
  50   18   19 1
  51   19   20 1
  52   19   27 ar
  53   19   28 ar
  54   20   21 1
  55   21   22 1
  56   21   80 1
  57   21   81 1
  58   22   23 1
  59   22   82 1
  60   22   83 1
  61   23   48 1
  62   23   49 1
  63   23   50 1
  64   24   45 1
  65   24   84 1
  66   24   85 1
  67   26   29 1
  68   26   42 1
  69   26   86 1
  70   29   30 2
  71   29   87 1
  72   30   31 1
  73   30   88 1
  74   31   32 1
  75   31   89 1
  76   31   90 1
  77   32   33 1
  78   32   91 1
  79   32   92 1
  80   33   34 1
  81   33   93 1
  82   33   94 1
  83   34   35 1
  84   34   95 1
  85   34   96 1
  86   35   36 1
  87   35   97 1
  88   35   98 1
  89   36   37 1
  90   36   99 1
  91   36  100 1
  92   37   38 1
  93   37  101 1
  94   37  102 1
  95   38   39 1
  96   38  103 1
  97   38  104 1
  98   39   40 1
  99   39  105 1
 100   39  106 1
 101   40   41 1
 102   40  107 1
 103   40  108 1
 104   41   43 1
 105   41  109 1
 106   41  110 1
 107   42  111 1
 108   43   44 1
 109   43  112 1
 110   43  113 1
 111   44  114 1
 112   44  115 1
 113   44  116 1
 114   45   46 1
 115   45  117 1
 116   45  118 1
 117   46   47 1
 118   46  119 1
 119   46  120 1
 120   47  121 1
 121   47  122 1
 122   47  123 1
 123   48  124 1
 124   48  125 1
 125   48  126 1
 126   49  127 1
 127   49  128 1
 128   49  129 1
 129   50  130 1
 130   50  131 1
 131   50  132 1

#	End of record

