#	Name: ASD08150671
#	Creating user name:	WinNT
#	Creation time:	15. 06. 2019 21:16

#	Modifying user name:	WinNT
#	Modification time:	15. 06. 2019 21:16

#	Program:	/corina/corina34_cracker 3.40 0067  02.08.2006

@<TRIPOS>MOLECULE
ASD08150671
  66   72    0    0    0
SMALL
NO_CHARGES


@<TRIPOS>ATOM
   1 N1             0.9392     2.9504     2.7516 N.am    
   2 C2             1.5527     2.9477     3.9509 C.2     
   3 C3             2.8192     2.3508     4.1146 C.2     
   4 C4             3.4409     1.7672     3.0585 C.2     
   5 C5             2.7982     1.7679     1.7954 C.ar    
   6 C6             3.3987     1.1761     0.6678 C.ar    
   7 N7             2.8032     1.1778    -0.4963 N.ar    
   8 C8             1.5983     1.7366    -0.6852 C.ar    
   9 C9             0.9198     2.3553     0.3938 C.ar    
  10 C10            1.5374     2.3709     1.6667 C.ar    
  11 C11           -0.3349     2.9356     0.1866 C.ar    
  12 C12           -0.9036     2.8991    -1.0777 C.ar    
  13 C13           -0.2254     2.2842    -2.1409 C.ar    
  14 C14            0.9954     1.7158    -1.9539 C.ar    
  15 O15            1.0053     3.4689     4.9077 O.2     
  16 C16           -2.2324     3.5113    -1.3065 C.ar    
  17 C17           -0.3219     3.5456     2.6161 C.ar    
  18 C18           -0.4236     4.9087     2.3688 C.ar    
  19 C19           -1.6657     5.4951     2.2353 C.ar    
  20 C20           -2.8146     4.7218     2.3477 C.ar    
  21 C21           -2.7127     3.3587     2.5945 C.ar    
  22 C22           -1.4700     2.7716     2.7232 C.ar    
  23 N23           -4.0730     5.3158     2.2130 N.3     
  24 C24           -3.3836     2.7567    -1.1652 C.ar    
  25 C25           -4.0068     6.4980     1.3426 C.3     
  26 C26           -5.4139     7.0709     1.1570 C.3     
  27 N27           -5.9759     7.4177     2.4698 N.3     
  28 C28           -6.0420     6.2354     3.3402 C.3     
  29 C29           -4.6350     5.6626     3.5258 C.3     
  30 C30           -4.6348     3.3246    -1.3783 C.ar    
  31 C31           -4.7635     4.6339    -1.7307 C.ar    
  32 C32           -3.6203     5.4374    -1.8848 C.ar    
  33 C33           -2.3387     4.8764    -1.6664 C.ar    
  34 C34           -3.7261     6.7915    -2.2472 C.ar    
  35 C35           -2.5986     7.5412    -2.3875 C.ar    
  36 C36           -1.3382     6.9863    -2.1770 C.ar    
  37 C37           -1.1993     5.6792    -1.8196 C.ar    
  38 C38           -3.9587     2.5199     2.7171 C.3     
  39 F39           -3.6048     1.1694     2.8069 F       
  40 F40           -4.6622     2.8951     3.8667 F       
  41 F41           -4.7659     2.7166     1.5915 F       
  42 H42            3.2965     2.3582     5.0834 H       
  43 H43            4.4116     1.3092     3.1789 H       
  44 H44            4.3692     0.7126     0.7660 H       
  45 H45           -0.8576     3.4084     1.0049 H       
  46 H46           -0.6793     2.2618    -3.1206 H       
  47 H47            1.5037     1.2473    -2.7837 H       
  48 H48            0.4694     5.5097     2.2814 H       
  49 H49           -1.7448     6.5550     2.0437 H       
  50 H50           -1.3906     1.7111     2.9114 H       
  51 H51           -3.3095     1.7158    -0.8868 H       
  52 H52           -3.3651     7.2510     1.8002 H       
  53 H53           -3.5993     6.2132     0.3726 H       
  54 H54           -5.3635     7.9648     0.5354 H       
  55 H55           -6.0485     6.3275     0.6747 H       
  56 H56           -5.4468     8.1583     2.9055 H       
  57 H57           -6.4496     6.5203     4.3102 H       
  58 H58           -6.6838     5.4825     2.8826 H       
  59 H59           -4.6854     4.7686     4.1474 H       
  60 H60           -4.0004     6.4060     4.0081 H       
  61 H61           -5.5200     2.7167    -1.2628 H       
  62 H62           -5.7447     5.0551    -1.8922 H       
  63 H63           -4.6968     7.2345    -2.4139 H       
  64 H64           -2.6824     8.5812    -2.6664 H       
  65 H65           -0.4589     7.6022    -2.2951 H       
  66 H66           -0.2160     5.2621    -1.6593 H       
@<TRIPOS>BOND
   1    1    2 am
   2    1   10 1
   3    1   17 1
   4    2    3 1
   5    2   15 2
   6    3    4 2
   7    3   42 1
   8    4    5 1
   9    4   43 1
  10    5    6 ar
  11    5   10 ar
  12    6    7 ar
  13    6   44 1
  14    7    8 ar
  15    8    9 ar
  16    8   14 ar
  17    9   10 ar
  18    9   11 ar
  19   11   12 ar
  20   11   45 1
  21   12   13 ar
  22   12   16 1
  23   13   14 ar
  24   13   46 1
  25   14   47 1
  26   16   24 ar
  27   16   33 ar
  28   17   18 ar
  29   17   22 ar
  30   18   19 ar
  31   18   48 1
  32   19   20 ar
  33   19   49 1
  34   20   21 ar
  35   20   23 1
  36   21   22 ar
  37   21   38 1
  38   22   50 1
  39   23   25 1
  40   23   29 1
  41   24   30 ar
  42   24   51 1
  43   25   26 1
  44   25   52 1
  45   25   53 1
  46   26   27 1
  47   26   54 1
  48   26   55 1
  49   27   28 1
  50   27   56 1
  51   28   29 1
  52   28   57 1
  53   28   58 1
  54   29   59 1
  55   29   60 1
  56   30   31 ar
  57   30   61 1
  58   31   32 ar
  59   31   62 1
  60   32   33 ar
  61   32   34 ar
  62   33   37 ar
  63   34   35 ar
  64   34   63 1
  65   35   36 ar
  66   35   64 1
  67   36   37 ar
  68   36   65 1
  69   37   66 1
  70   38   39 1
  71   38   40 1
  72   38   41 1

#	End of record

