#	Name: ASD01884727
#	Creating user name:	WinNT
#	Creation time:	15. 06. 2019 19:48

#	Modifying user name:	WinNT
#	Modification time:	15. 06. 2019 19:48

#	Program:	/corina/corina34_cracker 3.40 0067  02.08.2006

@<TRIPOS>MOLECULE
ASD01884727
  53   56    0    0    0
SMALL
NO_CHARGES


@<TRIPOS>ATOM
   1 C1            -0.0168     1.3860     0.0097 C.2     
   2 C2             0.0021    -0.0041     0.0020 C.2     
   3 C3            -1.2197    -0.6996     0.0099 C.2     
   4 C4            -2.4060     0.0018     0.0249 C.2     
   5 N5            -2.4136     1.3557     0.0318 N.am    
   6 C6            -1.2663     2.0590     0.0311 C.2     
   7 O7            -1.3002     3.2775     0.0385 O.2     
   8 C8            -3.6938     2.0679     0.0469 C.3     
   9 C9             1.2076     2.1286     0.0020 C.1     
  10 N10            2.1789     2.7176    -0.0042 N.1     
  11 C11           -4.1266     2.3085     1.4945 C.3     
  12 C12           -5.4635     3.0522     1.5102 C.3     
  13 C13           -5.9575     3.1830     2.9524 C.3     
  14 C14           -5.2791     4.4457     0.9059 C.3     
  15 C15           -1.2320    -2.1836     0.0016 C.ar    
  16 C16           -0.7409    -2.8565    -1.0950 C.ar    
  17 C17           -0.7525    -4.2662    -1.1030 C.ar    
  18 C18           -1.2913    -4.9795     0.0656 C.ar    
  19 C19           -1.7794    -4.2277     1.1572 C.ar    
  20 C20           -1.7399    -2.8753     1.1165 C.ar    
  21 C21           -0.3530    -5.2369    -2.0040 C.2     
  22 N22           -0.6127    -6.4343    -1.4606 N.pl3   
  23 N23           -1.1865    -6.2701    -0.1949 N.2     
  24 C24           -0.3373    -7.7243    -2.0979 C.3     
  25 C25            0.5167    -8.5642    -1.1834 C.ar    
  26 C26           -0.0625    -9.4154    -0.2547 C.ar    
  27 C27            0.7527   -10.1707     0.5669 C.ar    
  28 N28            2.0656   -10.0880     0.4749 N.ar    
  29 C29            2.6508    -9.2896    -0.3964 C.ar    
  30 C30            1.9003    -8.5085    -1.2547 C.ar    
  31 H31            0.9393    -0.5405    -0.0101 H       
  32 H32           -3.3426    -0.5360     0.0310 H       
  33 H33           -3.5832     3.0248    -0.4631 H       
  34 H34           -4.4485     1.4693    -0.4633 H       
  35 H35           -4.2371     1.3515     2.0045 H       
  36 H36           -3.3718     2.9070     2.0047 H       
  37 H37           -6.1955     2.4962     0.9245 H       
  38 H38           -5.2255     3.7391     3.5381 H       
  39 H39           -6.9100     3.7129     2.9636 H       
  40 H40           -6.0889     2.1903     3.3829 H       
  41 H41           -4.9272     4.3525    -0.1215 H       
  42 H42           -6.2316     4.9755     0.9171 H       
  43 H43           -4.5471     5.0017     1.4917 H       
  44 H44           -0.3510    -2.3096    -1.9407 H       
  45 H45           -2.1793    -4.7312     2.0250 H       
  46 H46           -2.1163    -2.3125     1.9579 H       
  47 H47            0.0896    -5.0612    -2.9733 H       
  48 H48           -1.2769    -8.2409    -2.2936 H       
  49 H49            0.1897    -7.5601    -3.0379 H       
  50 H50           -1.1371    -9.4869    -0.1741 H       
  51 H51            0.3094   -10.8361     1.2929 H       
  52 H52            3.7290    -9.2484    -0.4423 H       
  53 H53            2.3854    -7.8568    -1.9663 H       
@<TRIPOS>BOND
   1    1    2 2
   2    1    9 1
   3    1    6 1
   4    2    3 1
   5    2   31 1
   6    3    4 2
   7    3   15 1
   8    4    5 1
   9    4   32 1
  10    5    8 1
  11    5    6 am
  12    6    7 2
  13    8   11 1
  14    8   33 1
  15    8   34 1
  16    9   10 3
  17   11   12 1
  18   11   35 1
  19   11   36 1
  20   12   13 1
  21   12   14 1
  22   12   37 1
  23   13   38 1
  24   13   39 1
  25   13   40 1
  26   14   41 1
  27   14   42 1
  28   14   43 1
  29   15   16 ar
  30   15   20 ar
  31   16   17 ar
  32   16   44 1
  33   17   21 2
  34   17   18 ar
  35   18   19 ar
  36   18   23 2
  37   19   20 ar
  38   19   45 1
  39   20   46 1
  40   21   22 1
  41   21   47 1
  42   22   23 1
  43   22   24 1
  44   24   25 1
  45   24   48 1
  46   24   49 1
  47   25   26 ar
  48   25   30 ar
  49   26   27 ar
  50   26   50 1
  51   27   28 ar
  52   27   51 1
  53   28   29 ar
  54   29   30 ar
  55   29   52 1
  56   30   53 1

#	End of record

