#	Name: ASD01912899
#	Creating user name:	WinNT
#	Creation time:	15. 06. 2019 20:00

#	Modifying user name:	WinNT
#	Modification time:	15. 06. 2019 20:00

#	Program:	/corina/corina34_cracker 3.40 0067  02.08.2006

@<TRIPOS>MOLECULE
ASD01912899
  37   40    0    0    0
SMALL
NO_CHARGES


@<TRIPOS>ATOM
   1 C1            -0.0174     1.3662    -0.0396 C.2     
   2 N2             0.0021    -0.0040     0.0056 N.pl3   
   3 C3            -1.2012    -0.6911     0.0635 C.2     
   4 C4            -2.3620    -0.0486     0.0752 C.2     
   5 N5            -2.4358     1.3306     0.0312 N.am    
   6 C6            -1.3028     2.0662    -0.0200 C.2     
   7 C7             1.2998     1.7823    -0.0922 C.2     
   8 C8             2.0538     0.6102    -0.0751 C.2     
   9 N9             1.2242    -0.4046    -0.0168 N.2     
  10 O10           -1.3506     3.2826    -0.0593 O.2     
  11 C11           -3.6834     1.9661     0.0456 C.ar    
  12 C12            3.5578     0.5236    -0.1163 C.3     
  13 O13            4.1092     1.8406    -0.1765 O.3     
  14 C14            5.4620     1.9408    -0.2195 C.ar    
  15 C15            6.0684     3.1928    -0.2792 C.ar    
  16 C16            7.4533     3.2423    -0.3215 C.ar    
  17 C17            8.1497     2.0410    -0.3018 C.ar    
  18 N18            7.4914     0.8992    -0.2443 N.ar    
  19 N19            6.2097     0.8492    -0.1994 N.ar    
  20 C20           -4.5432     1.8348    -1.0371 C.ar    
  21 C21           -5.7734     2.4620    -1.0206 C.ar    
  22 C22           -6.1498     3.2218     0.0744 C.ar    
  23 C23           -5.2939     3.3540     1.1551 C.ar    
  24 C24           -4.0651     2.7238     1.1452 C.ar    
  25 Cl25           9.8849     2.0418    -0.3533 Cl      
  26 F26           -7.3533     3.8353     0.0882 F       
  27 H27           -1.1932    -1.7705     0.0993 H       
  28 H28           -3.2768    -0.6209     0.1201 H       
  29 H29            1.6659     2.7974    -0.1372 H       
  30 H30            3.9175     0.0198     0.7809 H       
  31 H31            3.8653    -0.0397    -0.9973 H       
  32 H32            5.4783     4.0972    -0.2925 H       
  33 H33            7.9749     4.1868    -0.3688 H       
  34 H34           -4.2498     1.2430    -1.8915 H       
  35 H35           -6.4424     2.3602    -1.8623 H       
  36 H36           -5.5892     3.9473     2.0079 H       
  37 H37           -3.3980     2.8271     1.9882 H       
@<TRIPOS>BOND
   1    1    2 1
   2    1    7 2
   3    1    6 1
   4    2    3 1
   5    2    9 1
   6    3    4 2
   7    3   27 1
   8    4    5 1
   9    4   28 1
  10    5    6 am
  11    5   11 1
  12    6   10 2
  13    7    8 1
  14    7   29 1
  15    8    9 2
  16    8   12 1
  17   11   20 ar
  18   11   24 ar
  19   12   13 1
  20   12   30 1
  21   12   31 1
  22   13   14 1
  23   14   15 ar
  24   14   19 ar
  25   15   16 ar
  26   15   32 1
  27   16   17 ar
  28   16   33 1
  29   17   18 ar
  30   17   25 1
  31   18   19 ar
  32   20   21 ar
  33   20   34 1
  34   21   22 ar
  35   21   35 1
  36   22   23 ar
  37   22   26 1
  38   23   24 ar
  39   23   36 1
  40   24   37 1

#	End of record

