#	Name: ASD01820122
#	Creating user name:	WinNT
#	Creation time:	15. 06. 2019 19:36

#	Modifying user name:	WinNT
#	Modification time:	15. 06. 2019 19:36

#	Program:	/corina/corina34_cracker 3.40 0067  02.08.2006

@<TRIPOS>MOLECULE
ASD01820122
  60   63    0    0    0
SMALL
NO_CHARGES


@<TRIPOS>ATOM
   1 C1             0.0010     1.5089    -0.0236 C.3     
   2 C2             0.0056    -0.0211    -0.0189 C.3     
   3 C3            -1.4351    -0.5353     0.0126 C.3     
   4 N4            -2.1171    -0.1535    -1.2265 N.am    
   5 C5            -2.6898     1.0618    -1.3336 C.2     
   6 O6            -2.7286     1.8029    -0.3698 O.2     
   7 C7            -3.2682     1.4920    -2.6161 C.2     
   8 C8            -3.9538     2.6846    -2.7121 C.2     
   9 N9            -4.4941     3.1085    -3.8647 N.pl3   
  10 C10           -4.4082     2.3921    -5.0379 C.ar    
  11 N11           -4.9614     2.8595    -6.1504 N.ar    
  12 C12           -4.8935     2.1925    -7.2904 C.ar    
  13 N13           -5.4875     2.7245    -8.4236 N.3     
  14 C14           -6.5742     1.8416    -8.9194 C.3     
  15 C15           -7.4298     2.7904    -9.7959 C.3     
  16 H16           -6.9839     2.9104   -10.7832 H       
  17 O17           -8.7704     2.3075    -9.9038 O.3     
  18 C18           -7.3851     4.1210    -9.0101 C.3     
  19 H19           -8.2761     4.2248    -8.3908 H       
  20 O20           -7.2766     5.2254    -9.9104 O.3     
  21 C21           -6.1281     4.0240    -8.1259 C.3     
  22 C22           -4.2348     0.9620    -7.3768 C.ar    
  23 F23           -4.1785     0.2996    -8.5529 F       
  24 C24           -3.6468     0.4352    -6.2575 C.ar    
  25 C25           -3.7319     1.1598    -5.0624 C.ar    
  26 C26           -3.1201     0.6599    -3.8217 C.2     
  27 O27           -2.5194    -0.4006    -3.7920 O.2     
  28 C28           -5.1761     4.3334    -3.8752 C.ar    
  29 C29           -6.5388     4.3742    -3.6033 C.ar    
  30 F30           -7.2079     3.2331    -3.3285 F       
  31 C31           -7.2089     5.5842    -3.6139 C.ar    
  32 C32           -6.5237     6.7542    -3.8950 C.ar    
  33 F33           -7.1807     7.9347    -3.9043 F       
  34 C34           -5.1663     6.7167    -4.1663 C.ar    
  35 C35           -4.4898     5.5103    -4.1519 C.ar    
  36 F36           -3.1645     5.4750    -4.4116 F       
  37 C37           -1.4298    -2.0597     0.1430 C.3     
  38 F38           -0.7588    -2.6189    -0.9499 F       
  39 F39           -0.7785    -2.4243     1.3263 F       
  40 C40           -2.8704    -2.5739     0.1745 C.3     
  41 F41           -3.5217    -2.2093    -1.0088 F       
  42 F42           -2.8656    -3.9678     0.2937 F       
  43 F43           -3.5413    -2.0147     1.2674 F       
  44 H44            1.0274     1.8752    -0.0461 H       
  45 H45           -0.5322     1.8680    -0.9038 H       
  46 H46           -0.4953     1.8735     0.8757 H       
  47 H47            0.5019    -0.3857    -0.9183 H       
  48 H48            0.5389    -0.3801     0.8613 H       
  49 H49           -1.9578    -0.0996     0.8641 H       
  50 H50           -2.1564    -0.7754    -1.9699 H       
  51 H51           -4.0597     3.2979    -1.8295 H       
  52 H52           -6.1655     1.0282    -9.5190 H       
  53 H53           -7.1617     1.4510    -8.0886 H       
  54 H54           -8.8430     1.4386   -10.3218 H       
  55 H55           -7.2443     6.0874    -9.4735 H       
  56 H56           -6.4099     4.0666    -7.0738 H       
  57 H57           -5.4435     4.8384    -8.3630 H       
  58 H58           -3.1312    -0.5131    -6.2958 H       
  59 H59           -8.2676     5.6165    -3.4031 H       
  60 H60           -4.6344     7.6308    -4.3853 H       
@<TRIPOS>BOND
   1    1    2 1
   2    1   44 1
   3    1   45 1
   4    1   46 1
   5    2    3 1
   6    2   47 1
   7    2   48 1
   8    3    4 1
   9    3   37 1
  10    3   49 1
  11    4    5 am
  12    4   50 1
  13    5    6 2
  14    5    7 1
  15    7   26 1
  16    7    8 2
  17    8    9 1
  18    8   51 1
  19    9   10 1
  20    9   28 1
  21   10   25 ar
  22   10   11 ar
  23   11   12 ar
  24   12   13 1
  25   12   22 ar
  26   13   21 1
  27   13   14 1
  28   14   15 1
  29   14   52 1
  30   14   53 1
  31   15   16 1
  32   15   17 1
  33   15   18 1
  34   17   54 1
  35   18   19 1
  36   18   20 1
  37   18   21 1
  38   20   55 1
  39   21   56 1
  40   21   57 1
  41   22   23 1
  42   22   24 ar
  43   24   25 ar
  44   24   58 1
  45   25   26 1
  46   26   27 2
  47   28   35 ar
  48   28   29 ar
  49   29   30 1
  50   29   31 ar
  51   31   32 ar
  52   31   59 1
  53   32   33 1
  54   32   34 ar
  55   34   35 ar
  56   34   60 1
  57   35   36 1
  58   37   38 1
  59   37   39 1
  60   37   40 1
  61   40   41 1
  62   40   42 1
  63   40   43 1

#	End of record

