#	Name: ASD01150012
#	Creating user name:	WinNT
#	Creation time:	15. 06. 2019 19:03

#	Modifying user name:	WinNT
#	Modification time:	15. 06. 2019 19:03

#	Program:	/corina/corina34_cracker 3.40 0067  02.08.2006

@<TRIPOS>MOLECULE
ASD01150012
  42   44    0    0    0
SMALL
NO_CHARGES


@<TRIPOS>ATOM
   1 N1            -0.0159     1.3209     0.0093 N.ar    
   2 C2             0.0021    -0.0041     0.0020 C.ar    
   3 C3             1.2309    -0.6638    -0.0133 C.ar    
   4 C4             2.4009     0.1160    -0.0202 C.ar    
   5 N5             2.2879     1.4402    -0.0121 N.ar    
   6 C6             1.1033     2.0173     0.0024 C.ar    
   7 C7             1.8541    -2.8240     1.0635 C.ar    
   8 C8             1.9178    -4.2017     1.0530 C.ar    
   9 C9             1.4323    -4.9122    -0.0362 C.ar    
  10 C10            0.8813    -4.2391    -1.1181 C.ar    
  11 C11            0.8147    -2.8615    -1.1137 C.ar    
  12 C12            1.3014    -2.1450    -0.0214 C.ar    
  13 C13            6.0374    -0.4483     0.5539 C.3     
  14 C14            4.8583     0.3405    -0.0421 C.3     
  15 C15            5.2505     0.6908    -1.4923 C.3     
  16 C16            6.3044    -0.3798    -1.8699 C.3     
  17 C17            7.1051    -0.5498    -0.5549 C.3     
  18 N18            3.6478    -0.4847    -0.0349 N.pl3   
  19 C19            1.0256     3.5223     0.0112 C.3     
  20 O20            1.4969    -6.2696    -0.0437 O.3     
  21 C21            0.9790    -6.9374    -1.1960 C.3     
  22 Cl22          -1.4816    -0.9053     0.0119 Cl      
  23 H23            2.2280    -2.2720     1.9131 H       
  24 H24            2.3462    -4.7282     1.8930 H       
  25 H25            0.5045    -4.7947    -1.9640 H       
  26 H26            0.3866    -2.3383    -1.9560 H       
  27 H27            6.4434     0.0814     1.4158 H       
  28 H28            5.7090    -1.4450     0.8485 H       
  29 H29            4.6920     1.2530     0.5305 H       
  30 H30            4.3837     0.6211    -2.1494 H       
  31 H31            5.6867     1.6886    -1.5392 H       
  32 H32            5.8210    -1.3152    -2.1515 H       
  33 H33            6.9498    -0.0206    -2.6715 H       
  34 H34            7.8407     0.2477    -0.4504 H       
  35 H35            7.5916    -1.5248    -0.5279 H       
  36 H36            3.7202    -1.4519    -0.0405 H       
  37 H37            0.9970     3.8906    -1.0143 H       
  38 H38            0.1230     3.8364     0.5353 H       
  39 H39            1.9005     3.9283     0.5189 H       
  40 H40            1.0920    -8.0146    -1.0731 H       
  41 H41           -0.0769    -6.6938    -1.3132 H       
  42 H42            1.5271    -6.6133    -2.0807 H       
@<TRIPOS>BOND
   1    1    2 ar
   2    1    6 ar
   3    2    3 ar
   4    2   22 1
   5    3    4 ar
   6    3   12 1
   7    4    5 ar
   8    4   18 1
   9    5    6 ar
  10    6   19 1
  11    7    8 ar
  12    7   12 ar
  13    7   23 1
  14    8    9 ar
  15    8   24 1
  16    9   10 ar
  17    9   20 1
  18   10   11 ar
  19   10   25 1
  20   11   12 ar
  21   11   26 1
  22   13   14 1
  23   13   17 1
  24   13   27 1
  25   13   28 1
  26   14   15 1
  27   14   18 1
  28   14   29 1
  29   15   16 1
  30   15   30 1
  31   15   31 1
  32   16   17 1
  33   16   32 1
  34   16   33 1
  35   17   34 1
  36   17   35 1
  37   18   36 1
  38   19   37 1
  39   19   38 1
  40   19   39 1
  41   20   21 1
  42   21   40 1
  43   21   41 1
  44   21   42 1

#	End of record

