#	Name: ASD01209224
#	Creating user name:	WinNT
#	Creation time:	15. 06. 2019 19:11

#	Modifying user name:	WinNT
#	Modification time:	15. 06. 2019 19:11

#	Program:	/corina/corina34_cracker 3.40 0067  02.08.2006

@<TRIPOS>MOLECULE
ASD01209224
  70   72    0    0    0
SMALL
NO_CHARGES


@<TRIPOS>ATOM
   1 O1             0.5874     2.0843     0.1352 O.3     
   2 C2             7.1950    -3.5990    -7.9520 C.ar    
   3 C3             7.6617    -3.3101    -9.2267 C.ar    
   4 C4             7.5291    -2.0302    -9.7446 C.ar    
   5 C5             6.9289    -1.0346    -8.9911 C.ar    
   6 C6             6.4582    -1.3206    -7.7091 C.ar    
   7 C7             6.5893    -2.6108    -7.1937 C.ar    
   8 O8             7.9882    -1.7525   -10.9932 O.3     
   9 C9             5.8176    -0.2613    -6.9013 C.2     
  10 N10            5.3636    -0.5396    -5.6632 N.am    
  11 O11            5.7002     0.8608    -7.3537 O.2     
  12 C12            4.7616     0.4557    -4.9042 C.2     
  13 P13            1.9548     2.9251     0.0105 P.3     
  14 O14            2.8682     2.5477     1.1121 O.2     
  15 O15            2.6560     2.6028    -1.4025 O.3     
  16 N16            4.2924     0.2948    -3.7064 N.2     
  17 S17            4.5382     2.0733    -5.4106 S.3     
  18 C18            3.7662     2.4587    -3.8747 C.2     
  19 C19            3.7515     1.3516    -3.1297 C.2     
  20 O20            7.3274    -4.8546    -7.4494 O.3     
  21 C21            8.5810    -5.3059    -7.1822 C.ar    
  22 C22            7.7098    -0.4504   -11.5121 C.3     
  23 C23            7.7158    -0.4989   -13.0414 C.3     
  24 C24            3.1627     1.3107    -1.7431 C.3     
  25 C25            8.7766    -6.6218    -6.7880 C.ar    
  26 C26            9.6683    -4.4532    -7.3088 C.ar    
  27 C27           10.0521    -7.0782    -6.5175 C.ar    
  28 C28            0.5543     0.6570     0.1959 C.3     
  29 C29           -0.8965     0.1850     0.3110 C.3     
  30 C30           10.9417    -4.9147    -7.0371 C.ar    
  31 C31           11.1332    -6.2249    -6.6389 C.ar    
  32 S32           12.7588    -6.8102    -6.2931 S.o2    
  33 O33           12.6856    -8.2092    -6.5314 O.2     
  34 O34           13.6047    -5.9773    -7.0740 O.2     
  35 C35           12.9934    -6.4771    -4.5254 C.3     
  36 C36            8.7797     0.5307   -11.0288 C.3     
  37 O37            9.0305    -0.8166   -13.5027 O.3     
  38 C38            9.1460    -0.8870   -14.9253 C.3     
  39 C39            1.5838     4.7071     0.1122 C.3     
  40 H40            8.1298    -4.0839    -9.8170 H       
  41 H41            6.8267    -0.0382    -9.3948 H       
  42 H42            6.2264    -2.8364    -6.2019 H       
  43 H43            5.4573    -1.4351    -5.3022 H       
  44 H44            3.3763     3.4233    -3.5851 H       
  45 H45            6.7310    -0.1218   -11.1629 H       
  46 H46            7.0165    -1.2618   -13.3835 H       
  47 H47            7.4167     0.4718   -13.4368 H       
  48 H48            3.9343     1.0232    -1.0290 H       
  49 H49            2.3515     0.5832    -1.7141 H       
  50 H50            7.9324    -7.2886    -6.6923 H       
  51 H51            9.5192    -3.4298    -7.6198 H       
  52 H52           10.2048    -8.1024    -6.2106 H       
  53 H53            0.9998     0.2444    -0.7093 H       
  54 H54            1.1170     0.3171     1.0653 H       
  55 H55           -1.3421     0.5975     1.2162 H       
  56 H56           -1.4593     0.5248    -0.5584 H       
  57 H57           -0.9218    -0.9038     0.3573 H       
  58 H58           11.7884    -4.2515    -7.1358 H       
  59 H59           12.2373    -7.0127    -3.9513 H       
  60 H60           13.9851    -6.8116    -4.2211 H       
  61 H61           12.8986    -5.4069    -4.3417 H       
  62 H62            8.7754     0.5652    -9.9393 H       
  63 H63            9.7585     0.2020   -11.3780 H       
  64 H64            8.5674     1.5238   -11.4246 H       
  65 H65            8.4763    -1.6580   -15.3065 H       
  66 H66            8.8765     0.0756   -15.3598 H       
  67 H67           10.1733    -1.1325   -15.1947 H       
  68 H68            2.5095     5.2763     0.0278 H       
  69 H69            0.9110     4.9850    -0.6991 H       
  70 H70            1.1090     4.9253     1.0688 H       
@<TRIPOS>BOND
   1    1   28 1
   2    1   13 1
   3    2    3 ar
   4    2   20 1
   5    2    7 ar
   6    3    4 ar
   7    3   40 1
   8    4    5 ar
   9    4    8 1
  10    5    6 ar
  11    5   41 1
  12    6    7 ar
  13    6    9 1
  14    7   42 1
  15    8   22 1
  16    9   10 am
  17    9   11 2
  18   10   12 1
  19   10   43 1
  20   12   16 2
  21   12   17 1
  22   13   14 2
  23   13   39 1
  24   13   15 1
  25   15   24 1
  26   16   19 1
  27   17   18 1
  28   18   19 2
  29   18   44 1
  30   19   24 1
  31   20   21 1
  32   21   25 ar
  33   21   26 ar
  34   22   23 1
  35   22   36 1
  36   22   45 1
  37   23   37 1
  38   23   46 1
  39   23   47 1
  40   24   48 1
  41   24   49 1
  42   25   27 ar
  43   25   50 1
  44   26   30 ar
  45   26   51 1
  46   27   31 ar
  47   27   52 1
  48   28   29 1
  49   28   53 1
  50   28   54 1
  51   29   55 1
  52   29   56 1
  53   29   57 1
  54   30   31 ar
  55   30   58 1
  56   31   32 1
  57   32   33 2
  58   32   34 2
  59   32   35 1
  60   35   59 1
  61   35   60 1
  62   35   61 1
  63   36   62 1
  64   36   63 1
  65   36   64 1
  66   37   38 1
  67   38   65 1
  68   38   66 1
  69   38   67 1
  70   39   68 1
  71   39   69 1
  72   39   70 1

#	End of record

