#	Name: ASD04590106
#	Creating user name:	WinNT
#	Creation time:	15. 06. 2019 20:50

#	Modifying user name:	WinNT
#	Modification time:	15. 06. 2019 20:50

#	Program:	/corina/corina34_cracker 3.40 0067  02.08.2006

@<TRIPOS>MOLECULE
ASD04590106
  33   35    0    0    0
SMALL
NO_CHARGES


@<TRIPOS>ATOM
   1 N1            -0.0770     1.2661    -0.0511 N.pl3   
   2 N2            -0.0364    -0.0146     0.0006 N.2     
   3 C3             1.1895    -0.4504    -0.2150 C.2     
   4 C4             2.0138     0.7469    -0.4293 C.2     
   5 C5             1.1374     1.7911    -0.3092 C.2     
   6 C6             1.6413    -1.8539    -0.2362 C.2     
   7 O7             2.8102    -2.1133    -0.4487 O.2     
   8 N8             0.7586    -2.8493    -0.0201 N.am    
   9 C9             1.1659    -4.1832    -0.1364 C.ar    
  10 C10            2.4446    -4.5566     0.2560 C.ar    
  11 C11            2.8445    -5.8734     0.1403 C.ar    
  12 C12            1.9715    -6.8211    -0.3669 C.ar    
  13 C13            0.6961    -6.4509    -0.7592 C.ar    
  14 C14            0.2899    -5.1364    -0.6390 C.ar    
  15 F15            2.3648    -8.1087    -0.4796 F       
  16 C16            3.4646     0.8096    -0.7110 C.2     
  17 C17            4.1000     0.3390    -1.8182 C.2     
  18 N18            5.4071     0.5931    -1.6816 N.2     
  19 C19            5.6177     1.1986    -0.5443 C.2     
  20 N20            4.4363     1.3607     0.0926 N.pl3   
  21 C21            3.4477    -0.3469    -2.9908 C.3     
  22 H22           -0.8824     1.7916     0.0756 H       
  23 H23            1.3745     2.8404    -0.4042 H       
  24 H24           -0.1589    -2.6411     0.2160 H       
  25 H25            3.1260    -3.8176     0.6510 H       
  26 H26            3.8388    -6.1642     0.4454 H       
  27 H27            0.0170    -7.1915    -1.1552 H       
  28 H28           -0.7066    -4.8490    -0.9402 H       
  29 H29            6.5794     1.5219    -0.1743 H       
  30 H30            4.2996     1.7835     0.9548 H       
  31 H31            3.1617     0.3974    -3.7341 H       
  32 H32            4.1492    -1.0530    -3.4351 H       
  33 H33            2.5602    -0.8812    -2.6516 H       
@<TRIPOS>BOND
   1    1    2 1
   2    1    5 1
   3    1   22 1
   4    2    3 2
   5    3    4 1
   6    3    6 1
   7    4    5 2
   8    4   16 1
   9    5   23 1
  10    6    7 2
  11    6    8 am
  12    8    9 1
  13    8   24 1
  14    9   10 ar
  15    9   14 ar
  16   10   11 ar
  17   10   25 1
  18   11   12 ar
  19   11   26 1
  20   12   13 ar
  21   12   15 1
  22   13   14 ar
  23   13   27 1
  24   14   28 1
  25   16   17 2
  26   16   20 1
  27   17   18 1
  28   17   21 1
  29   18   19 2
  30   19   20 1
  31   19   29 1
  32   20   30 1
  33   21   31 1
  34   21   32 1
  35   21   33 1

#	End of record

