#	Name: ASD05380105
#	Creating user name:	WinNT
#	Creation time:	15. 06. 2019 20:59

#	Modifying user name:	WinNT
#	Modification time:	15. 06. 2019 20:59

#	Program:	/corina/corina34_cracker 3.40 0067  02.08.2006

@<TRIPOS>MOLECULE
ASD05380105
  50   54    0    0    0
SMALL
NO_CHARGES


@<TRIPOS>ATOM
   1 C1            -0.2696     1.7430    -0.3086 C.ar    
   2 C2            -0.0034     0.3797    -0.5676 C.ar    
   3 C3             0.6322     2.7209    -0.7222 C.ar    
   4 C4             1.7821     2.3480    -1.3838 C.ar    
   5 C5             2.0468     1.0093    -1.6399 C.ar    
   6 C6             1.1684     0.0272    -1.2395 C.ar    
   7 N7            -0.8957    -0.5551    -0.1551 N.2     
   8 C8            -1.9852    -0.2271     0.4702 C.2     
   9 N9            -2.3220     1.0586     0.7614 N.am    
  10 C10           -1.5091     2.0808     0.4061 C.2     
  11 C11           -3.5179     1.3263     1.4394 C.ar    
  12 C12           -4.6873     1.5520     0.7243 C.ar    
  13 C13           -5.8866     1.8574     2.7744 C.ar    
  14 C14           -2.9249    -1.3262     0.8945 C.3     
  15 N15           -2.9258    -2.3856    -0.1173 N.pl3   
  16 C16           -4.0244    -3.2171    -0.2476 C.ar    
  17 N17           -5.0868    -3.0682     0.5371 N.ar    
  18 O18           -1.7975     3.2358     0.6605 O.2     
  19 C19           -4.0449    -4.2347    -1.2162 C.ar    
  20 C20           -5.1883    -5.0472    -1.3008 C.ar    
  21 N21           -6.2007    -4.8262    -0.4687 N.ar    
  22 C22           -6.1393    -3.8569     0.4200 C.ar    
  23 N23           -3.1776    -4.6662    -2.1633 N.2     
  24 C24           -3.7030    -5.6673    -2.8078 C.2     
  25 N25           -4.9433    -5.9406    -2.3128 N.pl3   
  26 C26           -5.8666     1.8165     1.3930 C.ar    
  27 C27           -4.7229     1.6262     3.4940 C.ar    
  28 C28           -3.5373     1.3608     2.8264 C.ar    
  29 C29            0.3521     4.1762    -0.4486 C.3     
  30 C30           -2.4642    -1.9017     2.2352 C.3     
  31 O31           -4.7438     1.6670     4.8522 O.3     
  32 H32            2.4832     3.1036    -1.7061 H       
  33 H33            2.9527     0.7348    -2.1599 H       
  34 H34            1.3853    -1.0109    -1.4440 H       
  35 H35           -4.6743     1.5210    -0.3551 H       
  36 H36           -6.8100     2.0651     3.2945 H       
  37 H37           -3.9321    -0.9228     0.9991 H       
  38 H38           -2.1564    -2.5043    -0.6959 H       
  39 H39           -6.9812    -3.7012     1.0783 H       
  40 H40           -3.2265    -6.2026    -3.6159 H       
  41 H41           -5.5425    -6.6391    -2.6193 H       
  42 H42           -6.7747     1.9921     0.8354 H       
  43 H43           -2.6305     1.1810     3.3847 H       
  44 H44            0.6720     4.4237     0.5636 H       
  45 H45            0.8984     4.7920    -1.1631 H       
  46 H46           -0.7167     4.3654    -0.5484 H       
  47 H47           -2.4941    -1.1210     2.9953 H       
  48 H48           -3.1252    -2.7179     2.5266 H       
  49 H49           -1.4451    -2.2762     2.1389 H       
  50 H50           -4.9357     0.8155     5.2684 H       
@<TRIPOS>BOND
   1    1    2 ar
   2    1    3 ar
   3    1   10 1
   4    2    7 1
   5    2    6 ar
   6    3    4 ar
   7    3   29 1
   8    4    5 ar
   9    4   32 1
  10    5    6 ar
  11    5   33 1
  12    6   34 1
  13    7    8 2
  14    8    9 1
  15    8   14 1
  16    9   10 am
  17    9   11 1
  18   10   18 2
  19   11   12 ar
  20   11   28 ar
  21   12   26 ar
  22   12   35 1
  23   13   26 ar
  24   13   27 ar
  25   13   36 1
  26   14   15 1
  27   14   30 1
  28   14   37 1
  29   15   16 1
  30   15   38 1
  31   16   17 ar
  32   16   19 ar
  33   17   22 ar
  34   19   20 ar
  35   19   23 1
  36   20   21 ar
  37   20   25 1
  38   21   22 ar
  39   22   39 1
  40   23   24 2
  41   24   25 1
  42   24   40 1
  43   25   41 1
  44   26   42 1
  45   27   31 1
  46   27   28 ar
  47   28   43 1
  48   29   44 1
  49   29   45 1
  50   29   46 1
  51   30   47 1
  52   30   48 1
  53   30   49 1
  54   31   50 1

#	End of record

