#	Name: ASD00190063
#	Creating user name:	WinNT
#	Creation time:	15. 06. 2019 18:33

#	Modifying user name:	WinNT
#	Modification time:	15. 06. 2019 18:33

#	Program:	/corina/corina34_cracker 3.40 0067  02.08.2006

@<TRIPOS>MOLECULE
ASD00190063
  45   49    0    0    0
SMALL
NO_CHARGES


@<TRIPOS>ATOM
   1 C1            -0.7846     0.4544     0.6859 C.3     
   2 C2             0.6249     1.0657     0.8829 C.3     
   3 C3             1.4597     0.3605    -0.2148 C.3     
   4 C4             0.9161    -1.0830    -0.2348 C.3     
   5 C5            -0.5108    -1.0234     0.3379 C.3     
   6 C6             0.8835    -1.6029    -1.6489 C.2     
   7 N7             1.8203    -2.3215    -2.2050 N.2     
   8 C8             1.4741    -2.6138    -3.4672 C.ar    
   9 C9             0.2261    -2.0277    -3.7028 C.ar    
  10 N10           -0.1229    -1.3991    -2.5277 N.pl3   
  11 H11           -0.9386    -0.9009    -2.3624 H       
  12 C12           -0.3798    -2.1777    -4.9605 C.ar    
  13 N13           -1.6173    -1.5932    -5.1864 N.pl3   
  14 C14           -2.2915    -1.8267    -6.3881 C.ar    
  15 C15           -2.1733    -3.0555    -7.0252 C.ar    
  16 C16           -2.8413    -3.2831    -8.2123 C.ar    
  17 C17           -3.6268    -2.2893    -8.7670 C.ar    
  18 C18           -3.7464    -1.0648    -8.1356 C.ar    
  19 C19           -3.0861    -0.8326    -6.9451 C.ar    
  20 N20            0.1929    -2.8565    -5.9305 N.ar    
  21 C21            1.3875    -3.4503    -5.7916 C.ar    
  22 C22            1.9635    -4.1658    -6.8526 C.ar    
  23 C23            3.1785    -4.7617    -6.6882 C.ar    
  24 C24            3.8617    -4.6727    -5.4806 C.ar    
  25 C25            3.3300    -3.9843    -4.4279 C.ar    
  26 C26            2.0873    -3.3631    -4.5650 C.ar    
  27 H27           -1.3645     0.5286     1.6058 H       
  28 H28           -1.3039     0.9496    -0.1346 H       
  29 H29            0.6048     2.1433     0.7204 H       
  30 H30            1.0128     0.8305     1.8740 H       
  31 H31            1.3028     0.8406    -1.1808 H       
  32 H32            2.5176     0.3662     0.0477 H       
  33 H33            1.5408    -1.7258     0.3855 H       
  34 H34           -0.5787    -1.6372     1.2361 H       
  35 H35           -1.2269    -1.3704    -0.4069 H       
  36 H36           -2.0147    -1.0223    -4.5103 H       
  37 H37           -1.5594    -3.8317    -6.5929 H       
  38 H38           -2.7498    -4.2381    -8.7082 H       
  39 H39           -4.1479    -2.4698    -9.6957 H       
  40 H40           -4.3604    -0.2907    -8.5717 H       
  41 H41           -3.1837     0.1222    -6.4500 H       
  42 H42            1.4453    -4.2445    -7.7969 H       
  43 H43            3.6168    -5.3113    -7.5081 H       
  44 H44            4.8229    -5.1533    -5.3738 H       
  45 H45            3.8681    -3.9210    -3.4937 H       
@<TRIPOS>BOND
   1    1    5 1
   2    1    2 1
   3    1   27 1
   4    1   28 1
   5    2    3 1
   6    2   29 1
   7    2   30 1
   8    3    4 1
   9    3   31 1
  10    3   32 1
  11    4    5 1
  12    4    6 1
  13    4   33 1
  14    5   34 1
  15    5   35 1
  16    6   10 1
  17    6    7 2
  18    7    8 1
  19    8   26 ar
  20    8    9 ar
  21    9   10 1
  22    9   12 ar
  23   10   11 1
  24   12   13 1
  25   12   20 ar
  26   13   14 1
  27   13   36 1
  28   14   19 ar
  29   14   15 ar
  30   15   16 ar
  31   15   37 1
  32   16   17 ar
  33   16   38 1
  34   17   18 ar
  35   17   39 1
  36   18   19 ar
  37   18   40 1
  38   19   41 1
  39   20   21 ar
  40   21   26 ar
  41   21   22 ar
  42   22   23 ar
  43   22   42 1
  44   23   24 ar
  45   23   43 1
  46   24   25 ar
  47   24   44 1
  48   25   26 ar
  49   25   45 1

#	End of record

