#	Name: ASD01811659
#	Creating user name:	WinNT
#	Creation time:	15. 06. 2019 19:27

#	Modifying user name:	WinNT
#	Modification time:	15. 06. 2019 19:27

#	Program:	/corina/corina34_cracker 3.40 0067  02.08.2006

@<TRIPOS>MOLECULE
ASD01811659
  30   32    0    0    0
SMALL
NO_CHARGES


@<TRIPOS>ATOM
   1 C1             0.0958     1.5480     0.2427 C.ar    
   2 C2             0.0509     0.1629     0.2402 C.ar    
   3 C3             1.2167    -0.5640     0.1488 C.ar    
   4 C4             2.4565     0.0864     0.0575 C.ar    
   5 C5             2.4985     1.4795     0.0611 C.ar    
   6 C6             1.3060     2.2001     0.1538 C.ar    
   7 C7             3.6612    -0.7527    -0.0405 C.2     
   8 N8             4.6686    -0.5076    -0.8021 N.2     
   9 C9             4.7144     0.6715    -1.6658 C.3     
  10 C10            4.7073     1.9058    -0.8058 C.2     
  11 N11            3.6758     2.2057    -0.0207 N.am    
  12 S12            5.9728     2.8827    -0.8353 S.2     
  13 C13            3.7184    -1.9697     0.8006 C.ar    
  14 C14            3.7314    -3.2318     0.2068 C.ar    
  15 C15            3.7848    -4.3622     0.9958 C.ar    
  16 C16            3.8255    -4.2477     2.3742 C.ar    
  17 C17            3.8126    -3.0008     2.9715 C.ar    
  18 C18            3.7656    -1.8592     2.1928 C.ar    
  19 Cl19          -1.4757    -0.6560     0.3531 Cl      
  20 F20            3.7530    -0.6409     2.7766 F       
  21 H21           -0.8196     2.1170     0.3098 H       
  22 H22            1.1765    -1.6432     0.1477 H       
  23 H23            1.3327     3.2798     0.1554 H       
  24 H24            5.6244     0.6497    -2.2655 H       
  25 H25            3.8434     0.6781    -2.3211 H       
  26 H26            3.7540     2.9946     0.5383 H       
  27 H27            3.6993    -3.3238    -0.8688 H       
  28 H28            3.7944    -5.3395     0.5362 H       
  29 H29            3.8673    -5.1365     2.9864 H       
  30 H30            3.8439    -2.9182     4.0479 H       
@<TRIPOS>BOND
   1    1    2 ar
   2    1    6 ar
   3    1   21 1
   4    2    3 ar
   5    2   19 1
   6    3    4 ar
   7    3   22 1
   8    4    5 ar
   9    4    7 1
  10    5    6 ar
  11    5   11 1
  12    6   23 1
  13    7    8 2
  14    7   13 1
  15    8    9 1
  16    9   10 1
  17    9   24 1
  18    9   25 1
  19   10   11 am
  20   10   12 2
  21   11   26 1
  22   13   14 ar
  23   13   18 ar
  24   14   15 ar
  25   14   27 1
  26   15   16 ar
  27   15   28 1
  28   16   17 ar
  29   16   29 1
  30   17   18 ar
  31   17   30 1
  32   18   20 1

#	End of record

