#	Name: ASD04882053
#	Creating user name:	WinNT
#	Creation time:	15. 06. 2019 20:54

#	Modifying user name:	WinNT
#	Modification time:	15. 06. 2019 20:54

#	Program:	/corina/corina34_cracker 3.40 0067  02.08.2006

@<TRIPOS>MOLECULE
ASD04882053
  79   83    0    0    0
SMALL
NO_CHARGES


@<TRIPOS>ATOM
   1 N1            -0.4746     1.5139    -0.1865 N.am    
   2 C2            -0.3438     0.1194    -0.1590 C.ar    
   3 C3            -1.4827    -0.6891    -0.1056 C.ar    
   4 C4            -1.3543    -2.0730    -0.0778 C.ar    
   5 C5            -0.1052    -2.6525    -0.1032 C.ar    
   6 C6             1.0379    -1.8499    -0.1565 C.ar    
   7 C7             0.9114    -0.4583    -0.1904 C.ar    
   8 N8            -2.7476    -0.1074    -0.0798 N.3     
   9 C9            -2.9565     0.6441     1.1657 C.3     
  10 C10           -3.7968    -1.1201    -0.2627 C.3     
  11 C11           -5.1634    -0.4326    -0.3079 C.3     
  12 N12           -5.3722     0.3189     0.9376 N.3     
  13 C13           -4.3231     1.3316     1.1205 C.3     
  14 C14           -6.6410     0.9023     0.9635 C.ar    
  15 C15           -7.0072     1.8157    -0.0167 C.ar    
  16 C16           -8.2629     2.3904     0.0116 C.ar    
  17 C17           -9.1548     2.0577     1.0145 C.ar    
  18 C18           -8.7933     1.1485     1.9921 C.ar    
  19 C19           -7.5416     0.5659     1.9665 C.ar    
  20 C20           -7.1488    -0.4249     3.0318 C.3     
  21 C21            0.4477     2.2893     0.4173 C.2     
  22 O22            1.3369     1.7787     1.0731 O.2     
  23 C23            0.3800     3.7479     0.2840 C.2     
  24 O24           -0.5487     4.4384    -0.4095 O.3     
  25 C25            1.2424     4.6459     0.8451 C.2     
  26 C26            0.8039     5.9221     0.4588 C.2     
  27 C27           -0.2952     5.7497    -0.3083 C.2     
  28 C28            2.3758    -2.4709    -0.1832 C.2     
  29 N29            2.4965    -3.8130    -0.1560 N.am    
  30 O30            3.3697    -1.7719    -0.2296 O.2     
  31 C31            3.8251    -4.4297    -0.1824 C.3     
  32 C32            4.3857    -4.4977     1.2416 C.3     
  33 N33            5.6570    -5.2336     1.2148 N.am    
  34 C34            5.6869    -6.5702     0.6052 C.3     
  35 C35            5.1118    -6.4789    -0.8117 C.3     
  36 C36            3.7198    -5.8458    -0.7531 C.3     
  37 C37            6.7747    -4.6928     1.7389 C.2     
  38 N38            7.9553    -5.3305     1.6123 N.am    
  39 O39            6.7180    -3.6295     2.3259 O.2     
  40 C40            9.1483    -4.8025     2.2788 C.3     
  41 C41           10.3444    -5.7070     1.9755 C.3     
  42 H42           -1.2269     1.9215    -0.6435 H       
  43 H43           -2.2361    -2.6952    -0.0359 H       
  44 H44           -0.0088    -3.7280    -0.0815 H       
  45 H45            1.7929     0.1643    -0.2320 H       
  46 H46           -2.9214    -0.0402     2.0134 H       
  47 H47           -2.1745     1.3959     1.2722 H       
  48 H48           -3.6274    -1.6545    -1.1975 H       
  49 H49           -3.7713    -1.8244     0.5688 H       
  50 H50           -5.1984     0.2516    -1.1557 H       
  51 H51           -5.9454    -1.1844    -0.4144 H       
  52 H52           -4.4924     1.8659     2.0553 H       
  53 H53           -4.3486     2.0358     0.2889 H       
  54 H54           -6.3108     2.0765    -0.7999 H       
  55 H55           -8.5484     3.1006    -0.7502 H       
  56 H56          -10.1357     2.5090     1.0347 H       
  57 H57           -9.4922     0.8911     2.7742 H       
  58 H58           -7.4227    -1.4303     2.7116 H       
  59 H59           -6.0721    -0.3760     3.1943 H       
  60 H60           -7.6676    -0.1853     3.9600 H       
  61 H61            2.0962     4.4182     1.4661 H       
  62 H62            1.2578     6.8648     0.7266 H       
  63 H63           -0.8736     6.5392    -0.7649 H       
  64 H64            1.7037    -4.3706    -0.1190 H       
  65 H65            4.4905    -3.8337    -0.8072 H       
  66 H66            4.5556    -3.4883     1.6161 H       
  67 H67            3.6775    -5.0153     1.8887 H       
  68 H68            6.7155    -6.9281     0.5598 H       
  69 H69            5.0849    -7.2567     1.2004 H       
  70 H70            5.7653    -5.8641    -1.4307 H       
  71 H71            5.0391    -7.4786    -1.2399 H       
  72 H72            3.0737    -6.4477    -0.1140 H       
  73 H73            3.2981    -5.8021    -1.7573 H       
  74 H74            8.0151    -6.1391     1.0798 H       
  75 H75            9.3524    -3.7957     1.9144 H       
  76 H76            8.9795    -4.7720     3.3552 H       
  77 H77           10.1402    -6.7138     2.3399 H       
  78 H78           10.5131    -5.7375     0.8990 H       
  79 H79           11.2320    -5.3142     2.4714 H       
@<TRIPOS>BOND
   1    1    2 1
   2    1   21 am
   3    1   42 1
   4    2    3 ar
   5    2    7 ar
   6    3    4 ar
   7    3    8 1
   8    4    5 ar
   9    4   43 1
  10    5    6 ar
  11    5   44 1
  12    6    7 ar
  13    6   28 1
  14    7   45 1
  15    8    9 1
  16    8   10 1
  17    9   13 1
  18    9   46 1
  19    9   47 1
  20   10   11 1
  21   10   48 1
  22   10   49 1
  23   11   12 1
  24   11   50 1
  25   11   51 1
  26   12   13 1
  27   12   14 1
  28   13   52 1
  29   13   53 1
  30   14   15 ar
  31   14   19 ar
  32   15   16 ar
  33   15   54 1
  34   16   17 ar
  35   16   55 1
  36   17   18 ar
  37   17   56 1
  38   18   19 ar
  39   18   57 1
  40   19   20 1
  41   20   58 1
  42   20   59 1
  43   20   60 1
  44   21   22 2
  45   21   23 1
  46   23   24 1
  47   23   25 2
  48   24   27 1
  49   25   26 1
  50   25   61 1
  51   26   27 2
  52   26   62 1
  53   27   63 1
  54   28   29 am
  55   28   30 2
  56   29   31 1
  57   29   64 1
  58   31   32 1
  59   31   36 1
  60   31   65 1
  61   32   33 1
  62   32   66 1
  63   32   67 1
  64   33   34 1
  65   33   37 am
  66   34   35 1
  67   34   68 1
  68   34   69 1
  69   35   36 1
  70   35   70 1
  71   35   71 1
  72   36   72 1
  73   36   73 1
  74   37   38 am
  75   37   39 2
  76   38   40 1
  77   38   74 1
  78   40   41 1
  79   40   75 1
  80   40   76 1
  81   41   77 1
  82   41   78 1
  83   41   79 1

#	End of record

