#	Name: ASD01870509
#	Creating user name:	WinNT
#	Creation time:	15. 06. 2019 19:39

#	Modifying user name:	WinNT
#	Modification time:	15. 06. 2019 19:39

#	Program:	/corina/corina34_cracker 3.40 0067  02.08.2006

@<TRIPOS>MOLECULE
ASD01870509
  39   42    0    0    0
SMALL
NO_CHARGES


@<TRIPOS>ATOM
   1 C1            -0.0300     1.3320    -0.2299 C.ar    
   2 N2            -0.0274     0.0165    -0.1075 N.ar    
   3 C3             1.0743    -0.6677     0.1260 C.ar    
   4 C4             2.3027    -0.0317     0.2567 C.ar    
   5 C5             2.3523     1.3472     0.1365 C.ar    
   6 C6             1.1517     2.0462    -0.1136 C.ar    
   7 C7             3.4130     2.3740     0.2056 C.2     
   8 N8             2.8517     3.5815     0.0072 N.am    
   9 C9             1.5246     3.4723    -0.1882 C.2     
  10 O10            0.7606     4.3943    -0.3915 O.2     
  11 O11            4.5918     2.1641     0.4072 O.2     
  12 C12            3.5574     4.7945     0.0053 C.ar    
  13 C13            4.0903     5.2856    -1.1787 C.ar    
  14 C14            4.7849     6.4786    -1.1810 C.ar    
  15 C15            4.9506     7.1884     0.0015 C.ar    
  16 C16            4.4173     6.6980     1.1862 C.ar    
  17 C17            3.7177     5.5067     1.1874 C.ar    
  18 Cl18           3.0452     4.8962     2.6668 Cl      
  19 N19            5.6553     8.3977    -0.0010 N.am    
  20 C20            6.4282     8.7295     1.0521 C.2     
  21 C21            7.2487     9.9499     1.0069 C.2     
  22 O22            6.4475     8.0198     2.0399 O.2     
  23 C23            8.0887    10.4235     2.0000 C.2     
  24 C24            8.6389    11.6011     1.4886 C.2     
  25 N25            8.1479    11.7859     0.2897 N.2     
  26 N26            7.3388    10.8396    -0.0257 N.pl3   
  27 C27            8.3531     9.8012     3.3468 C.3     
  28 H28           -0.9559     1.8522    -0.4257 H       
  29 H29            1.0213    -1.7425     0.2178 H       
  30 H30            3.2003    -0.6008     0.4484 H       
  31 H31            3.9618     4.7340    -2.0983 H       
  32 H32            5.2000     6.8599    -2.1022 H       
  33 H33            4.5463     7.2496     2.1058 H       
  34 H34            5.5875     8.9970    -0.7607 H       
  35 H35            9.3441    12.2449     1.9931 H       
  36 H36            6.8621    10.7690    -0.8676 H       
  37 H37            9.1948     9.1130     3.2701 H       
  38 H38            8.5879    10.5834     4.0687 H       
  39 H39            7.4677     9.2572     3.6757 H       
@<TRIPOS>BOND
   1    1    2 ar
   2    1    6 ar
   3    1   28 1
   4    2    3 ar
   5    3    4 ar
   6    3   29 1
   7    4    5 ar
   8    4   30 1
   9    5    7 1
  10    5    6 ar
  11    6    9 1
  12    7    8 am
  13    7   11 2
  14    8    9 am
  15    8   12 1
  16    9   10 2
  17   12   13 ar
  18   12   17 ar
  19   13   14 ar
  20   13   31 1
  21   14   15 ar
  22   14   32 1
  23   15   16 ar
  24   15   19 1
  25   16   17 ar
  26   16   33 1
  27   17   18 1
  28   19   20 am
  29   19   34 1
  30   20   21 1
  31   20   22 2
  32   21   23 2
  33   21   26 1
  34   23   24 1
  35   23   27 1
  36   24   25 2
  37   24   35 1
  38   25   26 1
  39   26   36 1
  40   27   37 1
  41   27   38 1
  42   27   39 1

#	End of record

