#	Name: ASD01152442
#	Creating user name:	WinNT
#	Creation time:	15. 06. 2019 19:05

#	Modifying user name:	WinNT
#	Modification time:	15. 06. 2019 19:05

#	Program:	/corina/corina34_cracker 3.40 0067  02.08.2006

@<TRIPOS>MOLECULE
ASD01152442
  46   49    0    0    0
SMALL
NO_CHARGES


@<TRIPOS>ATOM
   1 C1            -0.0015     1.2600     0.0816 C.2     
   2 N2             0.0039    -0.0468     0.0457 N.2     
   3 N3            -1.2077    -0.7478     0.0271 N.am    
   4 C4            -2.3837    -0.0962     0.0456 C.2     
   5 N5            -2.4330     1.2485     0.0821 N.am    
   6 C6            -1.2908     1.9662     0.1079 C.2     
   7 O7            -1.3273     3.1823     0.1410 O.2     
   8 O8            -3.4202    -0.7323     0.0287 O.2     
   9 C9            -1.1947    -2.1472    -0.0118 C.ar    
  10 C10           -3.7281     1.9330     0.1011 C.3     
  11 C11           -4.1717     2.1292     1.5280 C.ar    
  12 C12           -0.4966    -2.8129    -1.0200 C.ar    
  13 C13           -1.8713    -2.8767     0.9554 C.ar    
  14 C14           -1.8567    -4.2578     0.9151 C.ar    
  15 C15           -1.1694    -4.9178    -0.0877 C.ar    
  16 C16           -0.4882    -4.2002    -1.0523 C.ar    
  17 C17           -3.8154     3.2773     2.2107 C.ar    
  18 C18           -4.9396     1.1636     2.1517 C.ar    
  19 C19           -5.3471     1.3432     3.4602 C.ar    
  20 C20           -4.9860     2.4894     4.1458 C.ar    
  21 C21           -4.2215     3.4576     3.5194 C.ar    
  22 Cl22          -5.4976     2.7156     5.7892 Cl      
  23 N23            0.1919    -2.0845    -1.9949 N.pl3   
  24 C24            1.3857    -2.5686    -2.5078 C.2     
  25 N25            2.0407    -2.0374    -3.4933 N.2     
  26 C26            3.1639    -2.6319    -3.8530 C.2     
  27 C27            3.4717    -3.7151    -3.1385 C.2     
  28 S28            2.2126    -3.9484    -1.9287 S.3     
  29 O29            1.1659     1.9545     0.1001 O.3     
  30 C30            2.3746     1.1924     0.0784 C.3     
  31 H31           -3.6334     2.9032    -0.3866 H       
  32 H32           -4.4655     1.3303    -0.4290 H       
  33 H33           -2.4091    -2.3650     1.7398 H       
  34 H34           -2.3834    -4.8238     1.6692 H       
  35 H35           -1.1614    -5.9974    -0.1142 H       
  36 H36            0.0473    -4.7190    -1.8336 H       
  37 H37           -3.2192     4.0333     1.7214 H       
  38 H38           -5.2213     0.2690     1.6164 H       
  39 H39           -5.9476     0.5891     3.9472 H       
  40 H40           -3.9391     4.3523     4.0542 H       
  41 H41           -0.1656    -1.2405    -2.3124 H       
  42 H42            3.7829    -2.2703    -4.6607 H       
  43 H43            4.3432    -4.3383    -3.2751 H       
  44 H44            3.2301     1.8675     0.0965 H       
  45 H45            2.4082     0.5398     0.9508 H       
  46 H46            2.4072     0.5887    -0.8285 H       
@<TRIPOS>BOND
   1    1    2 2
   2    1   29 1
   3    1    6 1
   4    2    3 1
   5    3    4 am
   6    3    9 1
   7    4    5 am
   8    4    8 2
   9    5    6 am
  10    5   10 1
  11    6    7 2
  12    9   12 ar
  13    9   13 ar
  14   10   11 1
  15   10   31 1
  16   10   32 1
  17   11   17 ar
  18   11   18 ar
  19   12   23 1
  20   12   16 ar
  21   13   14 ar
  22   13   33 1
  23   14   15 ar
  24   14   34 1
  25   15   16 ar
  26   15   35 1
  27   16   36 1
  28   17   21 ar
  29   17   37 1
  30   18   19 ar
  31   18   38 1
  32   19   20 ar
  33   19   39 1
  34   20   21 ar
  35   20   22 1
  36   21   40 1
  37   23   24 1
  38   23   41 1
  39   24   25 2
  40   24   28 1
  41   25   26 1
  42   26   27 2
  43   26   42 1
  44   27   28 1
  45   27   43 1
  46   29   30 1
  47   30   44 1
  48   30   45 1
  49   30   46 1

#	End of record

