#	Name: ASD01028103
#	Creating user name:	WinNT
#	Creation time:	15. 06. 2019 18:56

#	Modifying user name:	WinNT
#	Modification time:	15. 06. 2019 18:56

#	Program:	/corina/corina34_cracker 3.40 0067  02.08.2006

@<TRIPOS>MOLECULE
ASD01028103
  39   42    0    0    0
SMALL
NO_CHARGES


@<TRIPOS>ATOM
   1 N1             1.9645     1.1295    -0.3794 N.pl3   
   2 C2             1.4604    -0.2590    -0.2846 C.ar    
   3 C3             1.6602    -0.9879     0.8730 C.ar    
   4 C4             2.3913    -0.3668     2.0353 C.3     
   5 C5             0.7838    -0.8239    -1.3547 C.ar    
   6 C6             0.3102    -2.1288    -1.2638 C.ar    
   7 C7             0.5186    -2.8598    -0.1005 C.ar    
   8 C8             1.1909    -2.2843     0.9676 C.ar    
   9 O9             0.4570    -0.3254    -2.5829 O.3     
  10 C10            0.1384    -1.4732    -3.3918 C.3     
  11 O11           -0.3142    -2.4499    -2.4354 O.3     
  12 O12            0.0576    -4.1356    -0.0068 O.3     
  13 C13            0.1811    -4.7724     1.1873 C.ar    
  14 C14           -0.8171    -4.6702     2.1460 C.ar    
  15 N15           -0.7017    -5.2865     3.3053 N.ar    
  16 C16            0.3549    -6.0184     3.6008 C.ar    
  17 C17            1.3903    -6.1672     2.6974 C.ar    
  18 C18            1.3073    -5.5410     1.4640 C.ar    
  19 C19            0.4346    -6.7012     4.9419 C.3     
  20 O20            3.0869     1.3424    -0.8019 O.2     
  21 O21            1.2552     2.0595    -0.0395 O.2     
  22 O22            2.1753    -1.1520     3.2152 O.3     
  23 C23            3.4675    -1.5927     3.6791 C.3     
  24 C24            4.4385    -0.5737     3.0319 C.3     
  25 O25            3.8007    -0.3299     1.7551 O.3     
  26 H26            2.0258     0.6471     2.1981 H       
  27 H27            1.3534    -2.8522     1.8718 H       
  28 H28           -0.6549    -1.2344    -4.1001 H       
  29 H29            1.0252    -1.8313    -3.9146 H       
  30 H30           -1.6973    -4.0792     1.9402 H       
  31 H31            2.2519    -6.7682     2.9481 H       
  32 H32            2.1013    -5.6402     0.7387 H       
  33 H33           -0.0096    -7.6941     4.8710 H       
  34 H34            1.4785    -6.7908     5.2425 H       
  35 H35           -0.1074    -6.1127     5.6821 H       
  36 H36            3.5244    -1.5418     4.7665 H       
  37 H37            3.6789    -2.6027     3.3282 H       
  38 H38            4.4939     0.3413     3.6215 H       
  39 H39            5.4284    -1.0096     2.8967 H       
@<TRIPOS>BOND
   1    1    2 1
   2    1   20 2
   3    1   21 2
   4    2    3 ar
   5    2    5 ar
   6    3    4 1
   7    3    8 ar
   8    4   22 1
   9    4   25 1
  10    4   26 1
  11    5    6 ar
  12    5    9 1
  13    6    7 ar
  14    6   11 1
  15    7    8 ar
  16    7   12 1
  17    8   27 1
  18    9   10 1
  19   10   11 1
  20   10   28 1
  21   10   29 1
  22   12   13 1
  23   13   14 ar
  24   13   18 ar
  25   14   15 ar
  26   14   30 1
  27   15   16 ar
  28   16   17 ar
  29   16   19 1
  30   17   18 ar
  31   17   31 1
  32   18   32 1
  33   19   33 1
  34   19   34 1
  35   19   35 1
  36   22   23 1
  37   23   24 1
  38   23   36 1
  39   23   37 1
  40   24   25 1
  41   24   38 1
  42   24   39 1

#	End of record

