#	Name: ASD01190145
#	Creating user name:	WinNT
#	Creation time:	15. 06. 2019 19:07

#	Modifying user name:	WinNT
#	Modification time:	15. 06. 2019 19:07

#	Program:	/corina/corina34_cracker 3.40 0067  02.08.2006

@<TRIPOS>MOLECULE
ASD01190145
  51   54    0    0    0
SMALL
NO_CHARGES


@<TRIPOS>ATOM
   1 N1            -0.0166     1.2675    -0.1102 N.pl3   
   2 N2             0.0034     0.0056     0.1296 N.2     
   3 C3             1.2484    -0.4213     0.2036 C.2     
   4 C4             2.0831     0.7008    -0.0145 C.2     
   5 C5             1.2428     1.7445    -0.2081 C.2     
   6 C6             1.6752    -1.7644     0.4572 C.1     
   7 N7             2.0138    -2.8300     0.6585 N.1     
   8 C8             3.5898     0.7281    -0.0279 C.3     
   9 C9             4.1040    -0.0830    -1.2189 C.3     
  10 O10            4.0407     2.0793    -0.1415 O.3     
  11 N11            5.4373    -1.3032     4.8782 N.pl3   
  12 N12            4.9243    -0.3168     5.7270 N.2     
  13 C13            4.2829     0.5809     5.0339 C.2     
  14 C14            4.3553     0.1956     3.6281 C.ar    
  15 C15            3.8672     0.7523     2.4406 C.ar    
  16 C16            4.1144     0.1293     1.2517 C.ar    
  17 C17            4.8448    -1.0520     1.2099 C.ar    
  18 C18            5.3313    -1.6149     2.3558 C.ar    
  19 C19            5.0954    -1.0018     3.5833 C.ar    
  20 C20            6.1848    -2.4165     5.2838 C.ar    
  21 C21            7.0676    -2.3101     6.3504 C.ar    
  22 C22            7.8036    -3.4087     6.7485 C.ar    
  23 C23            7.6617    -4.6159     6.0849 C.ar    
  24 C24            6.7819    -4.7241     5.0209 C.ar    
  25 C25            6.0398    -3.6294     4.6233 C.ar    
  26 F26            8.3830    -5.6893     6.4756 F       
  27 F27            3.6170     0.4729    -2.4068 F       
  28 F28            5.5027    -0.0576    -1.2313 F       
  29 F29            3.6626    -1.4058    -1.1077 F       
  30 C30           -1.2313     2.0722    -0.2620 C.3     
  31 C31           -2.1181     1.4575    -1.3467 C.3     
  32 C32           -3.4405     2.2236    -1.4191 C.3     
  33 O33           -4.3137     1.5797    -2.3491 O.3     
  34 O34           -1.4518     1.5371    -2.6084 O.3     
  35 H35            1.5268     2.7677    -0.4046 H       
  36 H36            3.7513     2.6526     0.5815 H       
  37 H37            3.7859     1.4544     5.4294 H       
  38 H38            3.2980     1.6698     2.4649 H       
  39 H39            5.0300    -1.5313     0.2600 H       
  40 H40            5.8972    -2.5335     2.3096 H       
  41 H41            7.1788    -1.3688     6.8680 H       
  42 H42            8.4906    -3.3263     7.5778 H       
  43 H43            6.6729    -5.6663     4.5045 H       
  44 H44            5.3501    -3.7155     3.7966 H       
  45 H45           -1.7742     2.0923     0.6830 H       
  46 H46           -0.9604     3.0888    -0.5471 H       
  47 H47           -2.3160     0.4131    -1.1056 H       
  48 H48           -3.9062     2.2384    -0.4337 H       
  49 H49           -3.2508     3.2458    -1.7467 H       
  50 H50           -5.1731     2.0123    -2.4461 H       
  51 H51           -1.2440     2.4394    -2.8872 H       
@<TRIPOS>BOND
   1    1    2 1
   2    1    5 1
   3    1   30 1
   4    2    3 2
   5    3    4 1
   6    3    6 1
   7    4    5 2
   8    4    8 1
   9    5   35 1
  10    6    7 3
  11    8    9 1
  12    8   10 1
  13    8   16 1
  14    9   27 1
  15    9   28 1
  16    9   29 1
  17   10   36 1
  18   11   12 1
  19   11   19 1
  20   11   20 1
  21   12   13 2
  22   13   14 1
  23   13   37 1
  24   14   15 ar
  25   14   19 ar
  26   15   16 ar
  27   15   38 1
  28   16   17 ar
  29   17   18 ar
  30   17   39 1
  31   18   19 ar
  32   18   40 1
  33   20   21 ar
  34   20   25 ar
  35   21   22 ar
  36   21   41 1
  37   22   23 ar
  38   22   42 1
  39   23   24 ar
  40   23   26 1
  41   24   25 ar
  42   24   43 1
  43   25   44 1
  44   30   31 1
  45   30   45 1
  46   30   46 1
  47   31   32 1
  48   31   34 1
  49   31   47 1
  50   32   33 1
  51   32   48 1
  52   32   49 1
  53   33   50 1
  54   34   51 1

#	End of record

