#	Name: ASD07301088
#	Creating user name:	WinNT
#	Creation time:	15. 06. 2019 21:10

#	Modifying user name:	WinNT
#	Modification time:	15. 06. 2019 21:10

#	Program:	/corina/corina34_cracker 3.40 0067  02.08.2006

@<TRIPOS>MOLECULE
ASD07301088
  37   39    0    0    0
SMALL
NO_CHARGES


@<TRIPOS>ATOM
   1 C1            -0.0179     1.4665     0.0101 C.2     
   2 C2             0.0021    -0.0041     0.0020 C.2     
   3 C3             1.2775    -0.6366    -0.0136 C.2     
   4 C4             2.3787     0.1587    -0.0198 C.2     
   5 N5             2.2596     1.5101    -0.0114 N.pl3   
   6 N6             1.1313     2.1178     0.0026 N.2     
   7 O7            -1.0312    -0.6548     0.0088 O.2     
   8 O8             1.3896    -1.9914    -0.0215 O.3     
   9 C9             2.7119    -2.5329    -0.0370 C.3     
  10 C10            3.4275     2.2793    -0.0184 C.ar    
  11 C11            3.6384     3.2345     0.9722 C.ar    
  12 C12            4.7928     3.9936     0.9637 C.ar    
  13 C13            5.7415     3.8030    -0.0327 C.ar    
  14 C14            5.5304     2.8498    -1.0207 C.ar    
  15 C15            4.3805     2.0867    -1.0106 C.ar    
  16 N16            6.9122     4.5733    -0.0416 N.pl3   
  17 N17            7.2539     5.5646     0.8874 N.2     
  18 C18            8.4178     6.0586     0.5492 C.2     
  19 C19            8.8550     5.3991    -0.6048 C.2     
  20 C20            7.9148     4.4872    -0.9450 C.2     
  21 F21            2.7148     3.4194     1.9407 F       
  22 C22           -1.2916     2.1972     0.0202 C.2     
  23 O23           -2.3404     1.5877     0.0218 O.2     
  24 C24           -1.2958     3.7041     0.0284 C.3     
  25 H25            3.3609    -0.2902    -0.0312 H       
  26 H26            2.6587    -3.6216    -0.0420 H       
  27 H27            3.2342    -2.1907    -0.9304 H       
  28 H28            3.2515    -2.1996     0.8494 H       
  29 H29            4.9574     4.7351     1.7314 H       
  30 H30            6.2688     2.7026    -1.7950 H       
  31 H31            4.2197     1.3426    -1.7765 H       
  32 H32            8.9492     6.8407     1.0710 H       
  33 H33            9.7810     5.5828    -1.1292 H       
  34 H34            7.9566     3.8132    -1.7878 H       
  35 H35           -0.7872     4.0737    -0.8621 H       
  36 H36           -2.3244     4.0646     0.0352 H       
  37 H37           -0.7787     4.0641     0.9179 H       
@<TRIPOS>BOND
   1    1    2 1
   2    1    6 2
   3    1   22 1
   4    2    3 1
   5    2    7 2
   6    3    4 2
   7    3    8 1
   8    4    5 1
   9    4   25 1
  10    5    6 1
  11    5   10 1
  12    8    9 1
  13    9   26 1
  14    9   27 1
  15    9   28 1
  16   10   11 ar
  17   10   15 ar
  18   11   12 ar
  19   11   21 1
  20   12   13 ar
  21   12   29 1
  22   13   14 ar
  23   13   16 1
  24   14   15 ar
  25   14   30 1
  26   15   31 1
  27   16   17 1
  28   16   20 1
  29   17   18 2
  30   18   19 1
  31   18   32 1
  32   19   20 2
  33   19   33 1
  34   20   34 1
  35   22   23 2
  36   22   24 1
  37   24   35 1
  38   24   36 1
  39   24   37 1

#	End of record

