#	Name: ASD04590461
#	Creating user name:	WinNT
#	Creation time:	15. 06. 2019 20:50

#	Modifying user name:	WinNT
#	Modification time:	15. 06. 2019 20:50

#	Program:	/corina/corina34_cracker 3.40 0067  02.08.2006

@<TRIPOS>MOLECULE
ASD04590461
  56   59    0    0    0
SMALL
NO_CHARGES


@<TRIPOS>ATOM
   1 C1            -0.0122     1.3870     0.0458 C.ar    
   2 C2             0.0058    -0.0090     0.0368 C.ar    
   3 C3            -2.3976    -0.0417     0.0516 C.ar    
   4 C4            -2.4095     1.3638     0.0726 C.ar    
   5 C5            -1.2144     2.0691     0.0636 C.ar    
   6 N6            -3.6896    -0.4541     0.0670 N.2     
   7 C7            -4.4848     0.5876     0.0957 C.2     
   8 N8            -3.7412     1.7379     0.1004 N.pl3   
   9 C9            -5.9610     0.5297     0.1190 C.2     
  10 C10           -6.7470    -0.6458     0.1146 C.2     
  11 C11           -8.0497    -0.2720     0.1419 C.2     
  12 N12           -8.0930     1.0861     0.1627 N.pl3   
  13 N13           -6.7769     1.5650     0.1532 N.2     
  14 N14           -6.2645    -1.9642     0.0866 N.am    
  15 C15           -7.1289    -2.9983     0.0857 C.2     
  16 O16           -8.3221    -2.7938     0.2055 O.2     
  17 C17           -6.6293    -4.3746    -0.0601 C.2     
  18 C18           -1.1748    -0.7217     0.0395 C.ar    
  19 C19           -5.3227    -4.7631    -0.3005 C.2     
  20 O20            1.1949    -0.6699     0.0250 O.3     
  21 C21           -5.3559    -6.1583    -0.3562 C.2     
  22 N22           -6.5929    -6.5384    -0.1615 N.2     
  23 N23           -7.3610    -5.5252     0.0204 N.pl3   
  24 C24           -8.8038    -5.5928     0.2659 C.3     
  25 C25           -4.1767    -7.0649    -0.5981 C.3     
  26 C26           -3.3188    -7.1343     0.6669 C.3     
  27 C27           -4.6757    -8.4669    -0.9533 C.3     
  28 C28           -3.3383    -6.5140    -1.7533 C.3     
  29 O29            1.1587     2.0791     0.0427 O.3     
  30 C30            1.0694     3.5053     0.0523 C.3     
  31 C31            1.1433    -2.0980     0.0163 C.3     
  32 H32           -1.2236     3.1491     0.0708 H       
  33 H33           -4.0841     2.6451     0.1198 H       
  34 H34           -8.9018    -0.9356     0.1459 H       
  35 H35           -8.8961     1.6296     0.1842 H       
  36 H36           -5.3091    -2.1307     0.0679 H       
  37 H37           -1.1556    -1.8015     0.0318 H       
  38 H38           -4.4608    -4.1233    -0.4201 H       
  39 H39           -8.9845    -5.7446     1.3300 H       
  40 H40           -9.2706    -4.6608    -0.0526 H       
  41 H41           -9.2296    -6.4234    -0.2971 H       
  42 H42           -3.9161    -7.5268     1.4899 H       
  43 H43           -2.4659    -7.7901     0.4920 H       
  44 H44           -2.9633    -6.1355     0.9200 H       
  45 H45           -5.2869    -8.4175    -1.8545 H       
  46 H46           -3.8228    -9.1227    -1.1283 H       
  47 H47           -5.2730    -8.8594    -0.1303 H       
  48 H48           -2.9828    -5.5152    -1.5002 H       
  49 H49           -2.4854    -7.1698    -1.9282 H       
  50 H50           -3.9495    -6.4646    -2.6545 H       
  51 H51            2.0723     3.9322     0.0486 H       
  52 H52            0.5282     3.8414    -0.8321 H       
  53 H53            0.5396     3.8301     0.9478 H       
  54 H54            2.1571    -2.4981     0.0073 H       
  55 H55            0.6224    -2.4482     0.9074 H       
  56 H56            0.6110    -2.4369    -0.8724 H       
@<TRIPOS>BOND
   1    1    2 ar
   2    1   29 1
   3    1    5 ar
   4    2   18 ar
   5    2   20 1
   6    3    4 ar
   7    3    6 1
   8    3   18 ar
   9    4    5 ar
  10    4    8 1
  11    5   32 1
  12    6    7 2
  13    7    8 1
  14    7    9 1
  15    8   33 1
  16    9   10 1
  17    9   13 2
  18   10   11 2
  19   10   14 1
  20   11   12 1
  21   11   34 1
  22   12   13 1
  23   12   35 1
  24   14   15 am
  25   14   36 1
  26   15   16 2
  27   15   17 1
  28   17   19 2
  29   17   23 1
  30   18   37 1
  31   19   21 1
  32   19   38 1
  33   20   31 1
  34   21   22 2
  35   21   25 1
  36   22   23 1
  37   23   24 1
  38   24   39 1
  39   24   40 1
  40   24   41 1
  41   25   26 1
  42   25   27 1
  43   25   28 1
  44   26   42 1
  45   26   43 1
  46   26   44 1
  47   27   45 1
  48   27   46 1
  49   27   47 1
  50   28   48 1
  51   28   49 1
  52   28   50 1
  53   29   30 1
  54   30   51 1
  55   30   52 1
  56   30   53 1
  57   31   54 1
  58   31   55 1
  59   31   56 1

#	End of record

