#	Name: ASD01881311
#	Creating user name:	WinNT
#	Creation time:	15. 06. 2019 19:42

#	Modifying user name:	WinNT
#	Modification time:	15. 06. 2019 19:42

#	Program:	/corina/corina34_cracker 3.40 0067  02.08.2006

@<TRIPOS>MOLECULE
ASD01881311
  57   58    0    0    0
SMALL
NO_CHARGES


@<TRIPOS>ATOM
   1 C1            -0.0180     1.4732     0.0101 C.2     
   2 C2             0.0021    -0.0041     0.0020 C.ar    
   3 C3             1.2187    -0.6881    -0.0133 C.ar    
   4 C4             1.2294    -2.0724    -0.0209 C.ar    
   5 C5             0.0327    -2.7768    -0.0133 C.ar    
   6 C6            -1.1732    -2.1008     0.0019 C.ar    
   7 C7            -1.1958    -0.7211     0.0154 C.ar    
   8 O8             1.0256     2.0948     0.0035 O.2     
   9 O9            -1.1936     2.1308     0.0193 O.3     
  10 O10            2.4118    -2.7424    -0.0362 O.3     
  11 C11            2.3485    -4.1700    -0.0433 C.3     
  12 C12            3.7669    -4.7433    -0.0604 C.3     
  13 C13            3.6991    -6.2718    -0.0680 C.3     
  14 C14            5.1175    -6.8451    -0.0852 C.3     
  15 O15            5.0542    -8.2727    -0.0923 O.3     
  16 C16            6.2345    -8.9415    -0.1076 C.ar    
  17 C17            6.2416   -10.3293    -0.1151 C.ar    
  18 C18            7.4443   -11.0135    -0.1308 C.ar    
  19 C19            8.6531   -10.2940    -0.1388 C.ar    
  20 C20            8.6264    -8.8929    -0.1310 C.ar    
  21 C21            7.4325    -8.2321    -0.1214 C.ar    
  22 C22            9.9334   -11.0057    -0.1549 C.2     
  23 C23           11.2261   -10.2311    -0.1635 C.3     
  24 C24           12.4049   -11.2063    -0.1799 C.3     
  25 C25           12.3965   -11.9945    -1.4913 C.3     
  26 O26            9.9530   -12.2189    -0.1612 O.2     
  27 C27           13.7150   -10.4248    -0.0630 C.3     
  28 C28            4.9409   -11.0902    -0.1059 C.3     
  29 O29            7.4576   -12.3695    -0.1378 O.3     
  30 H30            2.1488    -0.1391    -0.0195 H       
  31 H31            0.0441    -3.8567    -0.0196 H       
  32 H32           -2.1005    -2.6544     0.0077 H       
  33 H33           -2.1395    -0.1963     0.0321 H       
  34 H34           -1.1561     3.0971     0.0244 H       
  35 H35            1.8279    -4.5150     0.8501 H       
  36 H36            1.8102    -4.5054    -0.9298 H       
  37 H37            4.2875    -4.3983    -0.9538 H       
  38 H38            4.3051    -4.4079     0.8261 H       
  39 H39            3.1785    -6.6168     0.8253 H       
  40 H40            3.1609    -6.6072    -0.9545 H       
  41 H41            5.6381    -6.5001    -0.9785 H       
  42 H42            5.6557    -6.5097     0.8013 H       
  43 H43            9.5515    -8.3355    -0.1372 H       
  44 H44            7.4168    -7.1522    -0.1201 H       
  45 H45           11.2650    -9.5991    -1.0507 H       
  46 H46           11.2823    -9.6081     0.7291 H       
  47 H47           12.3173   -11.8964     0.6593 H       
  48 H48           12.4841   -11.3045    -2.3305 H       
  49 H49           13.2363   -12.6893    -1.5030 H       
  50 H50           11.4632   -12.5513    -1.5746 H       
  51 H51           13.7210    -9.8633     0.8713 H       
  52 H52           14.5548   -11.1196    -0.0747 H       
  53 H53           13.8026    -9.7348    -0.9022 H       
  54 H54            4.6167   -11.2682    -1.1312 H       
  55 H55            5.0819   -12.0447     0.4014 H       
  56 H56            4.1832   -10.5083     0.4190 H       
  57 H57            7.4525   -12.7583    -1.0231 H       
@<TRIPOS>BOND
   1    1    2 1
   2    1    8 2
   3    1    9 1
   4    2    3 ar
   5    2    7 ar
   6    3    4 ar
   7    3   30 1
   8    4    5 ar
   9    4   10 1
  10    5    6 ar
  11    5   31 1
  12    6    7 ar
  13    6   32 1
  14    7   33 1
  15    9   34 1
  16   10   11 1
  17   11   12 1
  18   11   35 1
  19   11   36 1
  20   12   13 1
  21   12   37 1
  22   12   38 1
  23   13   14 1
  24   13   39 1
  25   13   40 1
  26   14   15 1
  27   14   41 1
  28   14   42 1
  29   15   16 1
  30   16   17 ar
  31   16   21 ar
  32   17   18 ar
  33   17   28 1
  34   18   19 ar
  35   18   29 1
  36   19   20 ar
  37   19   22 1
  38   20   21 ar
  39   20   43 1
  40   21   44 1
  41   22   23 1
  42   22   26 2
  43   23   24 1
  44   23   45 1
  45   23   46 1
  46   24   25 1
  47   24   27 1
  48   24   47 1
  49   25   48 1
  50   25   49 1
  51   25   50 1
  52   27   51 1
  53   27   52 1
  54   27   53 1
  55   28   54 1
  56   28   55 1
  57   28   56 1
  58   29   57 1

#	End of record

