#	Name: ASD01870077
#	Creating user name:	WinNT
#	Creation time:	15. 06. 2019 19:38

#	Modifying user name:	WinNT
#	Modification time:	15. 06. 2019 19:38

#	Program:	/corina/corina34_cracker 3.40 0067  02.08.2006

@<TRIPOS>MOLECULE
ASD01870077
  36   38    0    0    0
SMALL
NO_CHARGES


@<TRIPOS>ATOM
   1 C1            -0.0168     1.3887     0.0097 C.ar    
   2 C2             0.0021    -0.0041     0.0020 C.ar    
   3 C3            -1.1546    -0.7232     0.0087 C.ar    
   4 C4            -2.3912    -0.0574     0.0241 C.ar    
   5 C5            -2.4086     1.3608     0.0324 C.ar    
   6 C6            -1.1955     2.0705     0.0302 C.ar    
   7 N7            -3.5394    -0.7458     0.0304 N.ar    
   8 C8            -4.7022    -0.1458     0.0443 C.ar    
   9 C9            -4.8044     1.2613     0.0529 C.ar    
  10 C10           -3.6430     2.0310     0.0478 C.ar    
  11 C11            1.2834     2.1505     0.0014 C.3     
  12 C12           -6.1234     1.9091     0.0675 C.2     
  13 Cl13          -6.1510    -1.1022     0.0517 Cl      
  14 C14           -6.2139     3.2580     0.0757 C.2     
  15 C15           -7.5255     3.9021     0.0903 C.2     
  16 O16           -8.5366     3.2241     0.0950 O.2     
  17 C17           -7.6246     5.3779     0.0992 C.ar    
  18 C18           -8.8761     5.9965     0.1131 C.ar    
  19 C19           -8.9615     7.3732     0.1214 C.ar    
  20 C20           -7.8102     8.1409     0.1154 C.ar    
  21 C21           -6.5666     7.5342     0.1016 C.ar    
  22 C22           -6.4671     6.1584     0.0995 C.ar    
  23 H23            0.9495    -0.5223    -0.0098 H       
  24 H24           -1.1211    -1.8026     0.0019 H       
  25 H25           -1.1981     3.1505     0.0365 H       
  26 H26           -3.6904     3.1099     0.0544 H       
  27 H27            1.5871     2.3397    -1.0283 H       
  28 H28            1.1520     3.0993     0.5216 H       
  29 H29            2.0517     1.5635     0.5047 H       
  30 H30           -7.0204     1.3076     0.0718 H       
  31 H31           -5.3170     3.8594     0.0715 H       
  32 H32           -9.7754     5.3985     0.1171 H       
  33 H33           -9.9290     7.8530     0.1322 H       
  34 H34           -7.8826     9.2185     0.1212 H       
  35 H35           -5.6720     8.1391     0.0970 H       
  36 H36           -5.4959     5.6860     0.0891 H       
@<TRIPOS>BOND
   1    1    2 ar
   2    1   11 1
   3    1    6 ar
   4    2    3 ar
   5    2   23 1
   6    3    4 ar
   7    3   24 1
   8    4    5 ar
   9    4    7 ar
  10    5    6 ar
  11    5   10 ar
  12    6   25 1
  13    7    8 ar
  14    8    9 ar
  15    8   13 1
  16    9   10 ar
  17    9   12 1
  18   10   26 1
  19   11   27 1
  20   11   28 1
  21   11   29 1
  22   12   14 2
  23   12   30 1
  24   14   15 1
  25   14   31 1
  26   15   16 2
  27   15   17 1
  28   17   18 ar
  29   17   22 ar
  30   18   19 ar
  31   18   32 1
  32   19   20 ar
  33   19   33 1
  34   20   21 ar
  35   20   34 1
  36   21   22 ar
  37   21   35 1
  38   22   36 1

#	End of record

