#	Name: ASD04590318
#	Creating user name:	WinNT
#	Creation time:	15. 06. 2019 20:50

#	Modifying user name:	WinNT
#	Modification time:	15. 06. 2019 20:50

#	Program:	/corina/corina34_cracker 3.40 0067  02.08.2006

@<TRIPOS>MOLECULE
ASD04590318
  34   36    0    0    0
SMALL
NO_CHARGES


@<TRIPOS>ATOM
   1 C1            -0.0168     1.3893     0.0097 C.ar    
   2 C2             0.0021    -0.0041     0.0020 C.ar    
   3 C3            -1.2710    -0.7660     0.0096 C.2     
   4 C4            -1.3912    -2.1205     0.0034 C.2     
   5 N5            -2.5087    -0.2374     0.0297 N.2     
   6 C6            -3.3925    -1.2085     0.0310 C.2     
   7 N7            -2.7294    -2.4012     0.0147 N.pl3   
   8 C8            -4.8619    -1.0381     0.0504 C.2     
   9 C9            -5.5550     0.1897     0.0701 C.2     
  10 C10           -6.8775    -0.0819     0.0836 C.2     
  11 N11           -7.0287    -1.4241     0.0731 N.pl3   
  12 N12           -5.7553    -2.0069     0.0465 N.2     
  13 C13           -4.9306     1.5613     0.0756 C.3     
  14 C14           -4.6265     1.9805    -1.3396 C.2     
  15 C15           -3.9940     3.3216    -1.6089 C.3     
  16 O16           -4.8896     1.2417    -2.2579 O.2     
  17 C17            1.1704     2.0930     0.0021 C.ar    
  18 C18            2.3775     1.4177    -0.0135 C.ar    
  19 C19            2.4022     0.0347    -0.0216 C.ar    
  20 C20            1.2211    -0.6792    -0.0132 C.ar    
  21 H21           -0.9588     1.9176     0.0170 H       
  22 H22           -0.5838    -2.8377    -0.0082 H       
  23 H23           -3.1323    -3.2835     0.0113 H       
  24 H24           -7.6748     0.6464     0.1003 H       
  25 H25           -7.8730    -1.9016     0.0794 H       
  26 H26           -5.6225     2.2737     0.5248 H       
  27 H27           -4.0070     1.5377     0.6540 H       
  28 H28           -3.0290     3.3759    -1.1050 H       
  29 H29           -3.8511     3.4470    -2.6821 H       
  30 H30           -4.6445     4.1119    -1.2341 H       
  31 H31            1.1570     3.1729     0.0081 H       
  32 H32            3.3042     1.9724    -0.0197 H       
  33 H33            3.3475    -0.4874    -0.0342 H       
  34 H34            1.2415    -1.7590    -0.0192 H       
@<TRIPOS>BOND
   1    1    2 ar
   2    1   17 ar
   3    1   21 1
   4    2    3 1
   5    2   20 ar
   6    3    4 2
   7    3    5 1
   8    4    7 1
   9    4   22 1
  10    5    6 2
  11    6    7 1
  12    6    8 1
  13    7   23 1
  14    8    9 1
  15    8   12 2
  16    9   10 2
  17    9   13 1
  18   10   11 1
  19   10   24 1
  20   11   12 1
  21   11   25 1
  22   13   14 1
  23   13   26 1
  24   13   27 1
  25   14   15 1
  26   14   16 2
  27   15   28 1
  28   15   29 1
  29   15   30 1
  30   17   18 ar
  31   17   31 1
  32   18   19 ar
  33   18   32 1
  34   19   20 ar
  35   19   33 1
  36   20   34 1

#	End of record

