#	Name: ASD02508406
#	Creating user name:	WinNT
#	Creation time:	15. 06. 2019 20:24

#	Modifying user name:	WinNT
#	Modification time:	15. 06. 2019 20:24

#	Program:	/corina/corina34_cracker 3.40 0067  02.08.2006

@<TRIPOS>MOLECULE
ASD02508406
  40   42    0    0    0
SMALL
NO_CHARGES


@<TRIPOS>ATOM
   1 N1            -0.2087     1.6908     0.2997 N.2     
   2 C2            -0.1702     0.3573     0.4401 C.2     
   3 C3             1.1183    -0.0317     0.4132 C.2     
   4 N4             1.8723     1.1028     0.2520 N.pl3   
   5 C5             1.0077     2.1493     0.1861 C.2     
   6 C6             3.2670     1.1699     0.1711 C.ar    
   7 C7             3.9607     2.0720     0.9702 C.ar    
   8 N8             3.9143     0.3708    -0.6608 N.ar    
   9 C9             5.2288     0.4011    -0.7681 C.ar    
  10 C10            5.9816     1.2754    -0.0091 C.ar    
  11 C11            5.3417     2.1275     0.8802 C.ar    
  12 S12            1.7206    -1.6813     0.5573 S.o2    
  13 O13            1.6681    -2.2430    -0.7469 O.2     
  14 O14            2.9147    -1.6069     1.3240 O.2     
  15 N15            0.6283    -2.5236     1.4736 N.am    
  16 C16            0.3804    -2.1391     2.7961 C.ar    
  17 C17           -0.9240    -2.0745     3.2680 C.ar    
  18 C18           -1.1676    -1.6949     4.5733 C.ar    
  19 C19           -0.1100    -1.3779     5.4128 C.ar    
  20 C20            1.1932    -1.4418     4.9422 C.ar    
  21 C21            1.4391    -1.8276     3.6390 C.ar    
  22 Cl22           3.1076     3.1147     2.0650 Cl      
  23 O23           -0.3509    -1.0038     6.6979 O.3     
  24 C24            0.7852    -0.6914     7.5065 C.3     
  25 C25            7.4827     1.2997    -0.1407 C.3     
  26 F26            7.8831     0.3521    -1.0887 F       
  27 F27            7.8943     2.5724    -0.5507 F       
  28 F28            8.0641     0.9973     1.0954 F       
  29 H29           -1.0254    -0.2922     0.5552 H       
  30 H30            1.2814     3.1865     0.0603 H       
  31 H31            5.7227    -0.2669    -1.4582 H       
  32 H32            5.9073     2.8206     1.4852 H       
  33 H33            0.1602    -3.2835     1.0936 H       
  34 H34           -1.7477    -2.3206     2.6143 H       
  35 H35           -2.1821    -1.6445     4.9405 H       
  36 H36            2.0161    -1.1944     5.5964 H       
  37 H37            2.4539    -1.8776     3.2728 H       
  38 H38            1.4352    -1.5639     7.5724 H       
  39 H39            1.3335     0.1371     7.0582 H       
  40 H40            0.4535    -0.4092     8.5057 H       
@<TRIPOS>BOND
   1    1    2 1
   2    1    5 2
   3    2    3 2
   4    2   29 1
   5    3    4 1
   6    3   12 1
   7    4    5 1
   8    4    6 1
   9    5   30 1
  10    6    7 ar
  11    6    8 ar
  12    7   22 1
  13    7   11 ar
  14    8    9 ar
  15    9   10 ar
  16    9   31 1
  17   10   11 ar
  18   10   25 1
  19   11   32 1
  20   12   13 2
  21   12   14 2
  22   12   15 am
  23   15   16 1
  24   15   33 1
  25   16   17 ar
  26   16   21 ar
  27   17   18 ar
  28   17   34 1
  29   18   19 ar
  30   18   35 1
  31   19   20 ar
  32   19   23 1
  33   20   21 ar
  34   20   36 1
  35   21   37 1
  36   23   24 1
  37   24   38 1
  38   24   39 1
  39   24   40 1
  40   25   26 1
  41   25   27 1
  42   25   28 1

#	End of record

