#	Name: ASD05313233
#	Creating user name:	WinNT
#	Creation time:	15. 06. 2019 20:58

#	Modifying user name:	WinNT
#	Modification time:	15. 06. 2019 20:58

#	Program:	/corina/corina34_cracker 3.40 0067  02.08.2006

@<TRIPOS>MOLECULE
ASD05313233
  46   49    0    0    0
SMALL
NO_CHARGES


@<TRIPOS>ATOM
   1 C1            -0.4106     1.1202     1.2767 C.2     
   2 C2            -0.0959    -0.3315     0.9913 C.3     
   3 N3             0.5320     2.0902     1.3560 N.pl3   
   4 N4             1.3167    -0.3936     0.5732 N.am    
   5 C5             2.2973     0.4006     1.3289 C.3     
   6 C6             1.9700     1.8893     1.1673 C.3     
   7 N7            -1.5809     1.6482     1.4881 N.2     
   8 C8            -1.4443     2.9621     1.7118 C.2     
   9 C9            -0.1183     3.2650     1.6357 C.2     
  10 C10            1.6982    -1.1560    -0.4706 C.2     
  11 O11            2.8481    -1.1177    -0.8631 O.2     
  12 C12            0.7188    -2.0387    -1.1379 C.ar    
  13 C13            0.6659    -2.1005    -2.5328 C.ar    
  14 C14           -0.2524    -2.9278    -3.1492 C.ar    
  15 C15           -1.1179    -3.6930    -2.3886 C.ar    
  16 C16           -1.0705    -3.6356    -1.0068 C.ar    
  17 C17           -0.1541    -2.8188    -0.3776 C.ar    
  18 C18           -0.3118    -2.9966    -4.6535 C.3     
  19 F19           -1.3121    -3.8950    -5.0401 F       
  20 F20           -0.6004    -1.7278    -5.1673 F       
  21 F21            0.9221    -3.4310    -5.1495 F       
  22 Cl22           1.7509    -1.1397    -3.4885 Cl      
  23 C23            0.4984     4.5963     1.8219 C.ar    
  24 C24            0.1517     5.3822     2.9232 C.ar    
  25 C25            0.7317     6.6238     3.0908 C.ar    
  26 C26            1.6539     7.0895     2.1705 C.ar    
  27 C27            2.0012     6.3156     1.0778 C.ar    
  28 C28            1.4333     5.0703     0.9013 C.ar    
  29 C29            0.3593     7.4737     4.2783 C.3     
  30 F30            1.0712     8.6771     4.2321 F       
  31 F31           -1.0133     7.7424     4.2473 F       
  32 F32            0.6743     6.7906     5.4578 F       
  33 Cl33          -1.0062     4.7995     4.0780 Cl      
  34 H34           -0.2436    -0.9278     1.8917 H       
  35 H35           -0.7370    -0.7004     0.1907 H       
  36 H36            2.2504     0.1296     2.3836 H       
  37 H37            3.2985     0.2040     0.9454 H       
  38 H38            2.2556     2.2185     0.1683 H       
  39 H39            2.5188     2.4656     1.9121 H       
  40 H40           -2.2440     3.6579     1.9183 H       
  41 H41           -1.8343    -4.3380    -2.8754 H       
  42 H42           -1.7499    -4.2353    -0.4193 H       
  43 H43           -0.1153    -2.7793     0.7009 H       
  44 H44            2.1043     8.0617     2.3057 H       
  45 H45            2.7215     6.6853     0.3630 H       
  46 H46            1.7090     4.4656     0.0500 H       
@<TRIPOS>BOND
   1    1    2 1
   2    1    3 1
   3    1    7 2
   4    2    4 1
   5    2   34 1
   6    2   35 1
   7    3    6 1
   8    3    9 1
   9    4    5 1
  10    4   10 am
  11    5    6 1
  12    5   36 1
  13    5   37 1
  14    6   38 1
  15    6   39 1
  16    7    8 1
  17    8    9 2
  18    8   40 1
  19    9   23 1
  20   10   11 2
  21   10   12 1
  22   12   13 ar
  23   12   17 ar
  24   13   14 ar
  25   13   22 1
  26   14   15 ar
  27   14   18 1
  28   15   16 ar
  29   15   41 1
  30   16   17 ar
  31   16   42 1
  32   17   43 1
  33   18   19 1
  34   18   20 1
  35   18   21 1
  36   23   24 ar
  37   23   28 ar
  38   24   25 ar
  39   24   33 1
  40   25   26 ar
  41   25   29 1
  42   26   27 ar
  43   26   44 1
  44   27   28 ar
  45   27   45 1
  46   28   46 1
  47   29   30 1
  48   29   31 1
  49   29   32 1

#	End of record

