#	Name: ASD01881282
#	Creating user name:	WinNT
#	Creation time:	15. 06. 2019 19:42

#	Modifying user name:	WinNT
#	Modification time:	15. 06. 2019 19:42

#	Program:	/corina/corina34_cracker 3.40 0067  02.08.2006

@<TRIPOS>MOLECULE
ASD01881282
  59   61    0    0    0
SMALL
NO_CHARGES


@<TRIPOS>ATOM
   1 C1            -0.0613     1.4769    -0.2348 C.2     
   2 C2            -0.0713    -0.0300    -0.2209 C.3     
   3 C3             1.3298    -0.5523    -0.5449 C.3     
   4 C4            -0.4922    -0.5244     1.1644 C.3     
   5 C5            -1.0617    -0.5431    -1.2682 C.3     
   6 O6             0.9653     2.0743    -0.4797 O.2     
   7 N7            -1.1946     2.1607     0.0195 N.am    
   8 C8            -2.2580     5.6770     0.1262 C.ar    
   9 C9            -2.3325     4.3032     0.0218 C.ar    
  10 C10           -1.1624     3.5522     0.1193 C.ar    
  11 C11            0.0410     4.2272     0.3195 C.ar    
  12 C12            0.0301     5.6032     0.4132 C.ar    
  13 N13           -1.0993     6.2791     0.3157 N.ar    
  14 C14           -3.6604     3.6242    -0.1941 C.3     
  15 N15           -4.1527     3.0977     1.0812 N.pl3   
  16 C16           -9.0204     0.3478     1.5890 C.2     
  17 N17           -9.0348     0.0728     2.9045 N.am    
  18 C18           -7.8138     0.6127     3.5133 C.3     
  19 C19           -7.0374     1.2618     2.3946 C.ar    
  20 C20           -5.8368     1.9246     2.3458 C.ar    
  21 C21           -5.3688     2.4253     1.1328 C.ar    
  22 C22           -6.1186     2.2530    -0.0278 C.ar    
  23 C23           -7.3229     1.5894     0.0173 C.ar    
  24 C24           -7.7967     1.0851     1.2328 C.ar    
  25 O25           -9.8920     0.0285     0.8035 O.2     
  26 C26          -10.0953    -0.6471     3.6139 C.3     
  27 C27           -9.7867    -2.1456     3.6080 C.3     
  28 C28          -10.8942    -2.8974     4.3489 C.3     
  29 C29          -10.5855    -4.3959     4.3430 C.3     
  30 H30            2.0353    -0.1867     0.2012 H       
  31 H31            1.3226    -1.6422    -0.5349 H       
  32 H32            1.6297    -0.2000    -1.5319 H       
  33 H33           -1.4904    -0.1523     1.3952 H       
  34 H34           -0.4995    -1.6144     1.1745 H       
  35 H35            0.2133    -0.1589     1.9105 H       
  36 H36           -0.7618    -0.1908    -2.2552 H       
  37 H37           -1.0689    -1.6330    -1.2582 H       
  38 H38           -2.0598    -0.1710    -1.0374 H       
  39 H39           -2.0326     1.6856     0.1331 H       
  40 H40           -3.1590     6.2672     0.0474 H       
  41 H41            0.9687     3.6802     0.4005 H       
  42 H42            0.9576     6.1344     0.5686 H       
  43 H43           -4.3763     4.3441    -0.5907 H       
  44 H44           -3.5386     2.8050    -0.9027 H       
  45 H45           -3.6304     3.2180     1.8897 H       
  46 H46           -8.0688     1.3533     4.2713 H       
  47 H47           -7.2287    -0.1927     3.9573 H       
  48 H48           -5.2556     2.0580     3.2463 H       
  49 H49           -5.7536     2.6421    -0.9668 H       
  50 H50           -7.9020     1.4584    -0.8848 H       
  51 H51          -10.1503    -0.2915     4.6429 H       
  52 H52          -11.0494    -0.4706     3.1171 H       
  53 H53           -9.7317    -2.5011     2.5791 H       
  54 H54           -8.8326    -2.3220     4.1048 H       
  55 H55          -10.9492    -2.5418     5.3778 H       
  56 H56          -11.8482    -2.7210     3.8521 H       
  57 H57          -11.3746    -4.9315     4.8708 H       
  58 H58          -10.5306    -4.7515     3.3140 H       
  59 H59           -9.6315    -4.5723     4.8398 H       
@<TRIPOS>BOND
   1    1    2 1
   2    1    6 2
   3    1    7 am
   4    2    3 1
   5    2    4 1
   6    2    5 1
   7    3   30 1
   8    3   31 1
   9    3   32 1
  10    4   33 1
  11    4   34 1
  12    4   35 1
  13    5   36 1
  14    5   37 1
  15    5   38 1
  16    7   10 1
  17    7   39 1
  18    8    9 ar
  19    8   13 ar
  20    8   40 1
  21    9   10 ar
  22    9   14 1
  23   10   11 ar
  24   11   12 ar
  25   11   41 1
  26   12   13 ar
  27   12   42 1
  28   14   15 1
  29   14   43 1
  30   14   44 1
  31   15   21 1
  32   15   45 1
  33   16   17 am
  34   16   24 1
  35   16   25 2
  36   17   18 1
  37   17   26 1
  38   18   19 1
  39   18   46 1
  40   18   47 1
  41   19   20 ar
  42   19   24 ar
  43   20   21 ar
  44   20   48 1
  45   21   22 ar
  46   22   23 ar
  47   22   49 1
  48   23   24 ar
  49   23   50 1
  50   26   27 1
  51   26   51 1
  52   26   52 1
  53   27   28 1
  54   27   53 1
  55   27   54 1
  56   28   29 1
  57   28   55 1
  58   28   56 1
  59   29   57 1
  60   29   58 1
  61   29   59 1

#	End of record

