#	Name: ASD04590148
#	Creating user name:	WinNT
#	Creation time:	15. 06. 2019 20:50

#	Modifying user name:	WinNT
#	Modification time:	15. 06. 2019 20:50

#	Program:	/corina/corina34_cracker 3.40 0067  02.08.2006

@<TRIPOS>MOLECULE
ASD04590148
  48   51    0    0    0
SMALL
NO_CHARGES


@<TRIPOS>ATOM
   1 N1            -0.0153     1.2802     0.0091 N.pl3   
   2 N2             0.0021    -0.0041     0.0020 N.2     
   3 C3             1.2455    -0.4440    -0.0122 C.2     
   4 C4             2.0903     0.6961    -0.0142 C.2     
   5 C5             1.2523     1.7667    -0.0004 C.2     
   6 C6             1.6765    -1.8547    -0.0232 C.2     
   7 N7             0.7571    -2.8402    -0.0194 N.am    
   8 O8             2.8611    -2.1284    -0.0356 O.2     
   9 N9             3.4930     0.7146    -0.0270 N.am    
  10 C10            4.1514     1.8906    -0.0271 C.2     
  11 C11            1.1851    -4.2412    -0.0303 C.3     
  12 C12            0.0894    -5.1158     0.5856 C.3     
  13 C13            0.5160    -6.5838     0.5160 C.3     
  14 N14            0.7410    -6.9637    -0.8845 N.3     
  15 C15            1.8214    -6.1695    -1.4831 C.3     
  16 C16            1.4338    -4.6891    -1.4733 C.3     
  17 O17            3.5295     2.9356    -0.0159 O.2     
  18 C18            6.3139     3.1308    -0.0335 C.ar    
  19 C19            7.7037     3.1380    -0.0439 C.ar    
  20 O20            5.6111     4.2929    -0.0221 O.3     
  21 C21            6.3254     5.4740     0.3582 C.3     
  22 C22            7.6633     5.4896    -0.3935 C.3     
  23 O23            8.3933     4.3117    -0.0333 O.3     
  24 C24            8.4009     1.9402    -0.0611 C.ar    
  25 C25            7.7214     0.7335    -0.0660 C.ar    
  26 C26            6.3441     0.7108    -0.0535 C.ar    
  27 C27            5.6264     1.9101    -0.0406 C.ar    
  28 H28           -0.8184     1.8242     0.0160 H       
  29 H29            1.5405     2.8076     0.0019 H       
  30 H30           -0.1879    -2.6218    -0.0095 H       
  31 H31            3.9890    -0.1189    -0.0359 H       
  32 H32            2.1030    -4.3462     0.5480 H       
  33 H33           -0.0623    -4.8298     1.6264 H       
  34 H34           -0.8391    -4.9800     0.0312 H       
  35 H35            1.4373    -6.7215     1.0822 H       
  36 H36           -0.2682    -7.2104     0.9408 H       
  37 H37            0.9308    -7.9514    -0.9652 H       
  38 H38            2.7365    -6.3092    -0.9076 H       
  39 H39            1.9853    -6.4952    -2.5103 H       
  40 H40            0.5264    -4.5466    -2.0601 H       
  41 H41            2.2426    -4.0983    -1.9034 H       
  42 H42            5.7441     6.3568     0.0922 H       
  43 H43            6.5077     5.4634     1.4328 H       
  44 H44            7.4811     5.4949    -1.4682 H       
  45 H45            8.2327     6.3754    -0.1122 H       
  46 H46            9.4808     1.9480    -0.0712 H       
  47 H47            8.2740    -0.1943    -0.0797 H       
  48 H48            5.8192    -0.2331    -0.0571 H       
@<TRIPOS>BOND
   1    1    2 1
   2    1    5 1
   3    1   28 1
   4    2    3 2
   5    3    4 1
   6    3    6 1
   7    4    5 2
   8    4    9 1
   9    5   29 1
  10    6    7 am
  11    6    8 2
  12    7   11 1
  13    7   30 1
  14    9   10 am
  15    9   31 1
  16   10   17 2
  17   10   27 1
  18   11   12 1
  19   11   16 1
  20   11   32 1
  21   12   13 1
  22   12   33 1
  23   12   34 1
  24   13   14 1
  25   13   35 1
  26   13   36 1
  27   14   15 1
  28   14   37 1
  29   15   16 1
  30   15   38 1
  31   15   39 1
  32   16   40 1
  33   16   41 1
  34   18   19 ar
  35   18   20 1
  36   18   27 ar
  37   19   24 ar
  38   19   23 1
  39   20   21 1
  40   21   22 1
  41   21   42 1
  42   21   43 1
  43   22   23 1
  44   22   44 1
  45   22   45 1
  46   24   25 ar
  47   24   46 1
  48   25   26 ar
  49   25   47 1
  50   26   27 ar
  51   26   48 1

#	End of record

