#	Name: ASD00170402
#	Creating user name:	WinNT
#	Creation time:	15. 06. 2019 18:32

#	Modifying user name:	WinNT
#	Modification time:	15. 06. 2019 18:32

#	Program:	/corina/corina34_cracker 3.40 0067  02.08.2006

@<TRIPOS>MOLECULE
ASD00170402
  56   58    0    0    0
SMALL
NO_CHARGES


@<TRIPOS>ATOM
   1 C1            -0.2049    -0.1884    -1.8507 C.2     
   2 C2            -0.5361    -1.4923    -1.5529 C.2     
   3 C3            -1.7664    -1.6006    -0.8056 C.2     
   4 C4            -2.3326    -0.4135    -0.5555 C.2     
   5 S5            -1.3677     0.8894    -1.2260 S.3     
   6 C6            -2.3529    -2.9135    -0.3547 C.3     
   7 C7            -3.5954    -0.2258     0.1888 C.ar    
   8 C8            -3.7736    -0.8351     1.4322 C.ar    
   9 C9            -4.9549    -0.6558     2.1216 C.ar    
  10 C10           -5.9618     0.1259     1.5835 C.ar    
  11 C11           -5.7917     0.7326     0.3517 C.ar    
  12 C12           -4.6132     0.5663    -0.3457 C.ar    
  13 N13            0.9177     0.1928    -2.5535 N.pl3   
  14 C14            0.2733    -2.6447    -1.9517 C.2     
  15 C15            0.1174    -3.2257    -3.3024 C.ar    
  16 O16            1.0750    -3.1251    -1.1711 O.2     
  17 C17            0.8557    -4.3522    -3.6703 C.ar    
  18 C18            0.7061    -4.8895    -4.9314 C.ar    
  19 C19           -0.1741    -4.3136    -5.8327 C.ar    
  20 C20           -0.9093    -3.1959    -5.4735 C.ar    
  21 C21           -0.7728    -2.6534    -4.2131 C.ar    
  22 Cl22          -0.3562    -4.9950    -7.4189 Cl      
  23 N23           -3.0263    -3.5636    -1.4869 N.3     
  24 C24           -3.3062    -4.9754    -1.1928 C.3     
  25 C25           -4.2565    -2.8474    -1.8495 C.3     
  26 C26           -3.9165    -1.6998    -2.8025 C.3     
  27 C27           -5.2243    -3.8122    -2.5378 C.3     
  28 C28           -1.9908    -5.7134    -0.9360 C.3     
  29 C29           -4.1955    -5.0711     0.0486 C.3     
  30 H30           -1.5564    -3.5597     0.0141 H       
  31 H31           -3.0740    -2.7345     0.4428 H       
  32 H32           -2.9886    -1.4458     1.8531 H       
  33 H33           -5.0942    -1.1269     3.0834 H       
  34 H34           -6.8849     0.2627     2.1273 H       
  35 H35           -6.5818     1.3412    -0.0628 H       
  36 H36           -4.4816     1.0407    -1.3070 H       
  37 H37            1.5772    -0.4703    -2.8109 H       
  38 H38            1.0483     1.1243    -2.7907 H       
  39 H39            1.5428    -4.8016    -2.9687 H       
  40 H40            1.2766    -5.7608    -5.2171 H       
  41 H41           -1.5938    -2.7510    -6.1805 H       
  42 H42           -1.3468    -1.7821    -3.9340 H       
  43 H43           -3.8175    -5.4290    -2.0419 H       
  44 H44           -4.7222    -2.4463    -0.9493 H       
  45 H45           -3.4281    -2.0985    -3.6917 H       
  46 H46           -4.8322    -1.1840    -3.0914 H       
  47 H47           -3.2469    -0.9993    -2.3034 H       
  48 H48           -5.5796    -4.5472    -1.8156 H       
  49 H49           -6.0720    -3.2543    -2.9355 H       
  50 H50           -4.7106    -4.3223    -3.3526 H       
  51 H51           -1.4916    -5.2760    -0.0714 H       
  52 H52           -2.1967    -6.7662    -0.7425 H       
  53 H53           -1.3471    -5.6239    -1.8110 H       
  54 H54           -3.7155    -4.5551     0.8801 H       
  55 H55           -5.1599    -4.6074    -0.1587 H       
  56 H56           -4.3447    -6.1191     0.3087 H       
@<TRIPOS>BOND
   1    1    2 2
   2    1   13 1
   3    1    5 1
   4    2    3 1
   5    2   14 1
   6    3    4 2
   7    3    6 1
   8    4    5 1
   9    4    7 1
  10    6   23 1
  11    6   30 1
  12    6   31 1
  13    7    8 ar
  14    7   12 ar
  15    8    9 ar
  16    8   32 1
  17    9   10 ar
  18    9   33 1
  19   10   11 ar
  20   10   34 1
  21   11   12 ar
  22   11   35 1
  23   12   36 1
  24   13   37 1
  25   13   38 1
  26   14   15 1
  27   14   16 2
  28   15   17 ar
  29   15   21 ar
  30   17   18 ar
  31   17   39 1
  32   18   19 ar
  33   18   40 1
  34   19   20 ar
  35   19   22 1
  36   20   21 ar
  37   20   41 1
  38   21   42 1
  39   23   24 1
  40   23   25 1
  41   24   28 1
  42   24   29 1
  43   24   43 1
  44   25   26 1
  45   25   27 1
  46   25   44 1
  47   26   45 1
  48   26   46 1
  49   26   47 1
  50   27   48 1
  51   27   49 1
  52   27   50 1
  53   28   51 1
  54   28   52 1
  55   28   53 1
  56   29   54 1
  57   29   55 1
  58   29   56 1

#	End of record

