#	Name: ASD01811825
#	Creating user name:	WinNT
#	Creation time:	15. 06. 2019 19:27

#	Modifying user name:	WinNT
#	Modification time:	15. 06. 2019 19:27

#	Program:	/corina/corina34_cracker 3.40 0067  02.08.2006

@<TRIPOS>MOLECULE
ASD01811825
  52   56    0    0    0
SMALL
NO_CHARGES


@<TRIPOS>ATOM
   1 C1            -0.0168     1.3806     0.0038 C.ar    
   2 C2             0.0020    -0.0041    -0.0005 C.ar    
   3 C3            -1.1845    -0.7162     0.0131 C.ar    
   4 C4            -2.3942    -0.0537     0.0315 C.ar    
   5 C5            -2.4214     1.3424     0.0364 C.ar    
   6 C6            -1.2177     2.0512     0.0274 C.ar    
   7 C7             1.2776     2.1522    -0.0110 C.3     
   8 C8             1.3184    -0.7375    -0.0206 C.3     
   9 C9            -1.1547    -2.2229     0.0072 C.3     
  10 C10           -1.0017    -2.7278     1.4189 C.ar    
  11 C11           -2.1237    -2.9830     2.1858 C.ar    
  12 C12           -1.9867    -3.4453     3.4801 C.ar    
  13 C13           -0.7208    -3.6543     4.0107 C.ar    
  14 C14            0.4038    -3.3976     3.2381 C.ar    
  15 C15            0.2603    -2.9403     1.9427 C.ar    
  16 N16           -0.5785    -4.1231     5.3242 N.pl3   
  17 C17            0.5898    -4.3677     5.9597 C.2     
  18 C18            0.2967    -4.8056     7.2060 C.2     
  19 C19           -1.0961    -4.8298     7.3377 C.2     
  20 N20           -1.6212    -4.4153     6.2128 N.2     
  21 C21           -3.5306     2.3145     0.0541 C.2     
  22 N22           -3.0504     3.5700     0.0515 N.am    
  23 C23           -1.5842     3.5142     0.0353 C.3     
  24 O24           -4.7104     2.0221     0.0685 O.2     
  25 C25           -3.8188     4.7334     0.0647 C.ar    
  26 C26           -3.1929     5.9726     0.1709 C.ar    
  27 C27           -3.9695     7.1200     0.1828 C.ar    
  28 C28           -5.3479     6.9871     0.0879 C.ar    
  29 C29           -5.9005     5.7258    -0.0148 C.ar    
  30 N30           -5.1363     4.6504    -0.0291 N.ar    
  31 F31           -1.8475     6.0550     0.2615 F       
  32 H32           -3.3178    -0.6133     0.0417 H       
  33 H33            1.5761     2.3413    -1.0422 H       
  34 H34            1.1408     3.1012     0.5075 H       
  35 H35            2.0521     1.5723     0.4909 H       
  36 H36            1.6497    -0.9174     1.0021 H       
  37 H37            1.1956    -1.6903    -0.5356 H       
  38 H38            2.0619    -0.1354    -0.5428 H       
  39 H39           -2.0846    -2.6030    -0.4158 H       
  40 H40           -0.3140    -2.5674    -0.5950 H       
  41 H41           -3.1081    -2.8202     1.7725 H       
  42 H42           -2.8633    -3.6438     4.0789 H       
  43 H43            1.3897    -3.5589     3.6483 H       
  44 H44            1.1347    -2.7405     1.3412 H       
  45 H45            1.5791    -4.2376     5.5465 H       
  46 H46            1.0115    -5.0868     7.9651 H       
  47 H47           -1.6436    -5.1338     8.2176 H       
  48 H48           -1.1812     3.9971     0.9256 H       
  49 H49           -1.2007     4.0008    -0.8615 H       
  50 H50           -3.5129     8.0953     0.2644 H       
  51 H51           -5.9819     7.8614     0.0946 H       
  52 H52           -6.9726     5.6183    -0.0885 H       
@<TRIPOS>BOND
   1    1    2 ar
   2    1    7 1
   3    1    6 ar
   4    2    3 ar
   5    2    8 1
   6    3    4 ar
   7    3    9 1
   8    4    5 ar
   9    4   32 1
  10    5    6 ar
  11    5   21 1
  12    6   23 1
  13    7   33 1
  14    7   34 1
  15    7   35 1
  16    8   36 1
  17    8   37 1
  18    8   38 1
  19    9   10 1
  20    9   39 1
  21    9   40 1
  22   10   11 ar
  23   10   15 ar
  24   11   12 ar
  25   11   41 1
  26   12   13 ar
  27   12   42 1
  28   13   14 ar
  29   13   16 1
  30   14   15 ar
  31   14   43 1
  32   15   44 1
  33   16   17 1
  34   16   20 1
  35   17   18 2
  36   17   45 1
  37   18   19 1
  38   18   46 1
  39   19   20 2
  40   19   47 1
  41   21   22 am
  42   21   24 2
  43   22   23 1
  44   22   25 1
  45   23   48 1
  46   23   49 1
  47   25   26 ar
  48   25   30 ar
  49   26   27 ar
  50   26   31 1
  51   27   28 ar
  52   27   50 1
  53   28   29 ar
  54   28   51 1
  55   29   30 ar
  56   29   52 1

#	End of record

