#	Name: ASD04230183
#	Creating user name:	WinNT
#	Creation time:	15. 06. 2019 20:48

#	Modifying user name:	WinNT
#	Modification time:	15. 06. 2019 20:48

#	Program:	/corina/corina34_cracker 3.40 0067  02.08.2006

@<TRIPOS>MOLECULE
ASD04230183
  36   39    0    0    0
SMALL
NO_CHARGES


@<TRIPOS>ATOM
   1 C1             0.0767     1.3676     0.8488 C.2     
   2 C2             0.0734    -0.0870     0.6268 C.ar    
   3 C3            -1.1612    -0.7667     0.5524 C.ar    
   4 C4            -2.3783    -0.0592     0.6889 C.ar    
   5 C5            -2.3662     1.3408     0.9019 C.2     
   6 C6            -1.1619     2.0441     0.9870 C.2     
   7 C7             1.2599    -0.8002     0.4903 C.ar    
   8 C8             1.2303    -2.1697     0.2820 C.ar    
   9 C9             0.0348    -2.8513     0.2058 C.ar    
  10 C10           -1.1770    -2.1626     0.3397 C.ar    
  11 C11           -2.4209    -2.8365     0.2653 C.ar    
  12 C12           -3.6035    -2.1189     0.4026 C.ar    
  13 C13           -3.5900    -0.7571     0.6106 C.ar    
  14 O14            1.1289     1.9814     0.9178 O.2     
  15 N15           -3.5562     2.0165     1.0329 N.pl3   
  16 S16           -2.4689    -4.5776    -0.0009 S.3     
  17 C17           -4.1994    -4.8648     0.1643 C.ar    
  18 C18           -5.0155    -4.8662    -0.9605 C.ar    
  19 C19           -6.3713    -5.0915    -0.8277 C.ar    
  20 C20           -6.9176    -5.3154     0.4239 C.ar    
  21 C21           -6.1076    -5.3146     1.5459 C.ar    
  22 C22           -4.7502    -5.0960     1.4190 C.ar    
  23 Br23          -8.7751    -5.6223     0.6014 Br      
  24 C24           -1.1788     3.4596     1.2033 C.1     
  25 N25           -1.1921     4.5825     1.3750 N.1     
  26 H26            2.2072    -0.2847     0.5466 H       
  27 H27            2.1587    -2.7115     0.1773 H       
  28 H28            0.0327    -3.9188     0.0421 H       
  29 H29           -4.5489    -2.6378     0.3450 H       
  30 H30           -4.5227    -0.2227     0.7142 H       
  31 H31           -4.3962     1.5343     0.9792 H       
  32 H32           -3.5559     2.9754     1.1790 H       
  33 H33           -4.5898    -4.6909    -1.9374 H       
  34 H34           -7.0061    -5.0928    -1.7014 H       
  35 H35           -6.5370    -5.4896     2.5213 H       
  36 H36           -4.1185    -5.0959     2.2950 H       
@<TRIPOS>BOND
   1    1    2 1
   2    1   14 2
   3    1    6 1
   4    2    3 ar
   5    2    7 ar
   6    3    4 ar
   7    3   10 ar
   8    4    5 1
   9    4   13 ar
  10    5    6 2
  11    5   15 1
  12    6   24 1
  13    7    8 ar
  14    7   26 1
  15    8    9 ar
  16    8   27 1
  17    9   10 ar
  18    9   28 1
  19   10   11 ar
  20   11   12 ar
  21   11   16 1
  22   12   13 ar
  23   12   29 1
  24   13   30 1
  25   15   31 1
  26   15   32 1
  27   16   17 1
  28   17   18 ar
  29   17   22 ar
  30   18   19 ar
  31   18   33 1
  32   19   20 ar
  33   19   34 1
  34   20   21 ar
  35   20   23 1
  36   21   22 ar
  37   21   35 1
  38   22   36 1
  39   24   25 3

#	End of record

