#	Name: ASD02500307
#	Creating user name:	WinNT
#	Creation time:	15. 06. 2019 20:22

#	Modifying user name:	WinNT
#	Modification time:	15. 06. 2019 20:22

#	Program:	/corina/corina34_cracker 3.40 0067  02.08.2006

@<TRIPOS>MOLECULE
ASD02500307
  66   69    0    0    0
SMALL
NO_CHARGES


@<TRIPOS>ATOM
   1 N1            -3.2833     5.5448     0.2964 N.ar    
   2 C2            -4.4423     6.1571     0.2898 C.ar    
   3 C3            -5.4147     5.8968     1.2533 C.ar    
   4 C4            -5.1710     4.9822     2.2378 C.ar    
   5 C5            -3.9254     4.3262     2.2415 C.ar    
   6 C6            -3.6032     3.3745     3.2219 C.ar    
   7 C7            -2.3873     2.7620     3.1914 C.ar    
   8 C8            -1.4577     3.0677     2.1998 C.ar    
   9 C9            -1.7369     3.9853     1.2341 C.ar    
  10 C10           -2.9814     4.6388     1.2319 C.ar    
  11 S11           -0.5426     4.3533    -0.0080 S.o2    
  12 O12           -0.4653     5.7702    -0.0830 O.2     
  13 O13            0.5819     3.5266     0.2591 O.2     
  14 N14           -1.1660     3.8418    -1.4544 N.am    
  15 C15           -1.3919     2.4875    -1.6741 C.ar    
  16 C16           -2.5991     2.0649    -2.2238 C.ar    
  17 C17           -2.8257     0.7253    -2.4425 C.ar    
  18 C18           -1.8421    -0.2115    -2.1119 C.ar    
  19 C19           -0.6310     0.2160    -1.5600 C.ar    
  20 C20           -0.4082     1.5575    -1.3491 C.ar    
  21 C21           -2.0820    -1.6484    -2.3445 C.2     
  22 O22           -3.1988    -2.1087    -2.2051 O.2     
  23 N23           -1.0633    -2.4509    -2.7116 N.am    
  24 C24            0.3365    -1.9557    -2.7577 C.3     
  25 C25            1.0428    -2.3689    -1.5502 C.3     
  26 N26            0.9238    -3.8399    -1.3806 N.am    
  27 C27           -0.2856    -4.3300    -0.8179 C.3     
  28 C28           -1.3477    -4.8001    -1.8648 C.3     
  29 C29           -1.2799    -3.8099    -3.0660 C.3     
  30 C30            1.9187    -4.6730    -1.7449 C.2     
  31 O31            2.9065    -4.2336    -2.3015 O.2     
  32 S32            2.1466    -8.5320    -1.1993 S.3     
  33 N33            0.7531    -7.9603    -0.7777 N.2     
  34 N34            0.7244    -6.7014    -0.9723 N.2     
  35 C35            1.8093    -6.1172    -1.4684 C.2     
  36 C36            2.8211    -7.0279    -1.6938 C.2     
  37 H37           -4.6490     6.8829    -0.4828 H       
  38 H38           -6.3600     6.4181     1.2217 H       
  39 H39           -5.9131     4.7684     2.9928 H       
  40 H40           -4.3153     3.1297     3.9961 H       
  41 H41           -2.1403     2.0299     3.9460 H       
  42 H42           -0.4999     2.5687     2.1975 H       
  43 H43           -1.3735     4.4870    -2.1484 H       
  44 H44           -3.3587     2.7891    -2.4787 H       
  45 H45           -3.7625     0.3980    -2.8686 H       
  46 H46            0.1306    -0.5054    -1.3032 H       
  47 H47            0.5291     1.8889    -0.9272 H       
  48 H48            0.8392    -2.3697    -3.6317 H       
  49 H49            0.3344    -0.8676    -2.8224 H       
  50 H50            2.0951    -2.0974    -1.6345 H       
  51 H51            0.6075    -1.8676    -0.6857 H       
  52 H52           -0.0472    -5.1710    -0.1667 H       
  53 H53           -0.7272    -3.5413    -0.2087 H       
  54 H54           -1.1148    -5.8103    -2.2014 H       
  55 H55           -2.3426    -4.7765    -1.4201 H       
  56 H56           -2.2191    -3.8778    -3.6151 H       
  57 H57           -0.4740    -4.1264    -3.7282 H       
  58 H58            3.8085    -6.8401    -2.0889 H       
  59 C59            9.9800    13.8711    10.1429 C.2     
  60 C60           10.0004    12.3643    10.1346 C.3     
  61 O61           11.0180    14.4894    10.1363 O.2     
  62 O62            8.8085    14.5264    10.1520 O.3     
  63 F63           11.3255    11.9160    10.1196 F       
  64 F64            9.3582    11.8829    11.2805 F       
  65 F65            9.3364    11.8952     8.9961 F       
  66 H66            8.8460    15.4927    10.1571 H       
@<TRIPOS>BOND
   1    1    2 ar
   2    1   10 ar
   3    2    3 ar
   4    2   37 1
   5    3    4 ar
   6    3   38 1
   7    4    5 ar
   8    4   39 1
   9    5    6 ar
  10    5   10 ar
  11    6    7 ar
  12    6   40 1
  13    7    8 ar
  14    7   41 1
  15    8    9 ar
  16    8   42 1
  17    9   10 ar
  18    9   11 1
  19   11   12 2
  20   11   13 2
  21   11   14 am
  22   14   15 1
  23   14   43 1
  24   15   16 ar
  25   15   20 ar
  26   16   17 ar
  27   16   44 1
  28   17   18 ar
  29   17   45 1
  30   18   19 ar
  31   18   21 1
  32   19   20 ar
  33   19   46 1
  34   20   47 1
  35   21   22 2
  36   21   23 am
  37   23   24 1
  38   23   29 1
  39   24   25 1
  40   24   48 1
  41   24   49 1
  42   25   26 1
  43   25   50 1
  44   25   51 1
  45   26   27 1
  46   26   30 am
  47   27   28 1
  48   27   52 1
  49   27   53 1
  50   28   29 1
  51   28   54 1
  52   28   55 1
  53   29   56 1
  54   29   57 1
  55   30   31 2
  56   30   35 1
  57   32   33 1
  58   32   36 1
  59   33   34 2
  60   34   35 1
  61   35   36 2
  62   36   58 1
  63   59   60 1
  64   59   61 2
  65   59   62 1
  66   60   63 1
  67   60   64 1
  68   60   65 1
  69   62   66 1

#	End of record

