#	Name: ASD01948274
#	Creating user name:	WinNT
#	Creation time:	15. 06. 2019 20:14

#	Modifying user name:	WinNT
#	Modification time:	15. 06. 2019 20:14

#	Program:	/corina/corina34_cracker 3.40 0067  02.08.2006

@<TRIPOS>MOLECULE
ASD01948274
  53   55    0    0    0
SMALL
NO_CHARGES


@<TRIPOS>ATOM
   1 C1             2.3709     8.2942     0.0308 C.ar    
   2 C2             2.9643     8.6726    -1.1607 C.ar    
   3 C3             3.8327     7.8127    -1.8080 C.ar    
   4 C4             4.1111     6.5720    -1.2673 C.ar    
   5 C5             3.5187     6.1880    -0.0721 C.ar    
   6 C6             2.6453     7.0546     0.5776 C.ar    
   7 N7             4.0046     3.1257    -1.0480 N.am    
   8 C8             4.5855     4.0360    -0.2154 C.2     
   9 N9             3.7984     4.9322     0.4774 N.pl3   
  10 C10            4.7531     2.2420    -1.7337 C.2     
  11 C11            6.1446     2.2420    -1.6039 C.2     
  12 C12            6.7517     3.1557    -0.7654 C.2     
  13 C13            5.9599     4.0654    -0.0615 C.2     
  14 N14            6.5563     5.0062     0.7986 N.am    
  15 I15            2.5458    10.5521    -1.9861 I       
  16 O16            4.2124     1.4342    -2.4742 O.2     
  17 F17            2.0667     6.6853     1.7413 F       
  18 C18            2.5470     3.1054    -1.1933 C.3     
  19 S19            8.2051     5.1513     0.8512 S.o2    
  20 O20            8.6103     5.0402    -0.5063 O.2     
  21 O21            8.4284     6.3463     1.5870 O.2     
  22 C22            8.7566     3.7071     1.8003 C.3     
  23 C23            8.0645     3.4341     3.1373 C.3     
  24 C24            7.7826     2.5345     1.9322 C.3     
  25 C25            6.9775     1.2498    -2.3738 C.3     
  26 C26           10.2475     3.3794     1.6967 C.3     
  27 C27           10.6124     3.1213     0.2334 C.3     
  28 C28           12.1332     3.0248     0.0965 C.3     
  29 O29           10.0167     1.8958    -0.1971 O.3     
  30 O30           12.4802     2.9003    -1.2841 O.3     
  31 H31            1.6964     8.9696     0.5360 H       
  32 H32            4.2937     8.1113    -2.7379 H       
  33 H33            4.7889     5.9013    -1.7744 H       
  34 H34            3.4388     4.6917     1.3456 H       
  35 H35            7.8260     3.1666    -0.6553 H       
  36 H36            6.0017     5.5696     1.3605 H       
  37 H37            2.2469     3.8325    -1.9477 H       
  38 H38            2.2263     2.1099    -1.5003 H       
  39 H39            2.0833     3.3585    -0.2399 H       
  40 H40            8.6713     3.0207     3.9429 H       
  41 H41            7.2779     4.1223     3.4466 H       
  42 H42            6.8105     2.6309     1.4487 H       
  43 H43            8.2039     1.5293     1.9450 H       
  44 H44            6.3250     0.6170    -2.9754 H       
  45 H45            7.6680     1.7840    -3.0265 H       
  46 H46            7.5420     0.6307    -1.6765 H       
  47 H47           10.8311     4.2191     2.0741 H       
  48 H48           10.4660     2.4901     2.2879 H       
  49 H49           10.2434     3.9410    -0.3831 H       
  50 H50           12.5928     3.9239     0.5070 H       
  51 H51           12.4924     2.1519     0.6415 H       
  52 H52           10.3001     1.1218     0.3085 H       
  53 H53           13.4312     2.8342    -1.4463 H       
@<TRIPOS>BOND
   1    1    2 ar
   2    1    6 ar
   3    1   31 1
   4    2    3 ar
   5    2   15 1
   6    3    4 ar
   7    3   32 1
   8    4    5 ar
   9    4   33 1
  10    5    6 ar
  11    5    9 1
  12    6   17 1
  13    7    8 1
  14    7   10 am
  15    7   18 1
  16    8    9 1
  17    8   13 2
  18    9   34 1
  19   10   11 1
  20   10   16 2
  21   11   12 2
  22   11   25 1
  23   12   13 1
  24   12   35 1
  25   13   14 1
  26   14   19 am
  27   14   36 1
  28   18   37 1
  29   18   38 1
  30   18   39 1
  31   19   20 2
  32   19   21 2
  33   19   22 1
  34   22   23 1
  35   22   26 1
  36   22   24 1
  37   23   24 1
  38   23   40 1
  39   23   41 1
  40   24   42 1
  41   24   43 1
  42   25   44 1
  43   25   45 1
  44   25   46 1
  45   26   27 1
  46   26   47 1
  47   26   48 1
  48   27   28 1
  49   27   29 1
  50   27   49 1
  51   28   30 1
  52   28   50 1
  53   28   51 1
  54   29   52 1
  55   30   53 1

#	End of record

