#	Name: ASD09610054
#	Creating user name:	WinNT
#	Creation time:	15. 06. 2019 21:22

#	Modifying user name:	WinNT
#	Modification time:	15. 06. 2019 21:22

#	Program:	/corina/corina34_cracker 3.40 0067  02.08.2006

@<TRIPOS>MOLECULE
ASD09610054
  36   37    0    0    0
SMALL
NO_CHARGES


@<TRIPOS>ATOM
   1 N1            -0.0195     1.4430    -0.1905 N.pl3   
   2 N2            -0.0097     0.2238    -0.8772 N.2     
   3 C3             1.2272    -0.1245    -1.1023 C.2     
   4 C4             2.0679     0.8734    -0.5603 C.2     
   5 C5             1.2506     1.8346     0.0001 C.2     
   6 C6             3.5417     0.8858    -0.5879 C.2     
   7 O7             4.1477    -0.0269    -1.1160 O.2     
   8 N8             4.2176     1.9085    -0.0280 N.am    
   9 C9             5.6154     1.8642     0.0514 C.ar    
  10 C10            6.3590     3.0376    -0.0586 C.ar    
  11 C11            7.7409     2.9877     0.0206 C.ar    
  12 C12            8.3797     1.7756     0.2084 C.ar    
  13 C13            7.6427     0.6112     0.3177 C.ar    
  14 C14            6.2628     0.6531     0.2454 C.ar    
  15 O15            5.7295     4.2286    -0.2438 O.3     
  16 C16            6.5558     5.3898    -0.3479 C.3     
  17 C17            5.6762     6.6250    -0.5520 C.3     
  18 F18            6.4851     7.7618    -0.6539 F       
  19 F19            4.9296     6.4771    -1.7258 F       
  20 F20            7.3023     5.5377     0.8259 F       
  21 F21            7.4224     5.2494    -1.4372 F       
  22 C22           -1.2142     2.1723     0.2419 C.3     
  23 C23            1.6800    -1.3728    -1.8149 C.3     
  24 F24            0.7175    -1.7458    -2.7592 F       
  25 F25            2.8960    -1.1258    -2.4611 F       
  26 H26            1.5735     2.7361     0.4995 H       
  27 H27            3.7362     2.6753     0.3201 H       
  28 H28            8.3197     3.8955    -0.0648 H       
  29 H29            9.4573     1.7386     0.2696 H       
  30 H30            8.1460    -0.3330     0.4643 H       
  31 H31            5.6893    -0.2575     0.3356 H       
  32 H32            5.0010     6.7344     0.2967 H       
  33 H33           -1.4939     1.8493     1.2447 H       
  34 H34           -1.0039     3.2418     0.2501 H       
  35 H35           -2.0337     1.9684    -0.4473 H       
  36 H36            1.8100    -2.1774    -1.0912 H       
@<TRIPOS>BOND
   1    1    2 1
   2    1    5 1
   3    1   22 1
   4    2    3 2
   5    3    4 1
   6    3   23 1
   7    4    5 2
   8    4    6 1
   9    5   26 1
  10    6    7 2
  11    6    8 am
  12    8    9 1
  13    8   27 1
  14    9   10 ar
  15    9   14 ar
  16   10   11 ar
  17   10   15 1
  18   11   12 ar
  19   11   28 1
  20   12   13 ar
  21   12   29 1
  22   13   14 ar
  23   13   30 1
  24   14   31 1
  25   15   16 1
  26   16   17 1
  27   16   20 1
  28   16   21 1
  29   17   18 1
  30   17   19 1
  31   17   32 1
  32   22   33 1
  33   22   34 1
  34   22   35 1
  35   23   24 1
  36   23   25 1
  37   23   36 1

#	End of record

