#	Name: ASD01870312
#	Creating user name:	WinNT
#	Creation time:	15. 06. 2019 19:39

#	Modifying user name:	WinNT
#	Modification time:	15. 06. 2019 19:39

#	Program:	/corina/corina34_cracker 3.40 0067  02.08.2006

@<TRIPOS>MOLECULE
ASD01870312
  37   40    0    0    0
SMALL
NO_CHARGES


@<TRIPOS>ATOM
   1 C1            -0.0167     1.3776     0.0096 C.ar    
   2 C2             0.0021    -0.0041     0.0020 C.ar    
   3 C3             1.2085    -0.6798    -0.0122 C.ar    
   4 C4             2.3944     0.0265    -0.0181 C.ar    
   5 C5             2.3792     1.4167    -0.0108 C.ar    
   6 C6             1.1691     2.0908     0.0021 C.ar    
   7 C7             1.1252     3.5947     0.0072 C.3     
   8 O8             3.5539     2.0912    -0.0147 O.3     
   9 C9             3.5978     3.3796     0.4011 C.ar    
  10 C10            2.4533     4.1590     0.4332 C.ar    
  11 C11            2.5263     5.4730     0.8600 C.ar    
  12 C12            4.8131     3.9227     0.8022 C.ar    
  13 C13            4.8797     5.2339     1.2279 C.ar    
  14 C14            3.7360     6.0097     1.2570 C.ar    
  15 C15            0.7969     4.0873    -1.3787 C.2     
  16 N16            0.7030     5.4102    -1.6190 N.am    
  17 O17            0.6173     3.2935    -2.2777 O.2     
  18 C18            0.4010     5.8634    -2.8940 C.2     
  19 C19           -0.0123     7.1652    -4.5637 C.2     
  20 N20            0.2878     7.1179    -3.2522 N.2     
  21 O21            0.1815     5.0900    -3.9685 O.3     
  22 C22           -0.0796     5.9031    -5.0143 C.2     
  23 C23           -0.2299     8.4127    -5.3806 C.3     
  24 F24            0.0395     9.5380    -4.5942 F       
  25 F25            0.6264     8.4010    -6.4868 F       
  26 F26           -1.5577     8.4573    -5.8190 F       
  27 H27           -0.9603     1.9028     0.0169 H       
  28 H28           -0.9259    -0.5565     0.0075 H       
  29 H29            1.2227    -1.7596    -0.0182 H       
  30 H30            3.3362    -0.5020    -0.0281 H       
  31 H31            0.3531     3.9297     0.6998 H       
  32 H32            1.6344     6.0817     0.8827 H       
  33 H33            5.7071     3.3170     0.7809 H       
  34 H34            5.8249     5.6534     1.5394 H       
  35 H35            3.7881     7.0359     1.5896 H       
  36 H36            0.8467     6.0451    -0.8999 H       
  37 H37           -0.3010     5.5950    -6.0255 H       
@<TRIPOS>BOND
   1    1    2 ar
   2    1    6 ar
   3    1   27 1
   4    2    3 ar
   5    2   28 1
   6    3    4 ar
   7    3   29 1
   8    4    5 ar
   9    4   30 1
  10    5    6 ar
  11    5    8 1
  12    6    7 1
  13    7   10 1
  14    7   15 1
  15    7   31 1
  16    8    9 1
  17    9   12 ar
  18    9   10 ar
  19   10   11 ar
  20   11   14 ar
  21   11   32 1
  22   12   13 ar
  23   12   33 1
  24   13   14 ar
  25   13   34 1
  26   14   35 1
  27   15   16 am
  28   15   17 2
  29   16   18 1
  30   16   36 1
  31   18   21 1
  32   18   20 2
  33   19   20 1
  34   19   22 2
  35   19   23 1
  36   21   22 1
  37   22   37 1
  38   23   24 1
  39   23   25 1
  40   23   26 1

#	End of record

