#	Name: ASD05430208
#	Creating user name:	WinNT
#	Creation time:	15. 06. 2019 21:00

#	Modifying user name:	WinNT
#	Modification time:	15. 06. 2019 21:00

#	Program:	/corina/corina34_cracker 3.40 0067  02.08.2006

@<TRIPOS>MOLECULE
ASD05430208
  74   80    0    0    0
SMALL
NO_CHARGES


@<TRIPOS>ATOM
   1 C1             0.1723     1.1783    -1.0241 C.ar    
   2 C2             0.0186    -0.0128    -0.3116 C.ar    
   3 C3             1.0517    -0.4891     0.4807 C.ar    
   4 C4             2.2435     0.2029     0.5779 C.ar    
   5 C5             2.4228     1.3948    -0.1238 C.ar    
   6 C6             1.3765     1.8884    -0.9336 C.ar    
   7 C7             4.9372    -0.0508    -0.0996 C.3     
   8 C8             4.8545     1.4584     0.0661 C.2     
   9 C9             3.6898     2.1308    -0.0213 C.2     
  10 C10            6.1654    -0.3729    -0.9596 C.3     
  11 C11            7.4798     0.0946    -0.3235 C.3     
  12 N12            7.3548     1.4996     0.0546 N.pl3   
  13 C13            6.1422     2.1367     0.3305 C.2     
  14 N14           -1.1827    -0.7280    -0.3973 N.pl3   
  15 C15           -2.4346    -0.2266    -0.2333 C.2     
  16 C16           -1.3176    -2.0652    -0.6686 C.2     
  17 C17           -2.6369    -2.3347    -0.6553 C.2     
  18 N18           -3.2943    -1.1965    -0.3877 N.2     
  19 C19           -3.2663    -3.6814    -0.9029 C.3     
  20 C20            8.3965     2.5174     0.2058 C.3     
  21 O21            7.7423     3.5467     0.9771 O.3     
  22 N22            6.3488     3.3075     0.8337 N.2     
  23 C23            9.5971     1.9525     0.9676 C.3     
  24 C24           10.6670     3.0369     1.1098 C.3     
  25 C25            8.8202     3.0488    -1.1392 C.ar    
  26 C26            8.6639     2.2792    -2.2767 C.ar    
  27 C27            9.3665     4.3179    -1.2521 C.ar    
  28 C28            9.7421     4.7653    -2.5098 C.ar    
  29 C29            9.5607     3.9371    -3.6010 C.ar    
  30 N30            9.0323     2.7374    -3.4569 N.ar    
  31 S31           12.0905     2.3671     2.0130 S.o2    
  32 O32           11.6831     2.0653     3.3404 O.2     
  33 O33           12.6900     1.3495     1.2228 O.2     
  34 C34           13.2086     3.7947     2.0620 C.3     
  35 C35            1.2275     3.0710    -1.7807 C.2     
  36 N36            0.0393     3.0283    -2.3030 N.2     
  37 O37           -0.6335     1.8675    -1.8577 O.3     
  38 C38            6.2083    -1.8331    -1.4152 C.3     
  39 S39            7.0337    -1.3263    -2.9493 S.3     
  40 C40            6.0114     0.0740    -2.4145 C.3     
  41 C41           14.4921     3.4121     2.8016 C.3     
  42 C42            9.9648     4.4131    -4.9726 C.3     
  43 F43           11.2958     4.0579    -5.2161 F       
  44 F44            9.1402     3.8191    -5.9341 F       
  45 F45            9.8334     5.8043    -5.0409 F       
  46 H46            0.9234    -1.4111     1.0283 H       
  47 H47            3.0390    -0.1803     1.1998 H       
  48 H48            5.0387    -0.5228     0.8776 H       
  49 H49            4.0368    -0.4162    -0.5932 H       
  50 H50            3.6880     3.2108    -0.0160 H       
  51 H51            7.6888    -0.5042     0.5629 H       
  52 H52            8.2924    -0.0188    -1.0411 H       
  53 H53           -2.6777     0.8020    -0.0116 H       
  54 H54           -0.5190    -2.7675    -0.8567 H       
  55 H55           -3.3652    -4.2155     0.0421 H       
  56 H56           -4.2518    -3.5455    -1.3483 H       
  57 H57           -2.6371    -4.2572    -1.5816 H       
  58 H58            9.2781     1.6248     1.9570 H       
  59 H59           10.0091     1.1052     0.4196 H       
  60 H60           10.9860     3.3646     0.1203 H       
  61 H61           10.2550     3.8842     1.6578 H       
  62 H62            8.2353     1.2910    -2.1978 H       
  63 H63            9.4961     4.9435    -0.3814 H       
  64 H64           10.1706     5.7487    -2.6350 H       
  65 H65           13.4528     4.1001     1.0446 H       
  66 H66           12.7218     4.6198     2.5821 H       
  67 H67            1.9695     3.8390    -1.9423 H       
  68 H68            6.8325    -2.4619    -0.7803 H       
  69 H69            5.2190    -2.2593    -1.5814 H       
  70 H70            4.9840     0.0165    -2.7740 H       
  71 H71            6.4708     1.0417    -2.6164 H       
  72 H72           15.1640     4.2699     2.8311 H       
  73 H73           14.2479     3.1067     3.8191 H       
  74 H74           14.9789     2.5870     2.2816 H       
@<TRIPOS>BOND
   1    1    2 ar
   2    1    6 ar
   3    1   37 1
   4    2    3 ar
   5    2   14 1
   6    3    4 ar
   7    3   46 1
   8    4    5 ar
   9    4   47 1
  10    5    6 ar
  11    5    9 1
  12    6   35 1
  13    7    8 1
  14    7   10 1
  15    7   48 1
  16    7   49 1
  17    8    9 2
  18    8   13 1
  19    9   50 1
  20   10   11 1
  21   10   38 1
  22   10   40 1
  23   11   12 1
  24   11   51 1
  25   11   52 1
  26   12   13 1
  27   12   20 1
  28   13   22 2
  29   14   15 1
  30   14   16 1
  31   15   18 2
  32   15   53 1
  33   16   17 2
  34   16   54 1
  35   17   18 1
  36   17   19 1
  37   19   55 1
  38   19   56 1
  39   19   57 1
  40   20   21 1
  41   20   23 1
  42   20   25 1
  43   21   22 1
  44   23   24 1
  45   23   58 1
  46   23   59 1
  47   24   31 1
  48   24   60 1
  49   24   61 1
  50   25   26 ar
  51   25   27 ar
  52   26   30 ar
  53   26   62 1
  54   27   28 ar
  55   27   63 1
  56   28   29 ar
  57   28   64 1
  58   29   30 ar
  59   29   42 1
  60   31   32 2
  61   31   33 2
  62   31   34 1
  63   34   41 1
  64   34   65 1
  65   34   66 1
  66   35   36 2
  67   35   67 1
  68   36   37 1
  69   38   39 1
  70   38   68 1
  71   38   69 1
  72   39   40 1
  73   40   70 1
  74   40   71 1
  75   41   72 1
  76   41   73 1
  77   41   74 1
  78   42   43 1
  79   42   44 1
  80   42   45 1

#	End of record

