#	Name: ASD05130082
#	Creating user name:	WinNT
#	Creation time:	15. 06. 2019 20:56

#	Modifying user name:	WinNT
#	Modification time:	15. 06. 2019 20:56

#	Program:	/corina/corina34_cracker 3.40 0067  02.08.2006

@<TRIPOS>MOLECULE
ASD05130082
  60   64    0    0    0
SMALL
NO_CHARGES


@<TRIPOS>ATOM
   1 N1            -0.0685     1.1744    -0.6213 N.am    
   2 C2            -0.0808    -0.1711    -0.6971 C.2     
   3 O3             0.7521    -0.7500    -1.3681 O.2     
   4 N4            -1.0161    -0.8752    -0.0293 N.am    
   5 C5            -1.0857    -2.2661    -0.1796 C.ar    
   6 C6            -2.3199    -2.9087    -0.1492 C.ar    
   7 C7            -2.3920    -4.2825    -0.2974 C.ar    
   8 C8            -1.2404    -5.0228    -0.4761 C.ar    
   9 C9             0.0001    -4.3866    -0.5077 C.ar    
  10 C10            0.0734    -3.0019    -0.3642 C.ar    
  11 C11           -1.3240    -6.5189    -0.6365 C.3     
  12 F12           -3.4500    -2.1895     0.0258 F       
  13 N13            3.0555    -5.8862    -2.1626 N.am    
  14 C14            1.9304    -5.1653    -1.9884 C.2     
  15 C15            1.2369    -5.1800    -0.6984 C.2     
  16 C16            1.7388    -5.9307     0.3295 C.2     
  17 C17            2.9216    -6.6791     0.1218 C.ar    
  18 C18            3.4701    -7.4615     1.1455 C.ar    
  19 N19            4.5702    -8.1511     0.9359 N.ar    
  20 C20            5.2012    -8.1394    -0.2334 C.ar    
  21 C21            4.7259    -7.3917    -1.3014 C.ar    
  22 C22            3.5665    -6.6436    -1.1340 C.ar    
  23 O23            1.4884    -4.4989    -2.9073 O.2     
  24 N24            6.3581    -8.8890    -0.3894 N.pl3   
  25 C25            7.0651    -8.8864    -1.6725 C.3     
  26 C26            3.7368    -5.8676    -3.4593 C.3     
  27 C27            4.7634    -4.7333    -3.4798 C.3     
  28 C28            2.1126     3.8443    -1.9475 C.ar    
  29 C29            0.9653     3.3567    -1.3154 C.ar    
  30 C30            0.9771     1.9033    -1.2181 C.2     
  31 C31            2.0469     1.3224    -1.7337 C.2     
  32 S32            3.1590     2.5038    -2.3969 S.3     
  33 C33           -0.0100     4.2746    -0.8724 C.ar    
  34 C34            0.1654     5.6117    -1.0584 C.ar    
  35 C35            1.3058     6.0938    -1.6865 C.ar    
  36 C36            2.2748     5.2221    -2.1240 C.ar    
  37 H37           -0.7823     1.6407    -0.1589 H       
  38 H38           -1.6411    -0.4187     0.5554 H       
  39 H39           -3.3518    -4.7771    -0.2728 H       
  40 H40            1.0317    -2.5046    -0.3921 H       
  41 H41           -1.4288    -6.7657    -1.6930 H       
  42 H42           -0.4162    -6.9776    -0.2446 H       
  43 H43           -2.1873    -6.8955    -0.0880 H       
  44 H44            1.2390    -5.9516     1.2867 H       
  45 H45            2.9880    -7.4985     2.1112 H       
  46 H46            5.2480    -7.3911    -2.2468 H       
  47 H47            6.6988    -9.4148     0.3510 H       
  48 H48            7.3754    -7.8699    -1.9144 H       
  49 H49            7.9436    -9.5280    -1.6045 H       
  50 H50            6.4023    -9.2595    -2.4533 H       
  51 H51            4.2439    -6.8195    -3.6170 H       
  52 H52            3.0053    -5.7099    -4.2519 H       
  53 H53            4.2563    -3.7814    -3.3221 H       
  54 H54            5.4949    -4.8909    -2.6872 H       
  55 H55            5.2704    -4.7194    -4.4446 H       
  56 H56            2.2145     0.2556    -1.7447 H       
  57 H57           -0.9024     3.9140    -0.3825 H       
  58 H58           -0.5893     6.3036    -0.7147 H       
  59 H59            1.4336     7.1567    -1.8287 H       
  60 H60            3.1604     5.6020    -2.6117 H       
@<TRIPOS>BOND
   1    1    2 am
   2    1   30 1
   3    1   37 1
   4    2    3 2
   5    2    4 am
   6    4    5 1
   7    4   38 1
   8    5    6 ar
   9    5   10 ar
  10    6    7 ar
  11    6   12 1
  12    7    8 ar
  13    7   39 1
  14    8    9 ar
  15    8   11 1
  16    9   10 ar
  17    9   15 1
  18   10   40 1
  19   11   41 1
  20   11   42 1
  21   11   43 1
  22   13   14 am
  23   13   22 1
  24   13   26 1
  25   14   15 1
  26   14   23 2
  27   15   16 2
  28   16   17 1
  29   16   44 1
  30   17   18 ar
  31   17   22 ar
  32   18   19 ar
  33   18   45 1
  34   19   20 ar
  35   20   21 ar
  36   20   24 1
  37   21   22 ar
  38   21   46 1
  39   24   25 1
  40   24   47 1
  41   25   48 1
  42   25   49 1
  43   25   50 1
  44   26   27 1
  45   26   51 1
  46   26   52 1
  47   27   53 1
  48   27   54 1
  49   27   55 1
  50   28   29 ar
  51   28   32 1
  52   28   36 ar
  53   29   30 1
  54   29   33 ar
  55   30   31 2
  56   31   32 1
  57   31   56 1
  58   33   34 ar
  59   33   57 1
  60   34   35 ar
  61   34   58 1
  62   35   36 ar
  63   35   59 1
  64   36   60 1

#	End of record

