#	Name: ASD01917716
#	Creating user name:	WinNT
#	Creation time:	15. 06. 2019 20:09

#	Modifying user name:	WinNT
#	Modification time:	15. 06. 2019 20:09

#	Program:	/corina/corina34_cracker 3.40 0067  02.08.2006

@<TRIPOS>MOLECULE
ASD01917716
  47   50    0    0    0
SMALL
NO_CHARGES


@<TRIPOS>ATOM
   1 C1            -0.0190     1.5508     0.0106 C.3     
   2 C2             0.0021    -0.0041     0.0020 C.3     
   3 C3            -1.2366    -0.3745    -0.7874 C.2     
   4 N4            -1.6695     0.6911    -1.4922 N.am    
   5 C5            -0.7758     1.8309    -1.2889 C.3     
   6 C6            -2.8636     0.7044    -2.3410 C.3     
   7 O7            -1.7617    -1.4677    -0.7859 O.2     
   8 C8            -0.0840    -0.5429     1.4068 C.ar    
   9 N9             1.0246    -0.8532     2.0514 N.ar    
  10 C10            1.0057    -1.3274     3.2795 C.ar    
  11 C11           -0.2065    -1.5198     3.9477 C.ar    
  12 C12           -1.4004    -1.1990     3.2881 C.ar    
  13 C13           -1.3237    -0.6984     2.0005 C.ar    
  14 C14           -0.2284    -2.0417     5.2810 C.1     
  15 C15           -0.2464    -2.4696     6.3741 C.1     
  16 C16           -0.2684    -2.9914     7.7075 C.ar    
  17 C17            0.9275    -3.3084     8.3571 C.ar    
  18 C18            0.8986    -3.8107     9.6412 C.ar    
  19 C19           -0.3108    -4.0009    10.2863 C.ar    
  20 C20           -1.4991    -3.6897     9.6491 C.ar    
  21 C21           -1.4855    -3.1808     8.3673 C.ar    
  22 H22           -0.0428     1.8050    -2.0952 H       
  23 H23            0.9835     1.9786     0.0033 H       
  24 H24            0.8986    -0.3725    -0.4965 H       
  25 C25           -1.4650     3.1570    -1.3780 C.3     
  26 C26           -2.1373     3.6240    -0.1031 C.3     
  27 C27           -1.2062     3.4625     1.0955 C.3     
  28 C28           -0.8191     1.9866     1.2383 C.3     
  29 H29           -3.3413    -0.2748    -2.3114 H       
  30 H30           -3.5600     1.4596    -1.9765 H       
  31 H31           -2.5778     0.9384    -3.3665 H       
  32 H32            1.9345    -1.5699     3.7744 H       
  33 H33           -2.3556    -1.3389     3.7721 H       
  34 H34           -2.2228    -0.4359     1.4628 H       
  35 H35            1.8721    -3.1608     7.8547 H       
  36 H36            1.8220    -4.0565    10.1445 H       
  37 H37           -0.3274    -4.3945    11.2919 H       
  38 H38           -2.4393    -3.8411    10.1586 H       
  39 H39           -2.4136    -2.9380     7.8713 H       
  40 H40           -0.7298     3.9062    -1.6718 H       
  41 H41           -2.2201     3.0987    -2.1619 H       
  42 H42           -2.4098     4.6744    -0.2059 H       
  43 H43           -3.0396     3.0353     0.0624 H       
  44 H44           -0.3050     4.0558     0.9410 H       
  45 H45           -1.7146     3.7946     2.0007 H       
  46 H46           -1.7218     1.3793     1.3047 H       
  47 H47           -0.2248     1.8530     2.1422 H       
@<TRIPOS>BOND
   1    1    2 1
   2    1   23 1
   3    1    5 1
   4    1   28 1
   5    2    3 1
   6    2    8 1
   7    2   24 1
   8    3    4 am
   9    3    7 2
  10    4    5 1
  11    4    6 1
  12    5   22 1
  13    5   25 1
  14    6   29 1
  15    6   30 1
  16    6   31 1
  17    8    9 ar
  18    8   13 ar
  19    9   10 ar
  20   10   11 ar
  21   10   32 1
  22   11   12 ar
  23   11   14 1
  24   12   13 ar
  25   12   33 1
  26   13   34 1
  27   14   15 3
  28   15   16 1
  29   16   17 ar
  30   16   21 ar
  31   17   18 ar
  32   17   35 1
  33   18   19 ar
  34   18   36 1
  35   19   20 ar
  36   19   37 1
  37   20   21 ar
  38   20   38 1
  39   21   39 1
  40   25   26 1
  41   25   40 1
  42   25   41 1
  43   26   27 1
  44   26   42 1
  45   26   43 1
  46   27   28 1
  47   27   44 1
  48   27   45 1
  49   28   46 1
  50   28   47 1

#	End of record

