#	Name: ASD02500308
#	Creating user name:	WinNT
#	Creation time:	15. 06. 2019 20:22

#	Modifying user name:	WinNT
#	Modification time:	15. 06. 2019 20:22

#	Program:	/corina/corina34_cracker 3.40 0067  02.08.2006

@<TRIPOS>MOLECULE
ASD02500308
  61   64    0    0    0
SMALL
NO_CHARGES


@<TRIPOS>ATOM
   1 C1            -0.1560     1.8519    -3.0217 C.ar    
   2 C2             0.8196     1.6148    -2.0643 C.ar    
   3 C3             1.9615     0.9035    -2.4011 C.ar    
   4 C4             2.1261     0.4320    -3.6895 C.ar    
   5 C5             1.1521     0.6698    -4.6440 C.ar    
   6 C6             0.0112     1.3795    -4.3089 C.ar    
   7 S7            -1.6109     2.7491    -2.5941 S.o2    
   8 O8            -1.1769     3.9087    -1.8968 O.2     
   9 O9            -2.4095     2.8017    -3.7683 O.2     
  10 N10           -2.4487     1.8314    -1.4995 N.am    
  11 C11           -2.9788     0.6043    -1.8822 C.ar    
  12 C12           -2.8146    -0.5093    -1.0629 C.ar    
  13 C13           -3.3381    -1.7251    -1.4389 C.ar    
  14 C14           -4.0354    -1.8414    -2.6449 C.ar    
  15 C15           -4.1986    -0.7214    -3.4654 C.ar    
  16 C16           -3.6776     0.4930    -3.0811 C.ar    
  17 C17           -4.5974    -3.1434    -3.0512 C.2     
  18 O18           -5.6359    -3.1871    -3.6823 O.2     
  19 N19           -3.9598    -4.2846    -2.7229 N.am    
  20 C20           -4.5608    -5.5953    -3.0128 C.3     
  21 C21           -3.5287    -6.4506    -3.7554 C.3     
  22 N22           -2.2840    -6.4965    -2.9764 N.3     
  23 C23           -1.6879    -5.1603    -2.8452 C.3     
  24 C24           -2.6419    -4.2522    -2.0708 C.3     
  25 C25           -1.3738    -7.3987    -3.5383 C.ar    
  26 C26           -0.1310    -7.5893    -2.9490 C.ar    
  27 C27            0.7668    -8.4799    -3.5042 C.ar    
  28 C28            0.4275    -9.1835    -4.6503 C.ar    
  29 C29           -0.8135    -8.9934    -5.2398 C.ar    
  30 C30           -1.7151    -8.1081    -4.6822 C.ar    
  31 O31            1.3123   -10.0600    -5.1966 O.3     
  32 C32            0.8969   -10.7504    -6.3768 C.3     
  33 O33            0.6566     2.0796    -0.7973 O.3     
  34 C34            1.6438     1.7019     0.1644 C.3     
  35 F35            1.3147     0.2090    -5.9035 F       
  36 H36            2.7219     0.7185    -1.6569 H       
  37 H37            3.0153    -0.1219    -3.9520 H       
  38 H38           -0.7481     1.5639    -5.0544 H       
  39 H39           -2.5696     2.1499    -0.5913 H       
  40 H40           -2.2756    -0.4189    -0.1314 H       
  41 H41           -3.2101    -2.5887    -0.8031 H       
  42 H42           -4.7364    -0.8081    -4.3979 H       
  43 H43           -3.8074     1.3597    -3.7123 H       
  44 H44           -4.8388    -6.0851    -2.0795 H       
  45 H45           -5.4442    -5.4630    -3.6374 H       
  46 H46           -3.9166    -7.4614    -3.8810 H       
  47 H47           -3.3296    -6.0128    -4.7335 H       
  48 H48           -0.7410    -5.2354    -2.3107 H       
  49 H49           -1.5145    -4.7405    -3.8360 H       
  50 H50           -2.2572    -3.2323    -2.0730 H       
  51 H51           -2.7319    -4.6104    -1.0453 H       
  52 H52            0.1337    -7.0410    -2.0569 H       
  53 H53            1.7335    -8.6283    -3.0460 H       
  54 H54           -1.0768    -9.5415    -6.1324 H       
  55 H55           -2.6833    -7.9640    -5.1384 H       
  56 H56            0.0022   -11.3341    -6.1603 H       
  57 H57            0.6777   -10.0275    -7.1625 H       
  58 H58            1.6939   -11.4163    -6.7077 H       
  59 H59            1.7309     0.6156     0.1882 H       
  60 H60            2.6044     2.1374    -0.1108 H       
  61 H61            1.3492     2.0645     1.1492 H       
@<TRIPOS>BOND
   1    1    2 ar
   2    1    6 ar
   3    1    7 1
   4    2    3 ar
   5    2   33 1
   6    3    4 ar
   7    3   36 1
   8    4    5 ar
   9    4   37 1
  10    5    6 ar
  11    5   35 1
  12    6   38 1
  13    7    8 2
  14    7    9 2
  15    7   10 am
  16   10   11 1
  17   10   39 1
  18   11   12 ar
  19   11   16 ar
  20   12   13 ar
  21   12   40 1
  22   13   14 ar
  23   13   41 1
  24   14   15 ar
  25   14   17 1
  26   15   16 ar
  27   15   42 1
  28   16   43 1
  29   17   18 2
  30   17   19 am
  31   19   20 1
  32   19   24 1
  33   20   21 1
  34   20   44 1
  35   20   45 1
  36   21   22 1
  37   21   46 1
  38   21   47 1
  39   22   23 1
  40   22   25 1
  41   23   24 1
  42   23   48 1
  43   23   49 1
  44   24   50 1
  45   24   51 1
  46   25   26 ar
  47   25   30 ar
  48   26   27 ar
  49   26   52 1
  50   27   28 ar
  51   27   53 1
  52   28   29 ar
  53   28   31 1
  54   29   30 ar
  55   29   54 1
  56   30   55 1
  57   31   32 1
  58   32   56 1
  59   32   57 1
  60   32   58 1
  61   33   34 1
  62   34   59 1
  63   34   60 1
  64   34   61 1

#	End of record

