#	Name: ASD04910121
#	Creating user name:	WinNT
#	Creation time:	15. 06. 2019 20:55

#	Modifying user name:	WinNT
#	Modification time:	15. 06. 2019 20:55

#	Program:	/corina/corina34_cracker 3.40 0067  02.08.2006

@<TRIPOS>MOLECULE
ASD04910121
  40   40    0    0    0
SMALL
NO_CHARGES


@<TRIPOS>ATOM
   1 C1            -0.0171     1.4107     0.0098 C.2     
   2 C2             0.0021    -0.0041     0.0020 C.2     
   3 C3             1.1783    -0.6620    -0.0127 C.2     
   4 O4             1.0282     2.0333     0.0032 O.2     
   5 O5            -1.1948     2.0694     0.0190 O.3     
   6 C6             2.3730    -2.6916    -0.0351 C.2     
   7 C7             2.3931    -4.1714    -0.0432 C.ar    
   8 C8             3.6117    -4.8524    -0.0585 C.ar    
   9 C9             3.6316    -6.2298    -0.0661 C.ar    
  10 C10            2.4307    -6.9458    -0.0585 C.ar    
  11 C11            1.2109    -6.2628    -0.0431 C.ar    
  12 C12            1.1935    -4.8853    -0.0298 C.ar    
  13 O13            3.4169    -2.0699    -0.0417 O.2     
  14 N14            1.1969    -2.0337    -0.0203 N.am    
  15 C15            2.4507    -8.4195    -0.0670 C.2     
  16 C16            1.1560    -9.1907    -0.0588 C.3     
  17 C17            1.4560   -10.6910    -0.0703 C.3     
  18 C18            2.1664   -11.0790     1.2280 C.3     
  19 O19            3.5086    -9.0113    -0.0807 O.2     
  20 C20            0.1456   -11.4722    -0.1877 C.3     
  21 C21           -1.1393     3.4973     0.0265 C.3     
  22 H22           -0.9258    -0.5567     0.0079 H       
  23 H23            2.1061    -0.1093    -0.0186 H       
  24 H24            4.5392    -4.2991    -0.0647 H       
  25 H25            4.5744    -6.7564    -0.0783 H       
  26 H26            0.2827    -6.8149    -0.0376 H       
  27 H27            0.2514    -4.3575    -0.0132 H       
  28 H28            0.3635    -2.5301    -0.0150 H       
  29 H29            0.5896    -8.9403     0.8382 H       
  30 H30            0.5723    -8.9301    -0.9417 H       
  31 H31            2.0970   -10.9269    -0.9198 H       
  32 H32            3.0999   -10.5225     1.3116 H       
  33 H33            1.5254   -10.8431     2.0775 H       
  34 H34            2.3801   -12.1478     1.2198 H       
  35 H35           -0.3605   -11.1957    -1.1126 H       
  36 H36            0.3593   -12.5410    -0.1959 H       
  37 H37           -0.4954   -11.2363     0.6617 H       
  38 H38           -0.6076     3.8356     0.9158 H       
  39 H39           -0.6160     3.8453    -0.8641 H       
  40 H40           -2.1521     3.9002     0.0335 H       
@<TRIPOS>BOND
   1    1    2 1
   2    1    4 2
   3    1    5 1
   4    2    3 2
   5    2   22 1
   6    3   14 1
   7    3   23 1
   8    5   21 1
   9    6    7 1
  10    6   13 2
  11    6   14 am
  12    7    8 ar
  13    7   12 ar
  14    8    9 ar
  15    8   24 1
  16    9   10 ar
  17    9   25 1
  18   10   11 ar
  19   10   15 1
  20   11   12 ar
  21   11   26 1
  22   12   27 1
  23   14   28 1
  24   15   16 1
  25   15   19 2
  26   16   17 1
  27   16   29 1
  28   16   30 1
  29   17   18 1
  30   17   20 1
  31   17   31 1
  32   18   32 1
  33   18   33 1
  34   18   34 1
  35   20   35 1
  36   20   36 1
  37   20   37 1
  38   21   38 1
  39   21   39 1
  40   21   40 1

#	End of record

