#	Name: ASD07480053
#	Creating user name:	WinNT
#	Creation time:	15. 06. 2019 21:11

#	Modifying user name:	WinNT
#	Modification time:	15. 06. 2019 21:11

#	Program:	/corina/corina34_cracker 3.40 0067  02.08.2006

@<TRIPOS>MOLECULE
ASD07480053
  36   38    0    0    0
SMALL
NO_CHARGES


@<TRIPOS>ATOM
   1 N1            -0.0169     1.3966     0.0097 N.2     
   2 C2             2.0735     0.7211    -0.0139 C.2     
   3 C3             3.0881    -1.9676    -0.0375 C.2     
   4 C4             3.5758    -3.3614    -0.0496 C.ar    
   5 C5             4.9483    -3.6246    -0.0578 C.ar    
   6 C6             2.6674    -4.4224    -0.0472 C.ar    
   7 C7            -2.2594    -0.4795     0.7103 C.ar    
   8 C8            -3.3622    -1.3110     0.7149 C.ar    
   9 C9            -2.1967    -2.8740    -0.6790 C.ar    
  10 C10            1.3037    -0.4019    -0.0125 C.2     
  11 N11            0.0021    -0.0041     0.0020 N.pl3   
  12 N12            1.7639    -1.7171    -0.0240 N.am    
  13 C13            1.2190     1.8270     0.0002 C.2     
  14 C14            5.3972    -4.9304    -0.0634 C.ar    
  15 C15           -1.1188    -0.8454     0.0082 C.ar    
  16 O16            3.8812    -1.0460    -0.0397 O.2     
  17 C17            4.4907    -5.9766    -0.0609 C.ar    
  18 Cl18           6.0859    -2.3133    -0.0615 Cl      
  19 C19            3.1287    -5.7212    -0.0581 C.ar    
  20 Cl20           5.0627    -7.6156    -0.0679 Cl      
  21 C21            1.6483     3.2716     0.0031 C.3     
  22 C22           -1.0907    -2.0467    -0.6874 C.ar    
  23 C23           -3.3290    -2.5097     0.0262 C.ar    
  24 H24            3.1530     0.7519    -0.0240 H       
  25 H25            1.6056    -4.2255    -0.0364 H       
  26 H26           -2.2858     0.4563     1.2487 H       
  27 H27           -4.2513    -1.0249     1.2572 H       
  28 H28           -2.1754    -3.8085    -1.2199 H       
  29 H29            1.1312    -2.4523    -0.0223 H       
  30 H30            6.4575    -5.1359    -0.0655 H       
  31 H31            2.4268    -6.5421    -0.0558 H       
  32 H32            1.7415     3.6250    -1.0238 H       
  33 H33            0.9040     3.8708     0.5275 H       
  34 H34            2.6101     3.3637     0.5078 H       
  35 H35           -0.2048    -2.3342    -1.2342 H       
  36 H36           -4.1924    -3.1585     0.0318 H       
@<TRIPOS>BOND
   1    1   11 1
   2    1   13 2
   3    2   13 1
   4    2   24 1
   5    2   10 2
   6    3   12 am
   7    3    4 1
   8    3   16 2
   9    4    6 ar
  10    4    5 ar
  11    5   14 ar
  12    5   18 1
  13    6   25 1
  14    6   19 ar
  15    7    8 ar
  16    7   26 1
  17    7   15 ar
  18    8   23 ar
  19    8   27 1
  20    9   28 1
  21    9   22 ar
  22    9   23 ar
  23   10   11 1
  24   10   12 1
  25   11   15 1
  26   12   29 1
  27   13   21 1
  28   14   17 ar
  29   14   30 1
  30   15   22 ar
  31   17   19 ar
  32   17   20 1
  33   19   31 1
  34   21   32 1
  35   21   33 1
  36   21   34 1
  37   22   35 1
  38   23   36 1

#	End of record

