#	Name: ASD08150406
#	Creating user name:	WinNT
#	Creation time:	15. 06. 2019 21:16

#	Modifying user name:	WinNT
#	Modification time:	15. 06. 2019 21:16

#	Program:	/corina/corina34_cracker 3.40 0067  02.08.2006

@<TRIPOS>MOLECULE
ASD08150406
  58   62    0    0    0
SMALL
NO_CHARGES


@<TRIPOS>ATOM
   1 N1            -0.0176     1.4641     0.0099 N.3     
   2 C2             0.1482     0.0088    -0.0943 C.3     
   3 C3             0.8437    -0.5180     1.1631 C.3     
   4 C4             2.2084     0.1609     1.3080 C.3     
   5 C5             2.0113     1.6783     1.3656 C.3     
   6 C6             1.2820     2.1414     0.1024 C.3     
   7 C7             2.8727    -0.3092     2.5764 C.2     
   8 O8             2.3129    -1.1056     3.2921 O.2     
   9 O9             4.0861     0.1569     2.9111 O.3     
  10 C10           -0.7672     1.9615    -1.0622 C.ar    
  11 C11           -1.9636     2.6258    -0.8241 C.ar    
  12 C12           -2.7033     3.1160    -1.8816 C.ar    
  13 C13           -2.2508     2.9454    -3.1838 C.ar    
  14 C14           -1.0544     2.2816    -3.4218 C.ar    
  15 C15           -0.3120     1.7959    -2.3636 C.ar    
  16 C16           -2.4545     2.8109     0.5886 C.3     
  17 F17           -3.6702     3.5030     0.5730 F       
  18 F18           -2.6380     1.5594     1.1863 F       
  19 F19           -1.5109     3.5421     1.3181 F       
  20 N20           -6.9446     2.3279    -4.9070 N.ar    
  21 C21           -6.5213     3.5131    -5.2843 C.ar    
  22 C22           -5.2049     3.9152    -5.0738 C.ar    
  23 C23           -4.3163     3.0431    -4.4544 C.ar    
  24 C24           -4.7842     1.7773    -4.0530 C.ar    
  25 C25           -3.9480     0.8475    -3.4201 C.ar    
  26 C26           -4.4463    -0.3665    -3.0506 C.ar    
  27 C27           -5.7783    -0.6950    -3.2945 C.ar    
  28 C28           -6.6172     0.1847    -3.9074 C.ar    
  29 C29           -6.1404     1.4458    -4.3027 C.ar    
  30 N30           -4.7613     5.1832    -5.4701 N.am    
  31 N31           -3.0009     3.4420    -4.2561 N.pl3   
  32 C32           -2.4198     4.4025    -5.2068 C.3     
  33 C33           -3.4444     5.4632    -5.5202 C.2     
  34 O34           -3.0793     6.5802    -5.8209 O.2     
  35 Br35          -3.3161    -1.6199    -2.1975 Br      
  36 C36            4.6652    -0.3395     4.1466 C.3     
  37 H37           -0.8299    -0.4621    -0.1926 H       
  38 H38            0.7538    -0.2260    -0.9696 H       
  39 H39            0.2320    -0.2958     2.0374 H       
  40 H40            0.9807    -1.5961     1.0785 H       
  41 H41            2.8342    -0.0928     0.4523 H       
  42 H42            1.4180     1.9351     2.2432 H       
  43 H43            2.9825     2.1694     1.4258 H       
  44 H44            1.8823     1.8967    -0.7739 H       
  45 H45            1.1274     3.2195     0.1469 H       
  46 H46           -3.6338     3.6319    -1.6965 H       
  47 H47           -0.7027     2.1486    -4.4342 H       
  48 H48            0.6206     1.2835    -2.5483 H       
  49 H49           -7.2096     4.1904    -5.7679 H       
  50 H50           -2.9139     1.0915    -3.2263 H       
  51 H51           -6.1509    -1.6627    -2.9929 H       
  52 H52           -7.6469    -0.0860    -4.0887 H       
  53 H53           -5.4076     5.8655    -5.7102 H       
  54 H54           -1.5384     4.8663    -4.7639 H       
  55 H55           -2.1393     3.8841    -6.1236 H       
  56 H56            5.6439     0.1158     4.2978 H       
  57 H57            4.0129    -0.0846     4.9818 H       
  58 H58            4.7735    -1.4225     4.0876 H       
@<TRIPOS>BOND
   1    1    2 1
   2    1    6 1
   3    1   10 1
   4    2    3 1
   5    2   37 1
   6    2   38 1
   7    3    4 1
   8    3   39 1
   9    3   40 1
  10    4    5 1
  11    4    7 1
  12    4   41 1
  13    5    6 1
  14    5   42 1
  15    5   43 1
  16    6   44 1
  17    6   45 1
  18    7    8 2
  19    7    9 1
  20    9   36 1
  21   10   11 ar
  22   10   15 ar
  23   11   12 ar
  24   11   16 1
  25   12   13 ar
  26   12   46 1
  27   13   14 ar
  28   13   31 1
  29   14   15 ar
  30   14   47 1
  31   15   48 1
  32   16   17 1
  33   16   18 1
  34   16   19 1
  35   20   21 ar
  36   20   29 ar
  37   21   22 ar
  38   21   49 1
  39   22   23 ar
  40   22   30 1
  41   23   24 ar
  42   23   31 1
  43   24   25 ar
  44   24   29 ar
  45   25   26 ar
  46   25   50 1
  47   26   27 ar
  48   26   35 1
  49   27   28 ar
  50   27   51 1
  51   28   29 ar
  52   28   52 1
  53   30   33 am
  54   30   53 1
  55   31   32 1
  56   32   33 1
  57   32   54 1
  58   32   55 1
  59   33   34 2
  60   36   56 1
  61   36   57 1
  62   36   58 1

#	End of record

