#	Name: ASD03090101
#	Creating user name:	WinNT
#	Creation time:	15. 06. 2019 20:28

#	Modifying user name:	WinNT
#	Modification time:	15. 06. 2019 20:28

#	Program:	/corina/corina34_cracker 3.40 0067  02.08.2006

@<TRIPOS>MOLECULE
ASD03090101
  50   51    0    0    0
SMALL
NO_CHARGES


@<TRIPOS>ATOM
   1 C1             0.5137     2.0203     0.4004 C.2     
   2 N2             0.4535     0.8059    -0.1810 N.am    
   3 O3             1.5364     2.3816     0.9483 O.2     
   4 O4            -0.5576     2.8353     0.3694 O.3     
   5 C5             1.6003     0.0068    -0.2529 C.ar    
   6 C6             1.4905    -1.3757    -0.1833 C.ar    
   7 C7             2.6241    -2.1615    -0.2545 C.ar    
   8 C8             3.8675    -1.5728    -0.3944 C.ar    
   9 C9             3.9802    -0.1964    -0.4635 C.ar    
  10 C10            2.8498     0.5946    -0.3996 C.ar    
  11 C11            5.1024    -2.4332    -0.4712 C.3     
  12 C12            5.3837    -2.7808    -1.9104 C.2     
  13 O13            4.6533    -2.3702    -2.7874 O.2     
  14 N14            6.4469    -3.5478    -2.2230 N.am    
  15 C15            6.6488    -3.9596    -3.5473 C.ar    
  16 C16            7.9390    -4.1102    -4.0383 C.ar    
  17 C17            8.1383    -4.5158    -5.3427 C.ar    
  18 C18            7.0477    -4.7737    -6.1642 C.ar    
  19 C19            5.7570    -4.6232    -5.6723 C.ar    
  20 C20            5.5586    -4.2223    -4.3663 C.ar    
  21 S21            7.3016    -5.2908    -7.8293 S.3     
  22 C22            5.6113    -5.4898    -8.4570 C.3     
  23 F23            4.9399    -6.4498    -7.6922 F       
  24 F24            4.9349    -4.2683    -8.3705 F       
  25 C25           -0.4211     4.1283     1.0159 C.3     
  26 C26            0.7121     4.9133     0.3522 C.3     
  27 C27           -1.7303     4.9080     0.8785 C.3     
  28 C28           -0.1012     3.9260     2.4984 C.3     
  29 H29           -0.3846     0.4856    -0.5497 H       
  30 H30            0.5197    -1.8360    -0.0733 H       
  31 H31            2.5393    -3.2368    -0.2005 H       
  32 H32            4.9528     0.2604    -0.5724 H       
  33 H33            2.9380     1.6694    -0.4588 H       
  34 H34            5.9508    -1.8890    -0.0564 H       
  35 H35            4.9437    -3.3483     0.0992 H       
  36 H36            7.0724    -3.8148    -1.5313 H       
  37 H37            8.7866    -3.9098    -3.3997 H       
  38 H38            9.1417    -4.6323    -5.7247 H       
  39 H39            4.9090    -4.8236    -6.3104 H       
  40 H40            4.5554    -4.1089    -3.9828 H       
  41 H41            5.6457    -5.8132    -9.4973 H       
  42 H42            0.4842     5.0574    -0.7040 H       
  43 H43            0.8146     5.8839     0.8375 H       
  44 H44            1.6448     4.3578     0.4501 H       
  45 H45           -2.5376     4.3487     1.3514 H       
  46 H46           -1.6279     5.8786     1.3638 H       
  47 H47           -1.9582     5.0521    -0.1776 H       
  48 H48            0.8315     3.3705     2.5963 H       
  49 H49            0.0013     4.8966     2.9837 H       
  50 H50           -0.9085     3.3667     2.9713 H       
@<TRIPOS>BOND
   1    1    2 am
   2    1    3 2
   3    1    4 1
   4    2    5 1
   5    2   29 1
   6    4   25 1
   7    5    6 ar
   8    5   10 ar
   9    6    7 ar
  10    6   30 1
  11    7    8 ar
  12    7   31 1
  13    8    9 ar
  14    8   11 1
  15    9   10 ar
  16    9   32 1
  17   10   33 1
  18   11   12 1
  19   11   34 1
  20   11   35 1
  21   12   13 2
  22   12   14 am
  23   14   15 1
  24   14   36 1
  25   15   16 ar
  26   15   20 ar
  27   16   17 ar
  28   16   37 1
  29   17   18 ar
  30   17   38 1
  31   18   19 ar
  32   18   21 1
  33   19   20 ar
  34   19   39 1
  35   20   40 1
  36   21   22 1
  37   22   23 1
  38   22   24 1
  39   22   41 1
  40   25   26 1
  41   25   28 1
  42   25   27 1
  43   26   42 1
  44   26   43 1
  45   26   44 1
  46   27   45 1
  47   27   46 1
  48   27   47 1
  49   28   48 1
  50   28   49 1
  51   28   50 1

#	End of record

