#	Name: ASD07930125
#	Creating user name:	WinNT
#	Creation time:	15. 06. 2019 21:11

#	Modifying user name:	WinNT
#	Modification time:	15. 06. 2019 21:11

#	Program:	/corina/corina34_cracker 3.40 0067  02.08.2006

@<TRIPOS>MOLECULE
ASD07930125
  60   64    0    0    0
SMALL
NO_CHARGES


@<TRIPOS>ATOM
   1 C1             0.5252     1.7530    -1.6922 C.2     
   2 C2             0.5738     0.2788    -1.5757 C.2     
   3 N3             1.4485     2.3814    -2.4969 N.am    
   4 N4             1.7332    -0.3572    -1.8693 N.am    
   5 C5             2.9018     0.4460    -2.2565 C.3     
   6 C6             2.4354     1.5577    -3.2082 C.3     
   7 C7            -0.4187     2.4666    -1.0199 C.2     
   8 C8            -0.4675     3.8622    -1.1256 C.2     
   9 C9             0.4448     4.5104    -1.9124 C.2     
  10 C10            1.4471     3.7191    -2.6303 C.2     
  11 O11           -0.4062    -0.3486    -1.2233 O.2     
  12 O12            2.2714     4.2681    -3.3415 O.2     
  13 C13            1.3763     6.7693    -1.6144 C.2     
  14 N14            0.9936     7.9834    -1.9023 N.2     
  15 C15           -0.2036     7.9408    -2.5062 C.2     
  16 C16           -0.5825     6.6521    -2.5988 C.2     
  17 N17            0.4173     5.9025    -2.0339 N.pl3   
  18 C18           -0.9889     9.1301    -2.9958 C.3     
  19 C19            1.8206    -1.8180    -1.8028 C.3     
  20 C20            0.9479    -2.4316    -2.8995 C.3     
  21 C21            1.3315    -2.2964    -0.4343 C.3     
  22 O22           -0.4266    -2.1513    -2.6271 O.3     
  23 C23           -1.3439    -2.6652    -3.4888 C.ar    
  24 C24           -2.6987    -2.5261    -3.2249 C.ar    
  25 C25           -3.6297    -3.0484    -4.1015 C.ar    
  26 C26           -3.2112    -3.7109    -5.2432 C.ar    
  27 C27           -1.8595    -3.8505    -5.5078 C.ar    
  28 C28           -0.9262    -3.3240    -4.6354 C.ar    
  29 F29           -4.1227    -4.2220    -6.0993 F       
  30 C30           -3.1546    -1.8060    -1.9820 C.3     
  31 C31           -4.0978    -2.5542    -1.0378 C.3     
  32 C32           -2.6395    -2.3226    -0.6371 C.3     
  33 C33           -3.3542    -0.2963    -2.1299 C.3     
  34 F34           -5.0764    -1.8054    -0.3754 F       
  35 F35           -4.4710    -3.8545    -1.3943 F       
  36 H36            3.3520     0.8892    -1.3683 H       
  37 H37            3.6302    -0.1876    -2.7625 H       
  38 H38            1.9774     1.1166    -4.0934 H       
  39 H39            3.2863     2.1729    -3.5008 H       
  40 H40           -1.1372     1.9518    -0.3993 H       
  41 H41           -1.2198     4.4224    -0.5904 H       
  42 H42            2.3021     6.4986    -1.1286 H       
  43 H43           -1.4981     6.2802    -3.0344 H       
  44 H44           -0.7149     9.3463    -4.0284 H       
  45 H45           -2.0549     8.9090    -2.9415 H       
  46 H46           -0.7651     9.9953    -2.3717 H       
  47 H47            2.8559    -2.1270    -1.9470 H       
  48 H48            1.2218    -2.0036    -3.8638 H       
  49 H49            1.1006    -3.5106    -2.9243 H       
  50 H50            0.2961    -1.9875    -0.2902 H       
  51 H51            1.3965    -3.3834    -0.3849 H       
  52 H52            1.9532    -1.8593     0.3469 H       
  53 H53           -4.6845    -2.9402    -3.8963 H       
  54 H54           -1.5345    -4.3675    -6.3985 H       
  55 H55            0.1282    -3.4294    -4.8442 H       
  56 H56           -1.9708    -3.1833    -0.6513 H       
  57 H57           -2.4425    -1.5868     0.1426 H       
  58 H58           -4.0554    -0.1002    -2.9411 H       
  59 H59           -3.7515     0.1105    -1.1999 H       
  60 H60           -2.3979     0.1764    -2.3539 H       
@<TRIPOS>BOND
   1    1    2 1
   2    1    3 1
   3    1    7 2
   4    2    4 am
   5    2   11 2
   6    3    6 1
   7    3   10 am
   8    4    5 1
   9    4   19 1
  10    5    6 1
  11    5   36 1
  12    5   37 1
  13    6   38 1
  14    6   39 1
  15    7    8 1
  16    7   40 1
  17    8    9 2
  18    8   41 1
  19    9   10 1
  20    9   17 1
  21   10   12 2
  22   13   14 2
  23   13   17 1
  24   13   42 1
  25   14   15 1
  26   15   16 2
  27   15   18 1
  28   16   17 1
  29   16   43 1
  30   18   44 1
  31   18   45 1
  32   18   46 1
  33   19   20 1
  34   19   21 1
  35   19   47 1
  36   20   22 1
  37   20   48 1
  38   20   49 1
  39   21   50 1
  40   21   51 1
  41   21   52 1
  42   22   23 1
  43   23   24 ar
  44   23   28 ar
  45   24   25 ar
  46   24   30 1
  47   25   26 ar
  48   25   53 1
  49   26   27 ar
  50   26   29 1
  51   27   28 ar
  52   27   54 1
  53   28   55 1
  54   30   31 1
  55   30   32 1
  56   30   33 1
  57   31   32 1
  58   31   34 1
  59   31   35 1
  60   32   56 1
  61   32   57 1
  62   33   58 1
  63   33   59 1
  64   33   60 1

#	End of record

