#	Name: ASD01813875
#	Creating user name:	WinNT
#	Creation time:	15. 06. 2019 19:31

#	Modifying user name:	WinNT
#	Modification time:	15. 06. 2019 19:31

#	Program:	/corina/corina34_cracker 3.40 0067  02.08.2006

@<TRIPOS>MOLECULE
ASD01813875
  58   61    0    0    0
SMALL
NO_CHARGES


@<TRIPOS>ATOM
   1 C1            -0.9943    -0.2910     0.8567 C.2     
   2 C2            -0.6636    -1.6360     0.6433 C.2     
   3 C3             0.6480    -1.9968     0.5401 C.2     
   4 C4             1.6453    -1.0134     0.6495 C.2     
   5 N5             1.2938     0.2925     0.8583 N.am    
   6 C6            -0.0203     0.6414     0.9594 C.2     
   7 C7             2.9939    -1.3816     0.5439 C.2     
   8 C8             3.9706    -0.4343     0.6491 C.2     
   9 C9             3.6055     0.9077     0.8633 C.2     
  10 C10            2.2408     1.2464     0.9655 C.2     
  11 O11            1.9153     2.4069     1.1506 O.2     
  12 C12            4.6343     1.9435     0.9803 C.2     
  13 O13            4.2778     3.2282     1.1855 O.3     
  14 O14            5.8104     1.6453     0.8924 O.2     
  15 C15            3.3652    -2.8241     0.3145 C.3     
  16 N16            3.5515    -3.0590    -1.1236 N.3     
  17 C17            4.1414    -4.3825    -1.3689 C.3     
  18 C18            4.2453    -4.6201    -2.8773 C.3     
  19 N19            5.0651    -3.5609    -3.4821 N.3     
  20 C20            4.4752    -2.2375    -3.2367 C.3     
  21 C21            4.3713    -1.9999    -1.7284 C.3     
  22 C22            5.2427    -3.7848    -4.8522 C.ar    
  23 C23            4.2254    -3.4669    -5.7495 C.ar    
  24 C24            4.4066    -3.6906    -7.1042 C.ar    
  25 C25            5.5947    -4.2287    -7.5637 C.ar    
  26 C26            6.6047    -4.5445    -6.6740 C.ar    
  27 C27            6.4342    -4.3186    -5.3211 C.ar    
  28 C28            4.8965    -5.9802    -3.1361 C.3     
  29 C29            2.8458    -4.5978    -3.4951 C.3     
  30 O30            3.0570    -2.9385    -5.2960 O.3     
  31 C31            2.0588    -2.6372    -6.2732 C.3     
  32 H32           -2.0307     0.0026     0.9350 H       
  33 H33           -1.4411    -2.3812     0.5615 H       
  34 H34            0.9173    -3.0297     0.3759 H       
  35 H35           -0.2866     1.6750     1.1242 H       
  36 H36            5.0114    -0.7114     0.5694 H       
  37 H37            4.9921     3.8761     1.2561 H       
  38 H38            4.2919    -3.0491     0.8425 H       
  39 H39            2.5688    -3.4680     0.6877 H       
  40 H40            5.1359    -4.4254    -0.9246 H       
  41 H41            3.5099    -5.1505    -0.9224 H       
  42 H42            5.1068    -1.4694    -3.6832 H       
  43 H43            3.4808    -2.1946    -3.6810 H       
  44 H44            3.9074    -1.0309    -1.5440 H       
  45 H45            5.3684    -2.0157    -1.2882 H       
  46 H46            3.6196    -3.4450    -7.8019 H       
  47 H47            5.7338    -4.4031    -8.6204 H       
  48 H48            7.5309    -4.9645    -7.0375 H       
  49 H49            7.2250    -4.5658    -4.6283 H       
  50 H50            4.3489    -6.7536    -2.5975 H       
  51 H51            4.8743    -6.1962    -4.2042 H       
  52 H52            5.9302    -5.9596    -2.7909 H       
  53 H53            2.4156    -3.6024    -3.3846 H       
  54 H54            2.9119    -4.8497    -4.5535 H       
  55 H55            2.2128    -5.3256    -2.9873 H       
  56 H56            1.1800    -2.2229    -5.7791 H       
  57 H57            2.4531    -1.9101    -6.9831 H       
  58 H58            1.7820    -3.5488    -6.8029 H       
@<TRIPOS>BOND
   1    1    2 1
   2    1    6 2
   3    1   32 1
   4    2    3 2
   5    2   33 1
   6    3    4 1
   7    3   34 1
   8    4    5 1
   9    4    7 2
  10    5    6 1
  11    5   10 am
  12    6   35 1
  13    7    8 1
  14    7   15 1
  15    8    9 2
  16    8   36 1
  17    9   10 1
  18    9   12 1
  19   10   11 2
  20   12   13 1
  21   12   14 2
  22   13   37 1
  23   15   16 1
  24   15   38 1
  25   15   39 1
  26   16   17 1
  27   16   21 1
  28   17   18 1
  29   17   40 1
  30   17   41 1
  31   18   19 1
  32   18   28 1
  33   18   29 1
  34   19   20 1
  35   19   22 1
  36   20   21 1
  37   20   42 1
  38   20   43 1
  39   21   44 1
  40   21   45 1
  41   22   23 ar
  42   22   27 ar
  43   23   24 ar
  44   23   30 1
  45   24   25 ar
  46   24   46 1
  47   25   26 ar
  48   25   47 1
  49   26   27 ar
  50   26   48 1
  51   27   49 1
  52   28   50 1
  53   28   51 1
  54   28   52 1
  55   29   53 1
  56   29   54 1
  57   29   55 1
  58   30   31 1
  59   31   56 1
  60   31   57 1
  61   31   58 1

#	End of record

