#	Name: ASD00170404
#	Creating user name:	WinNT
#	Creation time:	15. 06. 2019 18:32

#	Modifying user name:	WinNT
#	Modification time:	15. 06. 2019 18:32

#	Program:	/corina/corina34_cracker 3.40 0067  02.08.2006

@<TRIPOS>MOLECULE
ASD00170404
  50   52    0    0    0
SMALL
NO_CHARGES


@<TRIPOS>ATOM
   1 C1            -0.4723     0.9556    -1.0623 C.2     
   2 C2            -0.0110    -0.2508    -0.5822 C.2     
   3 C3            -1.0562    -1.0574     0.0015 C.2     
   4 C4            -2.2578    -0.4688    -0.0433 C.2     
   5 S5            -2.1493     1.1095    -0.8019 S.3     
   6 C6            -0.8195    -2.4208     0.5984 C.3     
   7 C7            -3.5047    -1.0648     0.4800 C.ar    
   8 C8            -4.3265    -0.3310     1.3375 C.ar    
   9 C9            -5.4890    -0.8934     1.8224 C.ar    
  10 C10           -5.8413    -2.1817     1.4608 C.ar    
  11 C11           -5.0313    -2.9144     0.6113 C.ar    
  12 C12           -3.8689    -2.3620     0.1146 C.ar    
  13 N13            0.3168     1.9108    -1.6659 N.pl3   
  14 C14            1.3895    -0.6697    -0.6561 C.2     
  15 C15            1.8600    -1.4774    -1.8017 C.ar    
  16 O16            2.1671    -0.3531     0.2258 O.2     
  17 C17            3.2152    -1.7873    -1.9312 C.ar    
  18 C18            3.6481    -2.5409    -3.0018 C.ar    
  19 C19            2.7415    -2.9899    -3.9479 C.ar    
  20 C20            1.3958    -2.6857    -3.8248 C.ar    
  21 C21            0.9501    -1.9381    -2.7552 C.ar    
  22 Cl22           3.2941    -3.9372    -5.2936 Cl      
  23 N23           -0.0674    -2.2823     1.8526 N.3     
  24 C24           -0.9437    -1.8407     2.9459 C.3     
  25 C25            0.6147    -3.5365     2.1986 C.3     
  26 C26            1.8486    -3.7078     1.3104 C.3     
  27 C27           -1.1827    -0.3339     2.8309 C.3     
  28 H28           -1.7773    -2.9004     0.8001 H       
  29 H29           -0.2485    -3.0300    -0.1023 H       
  30 H30           -4.0525     0.6745     1.6208 H       
  31 H31           -6.1255    -0.3271     2.4861 H       
  32 H32           -6.7523    -2.6174     1.8436 H       
  33 H33           -5.3118    -3.9196     0.3333 H       
  34 H34           -3.2378    -2.9349    -0.5486 H       
  35 H35            1.2780     1.7883    -1.7107 H       
  36 H36           -0.0890     2.7057    -2.0459 H       
  37 H37            3.9231    -1.4372    -1.1945 H       
  38 H38            4.6961    -2.7813    -3.1030 H       
  39 H39            0.6936    -3.0382    -4.5658 H       
  40 H40           -0.0994    -1.7018    -2.6601 H       
  41 H41           -1.8968    -2.3656     2.8822 H       
  42 H42           -0.4705    -2.0616     3.9026 H       
  43 H43            0.9210    -3.5070     3.2443 H       
  44 H44           -0.0646    -4.3746     2.0425 H       
  45 H45            2.5620    -2.9113     1.5219 H       
  46 H46            2.3114    -4.6735     1.5137 H       
  47 H47            1.5515    -3.6607     0.2627 H       
  48 H48           -0.2255     0.1803     2.7443 H       
  49 H49           -1.7868    -0.1282     1.9472 H       
  50 H50           -1.7061     0.0198     3.7192 H       
@<TRIPOS>BOND
   1    1    2 2
   2    1   13 1
   3    1    5 1
   4    2    3 1
   5    2   14 1
   6    3    4 2
   7    3    6 1
   8    4    5 1
   9    4    7 1
  10    6   23 1
  11    6   28 1
  12    6   29 1
  13    7    8 ar
  14    7   12 ar
  15    8    9 ar
  16    8   30 1
  17    9   10 ar
  18    9   31 1
  19   10   11 ar
  20   10   32 1
  21   11   12 ar
  22   11   33 1
  23   12   34 1
  24   13   35 1
  25   13   36 1
  26   14   15 1
  27   14   16 2
  28   15   17 ar
  29   15   21 ar
  30   17   18 ar
  31   17   37 1
  32   18   19 ar
  33   18   38 1
  34   19   20 ar
  35   19   22 1
  36   20   21 ar
  37   20   39 1
  38   21   40 1
  39   23   24 1
  40   23   25 1
  41   24   27 1
  42   24   41 1
  43   24   42 1
  44   25   26 1
  45   25   43 1
  46   25   44 1
  47   26   45 1
  48   26   46 1
  49   26   47 1
  50   27   48 1
  51   27   49 1
  52   27   50 1

#	End of record

