#	Name: ASD01150678
#	Creating user name:	WinNT
#	Creation time:	15. 06. 2019 19:04

#	Modifying user name:	WinNT
#	Modification time:	15. 06. 2019 19:04

#	Program:	/corina/corina34_cracker 3.40 0067  02.08.2006

@<TRIPOS>MOLECULE
ASD01150678
  46   49    0    0    0
SMALL
NO_CHARGES


@<TRIPOS>ATOM
   1 C1            -0.0130     1.4722    -0.1346 C.2     
   2 C2            -0.8554     1.3722     1.1110 C.3     
   3 C3             3.7148     3.4453    -0.0109 C.ar    
   4 C4             2.5849     4.2169    -0.2816 C.ar    
   5 C5             1.3184     3.5748    -0.3275 C.ar    
   6 C6             1.2664     2.1859    -0.0984 C.ar    
   7 C7             2.4593     1.4978     0.1651 C.ar    
   8 N8             3.6060     2.1273     0.2002 N.ar    
   9 C9             2.9002     5.6266    -0.4848 C.2     
  10 C10            4.1985     5.9113    -0.3732 C.2     
  11 S11            5.1411     4.4741    -0.0177 S.3     
  12 C12            4.7875     7.3018    -0.5390 C.3     
  13 C13            3.7616     8.1909    -1.2457 C.3     
  14 C14            2.4142     8.0612    -0.5288 C.3     
  15 C15            1.8361     6.6707    -0.7971 C.3     
  16 C16            2.4202     0.0117     0.4121 C.3     
  17 C17            0.0882     4.3438    -0.6076 C.ar    
  18 C18           -0.5036     4.2823    -1.8714 C.ar    
  19 C19           -1.6509     5.0004    -2.1284 C.ar    
  20 C20           -2.2190     5.7854    -1.1327 C.ar    
  21 C21           -1.6332     5.8497     0.1255 C.ar    
  22 C22           -0.4893     5.1297     0.3924 C.ar    
  23 O23           -3.3497     6.4921    -1.3902 O.3     
  24 C24           -3.8806     7.2785    -0.3216 C.3     
  25 F25           -2.0473     0.7020     0.8152 F       
  26 F26           -0.1538     0.6646     2.0929 F       
  27 F27           -1.1472     2.6572     1.5810 F       
  28 O28           -0.3917     0.9576    -1.1660 O.2     
  29 H29            5.0196     7.7194     0.4408 H       
  30 H30            5.6961     7.2447    -1.1385 H       
  31 H31            4.0939     9.2285    -1.2131 H       
  32 H32            3.6554     7.8723    -2.2827 H       
  33 H33            2.5574     8.1957     0.5434 H       
  34 H34            1.7274     8.8200    -0.9038 H       
  35 H35            1.5440     6.5925    -1.8443 H       
  36 H36            0.9665     6.5076    -0.1604 H       
  37 H37            2.4410    -0.5158    -0.5415 H       
  38 H38            3.2849    -0.2804     1.0080 H       
  39 H39            1.5063    -0.2435     0.9486 H       
  40 H40           -0.0621     3.6729    -2.6461 H       
  41 H41           -2.1090     4.9534    -3.1053 H       
  42 H42           -2.0775     6.4616     0.8966 H       
  43 H43           -0.0371     5.1766     1.3720 H       
  44 H44           -4.7814     7.7905    -0.6601 H       
  45 H45           -4.1257     6.6302     0.5196 H       
  46 H46           -3.1399     8.0146    -0.0094 H       
@<TRIPOS>BOND
   1    1    2 1
   2    1    6 1
   3    1   28 2
   4    2   25 1
   5    2   26 1
   6    2   27 1
   7    3    4 ar
   8    3    8 ar
   9    3   11 1
  10    4    5 ar
  11    4    9 1
  12    5    6 ar
  13    5   17 1
  14    6    7 ar
  15    7    8 ar
  16    7   16 1
  17    9   10 2
  18    9   15 1
  19   10   11 1
  20   10   12 1
  21   12   13 1
  22   12   29 1
  23   12   30 1
  24   13   14 1
  25   13   31 1
  26   13   32 1
  27   14   15 1
  28   14   33 1
  29   14   34 1
  30   15   35 1
  31   15   36 1
  32   16   37 1
  33   16   38 1
  34   16   39 1
  35   17   18 ar
  36   17   22 ar
  37   18   19 ar
  38   18   40 1
  39   19   20 ar
  40   19   41 1
  41   20   21 ar
  42   20   23 1
  43   21   22 ar
  44   21   42 1
  45   22   43 1
  46   23   24 1
  47   24   44 1
  48   24   45 1
  49   24   46 1

#	End of record

