#	Name: ASD00431503
#	Creating user name:	WinNT
#	Creation time:	15. 06. 2019 18:35

#	Modifying user name:	WinNT
#	Modification time:	15. 06. 2019 18:35

#	Program:	/corina/corina34_cracker 3.40 0067  02.08.2006

@<TRIPOS>MOLECULE
ASD00431503
  55   59    0    0    0
SMALL
NO_CHARGES


@<TRIPOS>ATOM
   1 C1            -0.6306     1.7051    -0.0855 C.2     
   2 N2            -0.4932     0.3669    -0.0904 N.am    
   3 C3             0.8045     0.0139    -0.1261 C.2     
   4 C4             1.6263     1.2424    -0.1474 C.ar    
   5 C5             2.9882     1.4952    -0.1839 C.ar    
   6 C6             3.4441     2.8041    -0.1948 C.ar    
   7 C7             2.5499     3.8579    -0.1695 C.ar    
   8 C8             1.1848     3.6202    -0.1329 C.ar    
   9 C9             0.7145     2.3169    -0.1216 C.ar    
  10 O10           -1.6838     2.3094    -0.0608 O.2     
  11 O11            1.2296    -1.1236    -0.1380 O.2     
  12 C12           -1.6096    -0.5812    -0.0603 C.3     
  13 C13           -1.4972    -1.4621     1.1855 C.3     
  14 O14           -0.4722    -1.9653    -1.8690 O.3     
  15 N15           -0.7449    -2.6202    -2.8481 N.2     
  16 C16           -2.0393    -2.6359    -3.0673 C.2     
  17 C17           -2.6239    -1.8504    -2.0316 C.2     
  18 C18           -1.5668    -1.4469    -1.2932 C.2     
  19 S19           -4.4868    -3.3308    -4.4363 S.3     
  20 C20           -4.2805    -4.3184    -5.8162 C.2     
  21 N21           -3.0229    -4.5806    -5.9984 N.2     
  22 C22           -2.1729    -4.0682    -5.1358 C.2     
  23 C23           -2.7461    -3.3272    -4.1644 C.2     
  24 O24           -5.2861    -4.7635    -6.6066 O.3     
  25 C25           -4.9569    -5.4584    -7.7279 C.ar    
  26 C26           -4.3731    -6.7123    -7.6206 C.ar    
  27 C27           -4.0386    -7.4180    -8.7597 C.ar    
  28 C28           -4.2864    -6.8731   -10.0110 C.ar    
  29 C29           -4.8701    -5.6194   -10.1184 C.ar    
  30 C30           -5.2099    -4.9160    -8.9794 C.ar    
  31 O31           -3.9567    -7.5678   -11.1324 O.3     
  32 C32           -4.3124    -6.9822   -12.3864 C.3     
  33 C33           -3.4169    -7.5527   -13.4881 C.3     
  34 C34           -5.7751    -7.3015   -12.7018 C.3     
  35 H35            3.6915     0.6758    -0.2034 H       
  36 H36            4.5054     3.0021    -0.2229 H       
  37 H37            2.9174     4.8734    -0.1780 H       
  38 H38            0.4907     4.4474    -0.1129 H       
  39 H39           -2.5513    -0.0329    -0.0339 H       
  40 H40           -1.5281    -0.8360     2.0772 H       
  41 H41           -2.3278    -2.1675     1.2079 H       
  42 H42           -0.5555    -2.0104     1.1591 H       
  43 H43           -3.6691    -1.6292    -1.8737 H       
  44 H44           -1.1065    -4.2270    -5.1993 H       
  45 H45           -4.1798    -7.1364    -6.6463 H       
  46 H46           -3.5838    -8.3940    -8.6762 H       
  47 H47           -5.0627    -5.1951   -11.0927 H       
  48 H48           -5.6684    -3.9417    -9.0631 H       
  49 H49           -4.1797    -5.9016   -12.3335 H       
  50 H50           -3.5497    -8.6333   -13.5410 H       
  51 H51           -3.6883    -7.1060   -14.4446 H       
  52 H52           -2.3749    -7.3252   -13.2634 H       
  53 H53           -6.4131    -6.8951   -11.9170 H       
  54 H54           -6.0465    -6.8548   -13.6583 H       
  55 H55           -5.9079    -8.3821   -12.7547 H       
@<TRIPOS>BOND
   1    1    2 am
   2    1    9 1
   3    1   10 2
   4    2    3 am
   5    2   12 1
   6    3    4 1
   7    3   11 2
   8    4    5 ar
   9    4    9 ar
  10    5    6 ar
  11    5   35 1
  12    6    7 ar
  13    6   36 1
  14    7    8 ar
  15    7   37 1
  16    8    9 ar
  17    8   38 1
  18   12   13 1
  19   12   18 1
  20   12   39 1
  21   13   40 1
  22   13   41 1
  23   13   42 1
  24   14   15 1
  25   14   18 1
  26   15   16 2
  27   16   17 1
  28   16   23 1
  29   17   18 2
  30   17   43 1
  31   19   20 1
  32   19   23 1
  33   20   21 2
  34   20   24 1
  35   21   22 1
  36   22   23 2
  37   22   44 1
  38   24   25 1
  39   25   26 ar
  40   25   30 ar
  41   26   27 ar
  42   26   45 1
  43   27   28 ar
  44   27   46 1
  45   28   29 ar
  46   28   31 1
  47   29   30 ar
  48   29   47 1
  49   30   48 1
  50   31   32 1
  51   32   33 1
  52   32   34 1
  53   32   49 1
  54   33   50 1
  55   33   51 1
  56   33   52 1
  57   34   53 1
  58   34   54 1
  59   34   55 1

#	End of record

