#	Name: ASD05313126
#	Creating user name:	WinNT
#	Creation time:	15. 06. 2019 20:58

#	Modifying user name:	WinNT
#	Modification time:	15. 06. 2019 20:58

#	Program:	/corina/corina34_cracker 3.40 0067  02.08.2006

@<TRIPOS>MOLECULE
ASD05313126
  38   41    0    0    0
SMALL
NO_CHARGES


@<TRIPOS>ATOM
   1 C1            -0.0722     0.8169     1.0244 C.2     
   2 C2             0.1139    -0.6193     0.5967 C.3     
   3 N3             0.9306     1.7305     1.0507 N.pl3   
   4 N4             1.4570    -0.7185    -0.0052 N.am    
   5 C5             2.5714    -0.0370     0.6708 C.3     
   6 C6             2.3171     1.4751     0.6643 C.3     
   7 N7            -0.9039     2.6398     1.7088 N.2     
   8 N8            -1.1569     1.4078     1.4272 N.2     
   9 C9             0.3721     2.8900     1.4955 C.2     
  10 C10            1.0647     4.1801     1.7027 C.ar    
  11 C11            0.3475     5.2855     2.1671 C.ar    
  12 C12            1.0126     6.4870     2.3563 C.ar    
  13 C13            2.3701     6.5436     2.0754 C.ar    
  14 C14            3.0173     5.4098     1.6184 C.ar    
  15 N15            2.3649     4.2780     1.4513 N.ar    
  16 F16           -0.9743     5.1852     2.4275 F       
  17 C17            1.6574    -1.4141    -1.1421 C.2     
  18 O18            2.7490    -1.4033    -1.6769 O.2     
  19 C19            0.5501    -2.1899    -1.7385 C.ar    
  20 C20            0.3185    -2.1378    -3.1155 C.ar    
  21 C21           -0.7184    -2.8658    -3.6654 C.ar    
  22 C22           -1.5261    -3.6440    -2.8561 C.ar    
  23 C23           -1.3019    -3.6992    -1.4917 C.ar    
  24 C24           -0.2658    -2.9827    -0.9296 C.ar    
  25 Cl25           1.3309    -1.1605    -4.1321 Cl      
  26 H26            0.0450    -1.2774     1.4629 H       
  27 H27           -0.6441    -0.8898    -0.1385 H       
  28 H28            2.6434    -0.3897     1.6997 H       
  29 H29            3.5020    -0.2520     0.1455 H       
  30 H30            2.4951     1.8700    -0.3359 H       
  31 H31            2.9880     1.9604     1.3732 H       
  32 H32            0.4859     7.3594     2.7138 H       
  33 H33            2.9167     7.4650     2.2121 H       
  34 H34            4.0739     5.4522     1.3990 H       
  35 H35           -0.8992    -2.8269    -4.7295 H       
  36 H36           -2.3359    -4.2110    -3.2910 H       
  37 H37           -1.9371    -4.3085    -0.8658 H       
  38 H38           -0.0893    -3.0312     0.1347 H       
@<TRIPOS>BOND
   1    1    2 1
   2    1    3 1
   3    1    8 2
   4    2    4 1
   5    2   26 1
   6    2   27 1
   7    3    6 1
   8    3    9 1
   9    4    5 1
  10    4   17 am
  11    5    6 1
  12    5   28 1
  13    5   29 1
  14    6   30 1
  15    6   31 1
  16    7    8 1
  17    7    9 2
  18    9   10 1
  19   10   11 ar
  20   10   15 ar
  21   11   12 ar
  22   11   16 1
  23   12   13 ar
  24   12   32 1
  25   13   14 ar
  26   13   33 1
  27   14   15 ar
  28   14   34 1
  29   17   18 2
  30   17   19 1
  31   19   20 ar
  32   19   24 ar
  33   20   21 ar
  34   20   25 1
  35   21   22 ar
  36   21   35 1
  37   22   23 ar
  38   22   36 1
  39   23   24 ar
  40   23   37 1
  41   24   38 1

#	End of record

