#	Name: ASD01881180
#	Creating user name:	WinNT
#	Creation time:	15. 06. 2019 19:42

#	Modifying user name:	WinNT
#	Modification time:	15. 06. 2019 19:42

#	Program:	/corina/corina34_cracker 3.40 0067  02.08.2006

@<TRIPOS>MOLECULE
ASD01881180
  58   61    0    0    0
SMALL
NO_CHARGES


@<TRIPOS>ATOM
   1 Cl1            7.6280     4.9011     1.9528 Cl      
   2 N2            -0.0332     1.2614    -0.1624 N.ar    
   3 C3             0.0480    -0.0518    -0.2012 C.ar    
   4 N4             1.1952    -0.6837    -0.0485 N.ar    
   5 C5             2.3211    -0.0165     0.1513 C.ar    
   6 C6             2.2868     1.3663     0.1996 C.ar    
   7 C7             1.0547     2.0042     0.0344 C.ar    
   8 C8             3.5457     2.1633     0.4254 C.3     
   9 O9             4.2290     2.3368    -0.8175 O.3     
  10 C10            5.3906     3.0380    -0.7894 C.ar    
  11 C11            6.1068     3.2440    -1.9650 C.ar    
  12 C12            7.2813     3.9535    -1.9364 C.ar    
  13 C13            7.7656     4.4729    -0.7309 C.ar    
  14 C14            7.0420     4.2639     0.4480 C.ar    
  15 C15            5.8603     3.5541     0.4117 C.ar    
  16 C16            8.2759     4.3478    -2.9996 C.3     
  17 N17            9.3275     5.1083    -2.3147 N.am    
  18 C18            9.0286     5.1778    -1.0062 C.2     
  19 O19            9.7055     5.7423    -0.1685 O.2     
  20 C20            0.9600     3.4832     0.0766 C.ar    
  21 C21           -0.0607     4.0958     0.8041 C.ar    
  22 C22           -0.1499     5.4693     0.8436 C.ar    
  23 C23            0.7826     6.2495     0.1552 C.ar    
  24 C24            1.8047     5.6348    -0.5726 C.ar    
  25 C25            1.8949     4.2612    -0.6064 C.ar    
  26 C26            0.6906     7.6780     0.1952 C.1     
  27 N27            0.6176     8.8112     0.2270 N.1     
  28 C28            4.2853    -0.9484    -1.0414 C.3     
  29 C29            3.6240    -0.7536     0.3245 C.3     
  30 C30           -1.4110    -1.0729    -1.9269 C.3     
  31 C31           -1.2063    -0.8563    -0.4262 C.3     
  32 C32           10.1872     7.1211    -3.4060 C.3     
  33 C33           10.5084     5.6956    -2.9524 C.3     
  34 H34            3.2889     3.1389     0.8382 H       
  35 H35            4.1918     1.6318     1.1241 H       
  36 H36            5.7388     2.8455    -2.8989 H       
  37 H37            5.3016     3.3927     1.3217 H       
  38 H38            8.6997     3.4578    -3.4649 H       
  39 H39            7.7927     4.9707    -3.7523 H       
  40 H40           -0.7814     3.4925     1.3361 H       
  41 H41           -0.9406     5.9433     1.4063 H       
  42 H42            2.5258     6.2369    -1.1054 H       
  43 H43            2.6849     3.7859    -1.1690 H       
  44 H44            5.2277    -1.4815    -0.9161 H       
  45 H45            3.6236    -1.5266    -1.6863 H       
  46 H46            4.4757     0.0244    -1.4949 H       
  47 H47            4.2857    -0.1753     0.9694 H       
  48 H48            3.4336    -1.7264     0.7780 H       
  49 H49           -0.5560    -1.6109    -2.3363 H       
  50 H50           -2.3182    -1.6548    -2.0895 H       
  51 H51           -1.5046    -0.1073    -2.4239 H       
  52 H52           -1.1127    -1.8219     0.0709 H       
  53 H53           -2.0613    -0.3183    -0.0167 H       
  54 H54            9.3629     7.0986    -4.1187 H       
  55 H55            9.9041     7.7222    -2.5419 H       
  56 H56           11.0659     7.5581    -3.8804 H       
  57 H57           11.3328     5.7182    -2.2397 H       
  58 H58           10.7915     5.0945    -3.8165 H       
@<TRIPOS>BOND
   1    1   14 1
   2    2    3 ar
   3    2    7 ar
   4    3    4 ar
   5    3   31 1
   6    4    5 ar
   7    5    6 ar
   8    5   29 1
   9    6    7 ar
  10    6    8 1
  11    7   20 1
  12    8    9 1
  13    8   34 1
  14    8   35 1
  15    9   10 1
  16   10   11 ar
  17   10   15 ar
  18   11   12 ar
  19   11   36 1
  20   12   13 ar
  21   12   16 1
  22   13   14 ar
  23   13   18 1
  24   14   15 ar
  25   15   37 1
  26   16   17 1
  27   16   38 1
  28   16   39 1
  29   17   18 am
  30   17   33 1
  31   18   19 2
  32   20   21 ar
  33   20   25 ar
  34   21   22 ar
  35   21   40 1
  36   22   23 ar
  37   22   41 1
  38   23   24 ar
  39   23   26 1
  40   24   25 ar
  41   24   42 1
  42   25   43 1
  43   26   27 3
  44   28   29 1
  45   28   44 1
  46   28   45 1
  47   28   46 1
  48   29   47 1
  49   29   48 1
  50   30   31 1
  51   30   49 1
  52   30   50 1
  53   30   51 1
  54   31   52 1
  55   31   53 1
  56   32   33 1
  57   32   54 1
  58   32   55 1
  59   32   56 1
  60   33   57 1
  61   33   58 1

#	End of record

