#	Name: ASD03730247
#	Creating user name:	WinNT
#	Creation time:	15. 06. 2019 20:44

#	Modifying user name:	WinNT
#	Modification time:	15. 06. 2019 20:44

#	Program:	/corina/corina34_cracker 3.40 0067  02.08.2006

@<TRIPOS>MOLECULE
ASD03730247
  58   63    0    0    0
SMALL
NO_CHARGES


@<TRIPOS>ATOM
   1 N1            -0.4817     1.1993     1.3605 N.3     
   2 C2            -0.4139    -0.2792     1.4303 C.3     
   3 O3             0.6678    -0.6060     0.5394 O.3     
   4 C4             1.5031     0.4736     0.5259 C.ar    
   5 C5             0.8272     1.5899     1.0169 C.ar    
   6 C6             2.8227     0.5934     0.1237 C.ar    
   7 C7             3.4774     1.8189     0.2009 C.ar    
   8 C8             2.7863     2.9272     0.6811 C.ar    
   9 C9             1.4741     2.8124     1.0907 C.ar    
  10 O10            4.7631     2.1417    -0.1217 O.3     
  11 C11            3.7390     4.0904     0.6137 C.3     
  12 C12            4.8676     3.5690    -0.2866 C.3     
  13 N13            3.2270     6.2880     0.9764 N.am    
  14 C14            3.0945     5.3221     0.0455 C.2     
  15 C15            4.2445     4.4952     1.9664 C.ar    
  16 C16            4.9249     3.8276     2.9753 C.ar    
  17 C17            5.2628     4.5025     4.1478 C.ar    
  18 C18            4.9172     5.8311     4.2966 C.ar    
  19 C19            4.2407     6.4943     3.2932 C.ar    
  20 C20            3.8979     5.8335     2.1147 C.ar    
  21 O21            2.5601     5.4272    -1.0383 O.2     
  22 C22           -0.8788     1.7698     2.6546 C.3     
  23 C23            0.2581     1.5883     3.6623 C.3     
  24 C24           -0.1554     2.1825     5.0102 C.3     
  25 C25            0.9815     2.0010     6.0179 C.3     
  26 C26            0.5680     2.5952     7.3658 C.3     
  27 C27            5.2912     2.3995     2.8068 C.ar    
  28 C28            6.1808     2.0197     1.8039 C.ar    
  29 C29            6.5183     0.6904     1.6512 C.ar    
  30 C30            5.9746    -0.2652     2.4925 C.ar    
  31 C31            5.0899     0.1071     3.4901 C.ar    
  32 C32            4.7510     1.4347     3.6548 C.ar    
  33 Cl33           6.4030    -1.9359     2.2954 Cl      
  34 H34           -0.1877    -0.6059     2.4453 H       
  35 H35           -1.3463    -0.7234     1.0816 H       
  36 H36            3.3484    -0.2717    -0.2528 H       
  37 H37            0.9500     3.6776     1.4692 H       
  38 H38            5.8365     3.9288     0.0596 H       
  39 H39            4.6966     3.8523    -1.3251 H       
  40 H40            2.8950     7.1930     0.8687 H       
  41 H41            5.7923     3.9882     4.9362 H       
  42 H42            5.1778     6.3546     5.2046 H       
  43 H43            3.9749     7.5331     3.4219 H       
  44 H44           -1.0910     2.8321     2.5337 H       
  45 H45           -1.7711     1.2601     3.0180 H       
  46 H46            0.4703     0.5260     3.7833 H       
  47 H47            1.1505     2.0980     3.2990 H       
  48 H48           -0.3676     3.2448     4.8893 H       
  49 H49           -1.0478     1.6728     5.3735 H       
  50 H50            1.1937     0.9387     6.1389 H       
  51 H51            1.8738     2.5107     5.6546 H       
  52 H52            0.3558     3.6575     7.2449 H       
  53 H53           -0.3244     2.0855     7.7291 H       
  54 H54            1.3779     2.4659     8.0837 H       
  55 H55            6.6052     2.7644     1.1469 H       
  56 H56            7.2075     0.3950     0.8739 H       
  57 H57            4.6678    -0.6421     4.1435 H       
  58 H58            4.0648     1.7248     4.4367 H       
@<TRIPOS>BOND
   1    1    2 1
   2    1    5 1
   3    1   22 1
   4    2    3 1
   5    2   34 1
   6    2   35 1
   7    3    4 1
   8    4    5 ar
   9    4    6 ar
  10    5    9 ar
  11    6    7 ar
  12    6   36 1
  13    7    8 ar
  14    7   10 1
  15    8    9 ar
  16    8   11 1
  17    9   37 1
  18   10   12 1
  19   11   12 1
  20   11   14 1
  21   11   15 1
  22   12   38 1
  23   12   39 1
  24   13   14 am
  25   13   20 1
  26   13   40 1
  27   14   21 2
  28   15   16 ar
  29   15   20 ar
  30   16   17 ar
  31   16   27 1
  32   17   18 ar
  33   17   41 1
  34   18   19 ar
  35   18   42 1
  36   19   20 ar
  37   19   43 1
  38   22   23 1
  39   22   44 1
  40   22   45 1
  41   23   24 1
  42   23   46 1
  43   23   47 1
  44   24   25 1
  45   24   48 1
  46   24   49 1
  47   25   26 1
  48   25   50 1
  49   25   51 1
  50   26   52 1
  51   26   53 1
  52   26   54 1
  53   27   28 ar
  54   27   32 ar
  55   28   29 ar
  56   28   55 1
  57   29   30 ar
  58   29   56 1
  59   30   31 ar
  60   30   33 1
  61   31   32 ar
  62   31   57 1
  63   32   58 1

#	End of record

