#	Name: ASD08070200
#	Creating user name:	WinNT
#	Creation time:	15. 06. 2019 21:14

#	Modifying user name:	WinNT
#	Modification time:	15. 06. 2019 21:14

#	Program:	/corina/corina34_cracker 3.40 0067  02.08.2006

@<TRIPOS>MOLECULE
ASD08070200
  32   33    0    0    0
SMALL
NO_CHARGES


@<TRIPOS>ATOM
   1 C1            -0.0167     1.3805     0.0096 C.ar    
   2 C2             0.0021    -0.0041     0.0020 C.ar    
   3 C3            -1.1849    -0.7157     0.0100 C.ar    
   4 C4            -2.4055    -0.0329     0.0258 C.ar    
   5 C5            -2.4163     1.3658     0.0334 C.ar    
   6 C6            -1.2211     2.0635     0.0306 C.ar    
   7 C7            -3.6754    -0.7843     0.0339 C.2     
   8 N8            -4.2667    -1.1208    -1.1296 N.am    
   9 F9            -3.5905     2.0338     0.0486 F       
  10 O10           -4.1883    -1.0998     1.0901 O.2     
  11 C11           -5.5275    -1.8668    -1.1215 C.3     
  12 C12           -6.7192    -0.8897    -1.0495 C.3     
  13 F13           -1.2295     3.4145     0.0379 F       
  14 C14            1.2803     2.1479     0.0014 C.3     
  15 F15            1.1820    -0.6619    -0.0137 F       
  16 F16           -1.1646    -2.0666     0.0021 F       
  17 C17           -5.6828    -2.6535    -2.4348 C.3     
  18 C18           -6.9635    -2.1271    -3.1150 C.3     
  19 C19           -7.1501    -0.7068    -2.5260 C.3     
  20 H20           -3.8575    -0.8690    -1.9722 H       
  21 H21           -5.5517    -2.5495    -0.2722 H       
  22 H22           -7.5319    -1.3217    -0.4657 H       
  23 H23           -6.4060     0.0631    -0.6227 H       
  24 H24            1.5831     2.3384    -1.0282 H       
  25 H25            1.1447     3.0961     0.5216 H       
  26 H26            2.0510     1.5642     0.5047 H       
  27 H27           -4.8202    -2.4803    -3.0781 H       
  28 H28           -5.7833    -3.7179    -2.2227 H       
  29 H29           -6.8286    -2.0773    -4.1955 H       
  30 H30           -7.8157    -2.7589    -2.8647 H       
  31 H31           -8.1932    -0.3967    -2.5884 H       
  32 H32           -6.5022     0.0093    -3.0316 H       
@<TRIPOS>BOND
   1    1    2 ar
   2    1   14 1
   3    1    6 ar
   4    2    3 ar
   5    2   15 1
   6    3    4 ar
   7    3   16 1
   8    4    5 ar
   9    4    7 1
  10    5    6 ar
  11    5    9 1
  12    6   13 1
  13    7    8 am
  14    7   10 2
  15    8   11 1
  16    8   20 1
  17   11   17 1
  18   11   12 1
  19   11   21 1
  20   12   19 1
  21   12   22 1
  22   12   23 1
  23   14   24 1
  24   14   25 1
  25   14   26 1
  26   17   18 1
  27   17   27 1
  28   17   28 1
  29   18   19 1
  30   18   29 1
  31   18   30 1
  32   19   31 1
  33   19   32 1

#	End of record

