#	Name: ASD06340102
#	Creating user name:	WinNT
#	Creation time:	15. 06. 2019 21:06

#	Modifying user name:	WinNT
#	Modification time:	15. 06. 2019 21:06

#	Program:	/corina/corina34_cracker 3.40 0067  02.08.2006

@<TRIPOS>MOLECULE
ASD06340102
  33   33    0    0    0
SMALL
NO_CHARGES


@<TRIPOS>ATOM
   1 S1            -0.0210     1.6939     0.0114 S.3     
   2 N2             0.0021    -0.0041     0.0020 N.am    
   3 C3             1.2962    -0.3594    -0.0122 C.2     
   4 N4             2.1856     0.6226    -0.0155 N.am    
   5 C5             1.6912     1.8721    -0.0040 C.2     
   6 O6             1.6365    -1.5277    -0.0214 O.2     
   7 O7             2.3224     2.9128    -0.0052 O.2     
   8 C8             3.6269     0.3610    -0.0302 C.3     
   9 C9             4.1153     0.2773    -1.4777 C.3     
  10 C10            3.9443     1.6394    -2.1532 C.3     
  11 C11            5.5931    -0.1187    -1.4953 C.3     
  12 C12           -1.1568    -0.9002     0.0087 C.3     
  13 C13           -1.4972    -1.3045    -1.4271 C.3     
  14 C14           -2.7076    -2.2404    -1.4202 C.3     
  15 C15           -3.0480    -2.6446    -2.8560 C.3     
  16 H16            4.1482     1.1691     0.4830 H       
  17 H17            3.8302    -0.5822     0.4770 H       
  18 H18            3.5324    -0.4706    -2.0152 H       
  19 H19            4.2923     1.5797    -3.1845 H       
  20 H20            2.8915     1.9215    -2.1407 H       
  21 H21            4.5273     2.3873    -1.6157 H       
  22 H22            5.7150    -1.0891    -1.0140 H       
  23 H23            5.9411    -0.1784    -2.5265 H       
  24 H24            6.1761     0.6291    -0.9578 H       
  25 H25           -0.9237    -1.7914     0.5914 H       
  26 H26           -2.0097    -0.3879     0.4538 H       
  27 H27           -1.7304    -0.4133    -2.0099 H       
  28 H28           -0.6443    -1.8168    -1.8723 H       
  29 H29           -2.4744    -3.1315    -0.8374 H       
  30 H30           -3.5605    -1.7281    -0.9750 H       
  31 H31           -3.2811    -1.7535    -3.4388 H       
  32 H32           -2.1950    -3.1569    -3.3011 H       
  33 H33           -3.9102    -3.3114    -2.8510 H       
@<TRIPOS>BOND
   1    1    2 1
   2    1    5 1
   3    2    3 am
   4    2   12 1
   5    3    4 am
   6    3    6 2
   7    4    5 am
   8    4    8 1
   9    5    7 2
  10    8    9 1
  11    8   16 1
  12    8   17 1
  13    9   10 1
  14    9   11 1
  15    9   18 1
  16   10   19 1
  17   10   20 1
  18   10   21 1
  19   11   22 1
  20   11   23 1
  21   11   24 1
  22   12   13 1
  23   12   25 1
  24   12   26 1
  25   13   14 1
  26   13   27 1
  27   13   28 1
  28   14   15 1
  29   14   29 1
  30   14   30 1
  31   15   31 1
  32   15   32 1
  33   15   33 1

#	End of record

