#	Name: ASD01411148
#	Creating user name:	WinNT
#	Creation time:	15. 06. 2019 19:19

#	Modifying user name:	WinNT
#	Modification time:	15. 06. 2019 19:19

#	Program:	/corina/corina34_cracker 3.40 0067  02.08.2006

@<TRIPOS>MOLECULE
ASD01411148
  87   92    0    0    0
SMALL
NO_CHARGES


@<TRIPOS>ATOM
   1 C1             0.1305     1.3414    -0.4465 C.ar    
   2 C2            -1.0953     1.9681    -0.6364 C.ar    
   3 C3            -2.2711     1.2618    -0.4826 C.ar    
   4 C4            -2.2368    -0.0819    -0.1371 C.ar    
   5 C5            -1.0023    -0.7207     0.0556 C.ar    
   6 C6             0.1823     0.0017    -0.1071 C.ar    
   7 O7             1.2830     2.0464    -0.6005 O.3     
   8 C8             1.5549     3.0263     0.2974 C.ar    
   9 N9            -3.4248    -0.7946     0.0185 N.am    
  10 C10           -3.9449    -0.9773     1.2484 C.2     
  11 C11           -5.1686    -1.8382     1.4288 C.3     
  12 O12           -3.4281    -0.4489     2.2100 O.2     
  13 C13           -5.4294    -2.0474     2.9218 C.3     
  14 C14           -6.3763    -1.1477     0.7919 C.3     
  15 C15           -7.6187    -2.0217     0.9750 C.3     
  16 C16           -7.8795    -2.2309     2.4680 C.3     
  17 C17           -6.6718    -2.9214     3.1049 C.3     
  18 C18           -9.1219    -3.1049     2.6511 C.3     
  19 N19            0.7646     3.1926     1.3453 N.ar    
  20 C20           -4.1079    -1.3449    -1.1548 C.3     
  21 C21           -3.1584    -2.2807    -1.9055 C.3     
  22 C22            2.6637     3.8418     0.1109 C.ar    
  23 C23            2.9303     4.8376     1.0346 C.ar    
  24 C24            2.0740     4.9828     2.1172 C.ar    
  25 C25            0.9929     4.1326     2.2423 C.ar    
  26 C26            2.3248     6.0528     3.1483 C.3     
  27 N27            1.6341     7.2830     2.7534 N.pl3   
  28 C28            0.3178     7.5695     3.0248 C.ar    
  29 C29           -4.5345    -0.2026    -2.0790 C.3     
  30 C30            0.0520     8.8389     2.4768 C.ar    
  31 C31            1.3015     9.2880     1.8604 C.2     
  32 C32            2.2070     8.3185     2.0649 C.2     
  33 N33           -0.6437     6.9087     3.6560 N.ar    
  34 C34           -1.8538     7.4085     3.7879 C.ar    
  35 C35           -2.1859     8.6524     3.2729 C.ar    
  36 C36           -1.2258     9.3887     2.6051 C.ar    
  37 C37           -3.8718    -2.8555    -3.1309 C.3     
  38 C38           -4.2984    -1.7132    -4.0551 C.3     
  39 C39           -5.2479    -0.7773    -3.3044 C.3     
  40 O40           -4.9647    -2.2500    -5.1996 O.3     
  41 C41           -4.8126    -1.4633    -6.3828 C.3     
  42 C42            3.5648     3.6447    -1.0809 C.3     
  43 F43            4.6014     4.5833    -1.0420 F       
  44 F44            4.1031     2.3538    -1.0501 F       
  45 F45            2.8262     3.8140    -2.2569 F       
  46 C46           -0.9556    -2.1473     0.4232 C.2     
  47 O47           -1.9853    -2.7481     0.6584 O.2     
  48 O48            0.2290    -2.7853     0.4984 O.3     
  49 H49           -1.1280     3.0135    -0.9054 H       
  50 H50           -3.2199     1.7560    -0.6312 H       
  51 H51            1.1362    -0.4831     0.0392 H       
  52 H52           -5.0075    -2.8037     0.9492 H       
  53 H53           -4.5690    -2.5394     3.3755 H       
  54 H54           -5.5905    -1.0819     3.4013 H       
  55 H55           -6.5374    -0.1821     1.2714 H       
  56 H56           -6.1905    -0.9986    -0.2717 H       
  57 H57           -8.4790    -1.5297     0.5213 H       
  58 H58           -7.4576    -2.9872     0.4955 H       
  59 H59           -8.0406    -1.2654     2.9476 H       
  60 H60           -6.5107    -3.8869     2.6254 H       
  61 H61           -6.8576    -3.0705     4.1685 H       
  62 H62           -8.9608    -4.0704     2.1716 H       
  63 H63           -9.3077    -3.2540     3.7148 H       
  64 H64           -9.9822    -2.6130     2.1975 H       
  65 H65           -4.9887    -1.9015    -0.8346 H       
  66 H66           -2.2775    -1.7242    -2.2257 H       
  67 H67           -2.8545    -3.0945    -1.2471 H       
  68 H68            3.7854     5.4866     0.9158 H       
  69 H69            0.3234     4.2417     3.0826 H       
  70 H70            1.9493     5.7200     4.1160 H       
  71 H71            3.3954     6.2443     3.2203 H       
  72 H72           -5.2109     0.4641    -1.5442 H       
  73 H73           -3.6537     0.3539    -2.3992 H       
  74 H74            1.4647    10.2224     1.3440 H       
  75 H75            3.2333     8.3479     1.7299 H       
  76 H76           -2.6065     6.8360     4.3095 H       
  77 H77           -3.1859     9.0423     3.3926 H       
  78 H78           -1.4568    10.3603     2.1939 H       
  79 H79           -3.1953    -3.5222    -3.6657 H       
  80 H80           -4.7526    -3.4120    -2.8107 H       
  81 H81           -3.4175    -1.1566    -4.3752 H       
  82 H82           -6.1287    -1.3339    -2.9842 H       
  83 H83           -5.5518     0.0365    -3.9628 H       
  84 H84           -5.3471    -1.9377    -7.2058 H       
  85 H85           -5.2199    -0.4668    -6.2115 H       
  86 H86           -3.7547    -1.3852    -6.6337 H       
  87 H87            0.2091    -3.7206     0.7432 H       
@<TRIPOS>BOND
   1    1    2 ar
   2    1    7 1
   3    1    6 ar
   4    2    3 ar
   5    2   49 1
   6    3    4 ar
   7    3   50 1
   8    4    5 ar
   9    4    9 1
  10    5    6 ar
  11    5   46 1
  12    6   51 1
  13    7    8 1
  14    8   22 ar
  15    8   19 ar
  16    9   10 am
  17    9   20 1
  18   10   11 1
  19   10   12 2
  20   11   13 1
  21   11   14 1
  22   11   52 1
  23   13   17 1
  24   13   53 1
  25   13   54 1
  26   14   15 1
  27   14   55 1
  28   14   56 1
  29   15   16 1
  30   15   57 1
  31   15   58 1
  32   16   17 1
  33   16   18 1
  34   16   59 1
  35   17   60 1
  36   17   61 1
  37   18   62 1
  38   18   63 1
  39   18   64 1
  40   19   25 ar
  41   20   21 1
  42   20   29 1
  43   20   65 1
  44   21   37 1
  45   21   66 1
  46   21   67 1
  47   22   23 ar
  48   22   42 1
  49   23   24 ar
  50   23   68 1
  51   24   25 ar
  52   24   26 1
  53   25   69 1
  54   26   27 1
  55   26   70 1
  56   26   71 1
  57   27   28 1
  58   27   32 1
  59   28   30 ar
  60   28   33 ar
  61   29   39 1
  62   29   72 1
  63   29   73 1
  64   30   31 1
  65   30   36 ar
  66   31   32 2
  67   31   74 1
  68   32   75 1
  69   33   34 ar
  70   34   35 ar
  71   34   76 1
  72   35   36 ar
  73   35   77 1
  74   36   78 1
  75   37   38 1
  76   37   79 1
  77   37   80 1
  78   38   39 1
  79   38   40 1
  80   38   81 1
  81   39   82 1
  82   39   83 1
  83   40   41 1
  84   41   84 1
  85   41   85 1
  86   41   86 1
  87   42   43 1
  88   42   44 1
  89   42   45 1
  90   46   47 2
  91   46   48 1
  92   48   87 1

#	End of record

