#	Name: ASD01883970
#	Creating user name:	WinNT
#	Creation time:	15. 06. 2019 19:47

#	Modifying user name:	WinNT
#	Modification time:	15. 06. 2019 19:47

#	Program:	/corina/corina34_cracker 3.40 0067  02.08.2006

@<TRIPOS>MOLECULE
ASD01883970
  44   45    0    0    0
SMALL
NO_CHARGES


@<TRIPOS>ATOM
   1 C1            -0.0170     1.4008     0.0097 C.2     
   2 C2             0.0021    -0.0041     0.0020 C.2     
   3 C3            -1.2235    -0.6971     0.0099 C.2     
   4 C4            -2.3887    -0.0099     0.0247 C.2     
   5 N5            -2.4085     1.3473     0.0318 N.am    
   6 C6            -1.2693     2.0641     0.0312 C.2     
   7 C7            -3.6960     2.0461     0.0468 C.3     
   8 C8            -4.1313     2.2821     1.4944 C.3     
   9 C9            -5.4760     3.0119     1.5101 C.3     
  10 C10           -5.9713     3.1375     2.9523 C.3     
  11 C11           -5.3060     4.4073     0.9060 C.3     
  12 O12           -1.3147     3.2824     0.0383 O.2     
  13 C13            1.2048     2.1476     0.0021 C.1     
  14 N14            2.1741     2.7401    -0.0040 N.1     
  15 C15            1.2850    -0.7408    -0.0146 C.ar    
  16 C16            1.6473    -1.5360     1.0701 C.ar    
  17 C17            2.8576    -2.2271     1.0461 C.ar    
  18 C18            3.6985    -2.1181    -0.0643 C.ar    
  19 C19            3.3329    -1.3275    -1.1359 C.ar    
  20 C20            2.1330    -0.6450    -1.1208 C.ar    
  21 C21            3.2504    -3.0726     2.1923 C.2     
  22 O22            2.5184    -3.1660     3.1571 O.2     
  23 O23            4.4204    -3.7398     2.1673 O.3     
  24 C24            4.7414    -4.5512     3.3279 C.3     
  25 H25           -1.2333    -1.7771     0.0039 H       
  26 H26           -3.3225    -0.5524     0.0307 H       
  27 H27           -3.5954     3.0042    -0.4631 H       
  28 H28           -4.4445     1.4399    -0.4635 H       
  29 H29           -4.2320     1.3240     2.0044 H       
  30 H30           -3.3829     2.8884     2.0047 H       
  31 H31           -6.2021     2.4484     0.9243 H       
  32 H32           -5.2452     3.7010     3.5381 H       
  33 H33           -6.9292     3.6574     2.9635 H       
  34 H34           -6.0924     2.1434     3.3827 H       
  35 H35           -4.9531     4.3179    -0.1214 H       
  36 H36           -6.2639     4.9272     0.9172 H       
  37 H37           -4.5798     4.9709     1.4918 H       
  38 H38            0.9937    -1.6164     1.9260 H       
  39 H39            4.6365    -2.6530    -0.0845 H       
  40 H40            3.9869    -1.2461    -1.9916 H       
  41 H41            1.8532    -0.0284    -1.9622 H       
  42 H42            4.7845    -3.9174     4.2137 H       
  43 H43            3.9729    -5.3124     3.4629 H       
  44 H44            5.7076    -5.0329     3.1785 H       
@<TRIPOS>BOND
   1    1    2 2
   2    1   13 1
   3    1    6 1
   4    2    3 1
   5    2   15 1
   6    3    4 2
   7    3   25 1
   8    4    5 1
   9    4   26 1
  10    5    7 1
  11    5    6 am
  12    6   12 2
  13    7    8 1
  14    7   27 1
  15    7   28 1
  16    8    9 1
  17    8   29 1
  18    8   30 1
  19    9   10 1
  20    9   11 1
  21    9   31 1
  22   10   32 1
  23   10   33 1
  24   10   34 1
  25   11   35 1
  26   11   36 1
  27   11   37 1
  28   13   14 3
  29   15   16 ar
  30   15   20 ar
  31   16   17 ar
  32   16   38 1
  33   17   18 ar
  34   17   21 1
  35   18   19 ar
  36   18   39 1
  37   19   20 ar
  38   19   40 1
  39   20   41 1
  40   21   22 2
  41   21   23 1
  42   23   24 1
  43   24   42 1
  44   24   43 1
  45   24   44 1

#	End of record

