#	Name: ASD06390019
#	Creating user name:	WinNT
#	Creation time:	15. 06. 2019 21:06

#	Modifying user name:	WinNT
#	Modification time:	15. 06. 2019 21:06

#	Program:	/corina/corina34_cracker 3.40 0067  02.08.2006

@<TRIPOS>MOLECULE
ASD06390019
  74   79    0    0    0
SMALL
NO_CHARGES


@<TRIPOS>ATOM
   1 C1             0.1049     1.5329     0.0758 C.3     
   2 C2             0.0018    -0.0049     0.0015 C.3     
   3 C3             1.4454    -0.4445    -0.0467 C.2     
   4 N4             2.2283     0.6183    -0.0221 N.2     
   5 C5             1.6034     1.7774     0.0236 C.2     
   6 C6             5.5110     4.3680    -0.0610 C.2     
   7 C7             4.1367     4.5167    -0.0747 C.2     
   8 C8             3.5637     3.2369    -0.0200 C.2     
   9 N9             4.5765     2.3096     0.0107 N.pl3   
  10 C10            5.7871     2.9698     0.0070 C.2     
  11 C11            2.1823     3.0261     0.0111 C.2     
  12 C12            8.6790    -0.7229     0.2592 C.2     
  13 C13            8.7386     0.6303     0.2885 C.2     
  14 C14            7.4050     1.1073     0.1311 C.2     
  15 N15            6.5952     0.0551     0.0385 N.2     
  16 C16            7.3162    -1.0720     0.0833 C.2     
  17 C17            7.0685     2.4690     0.0703 C.2     
  18 C18            3.3952    -3.5119    -0.2369 C.2     
  19 C19            4.7662    -3.7927    -0.2192 C.2     
  20 C20            5.4399    -2.5791    -0.1030 C.2     
  21 N21            4.5028    -1.5583    -0.0691 N.pl3   
  22 C22            3.2476    -2.1133    -0.1338 C.2     
  23 C23            1.8972    -1.7494    -0.1251 C.2     
  24 C24            6.8155    -2.3839    -0.0214 C.2     
  25 C25            3.3866     5.8222    -0.1374 C.3     
  26 C26            6.5071     5.4532    -0.1082 C.2     
  27 C27            7.4973     5.4855     0.7778 C.2     
  28 C28           -0.5918     2.1810    -1.1224 C.3     
  29 C29           -0.6919    -0.5613     1.2465 C.3     
  30 C30           -2.1461    -0.0868     1.2751 C.3     
  31 C31           -2.8629    -0.7334     2.4323 C.2     
  32 O32           -4.1586    -0.4626     2.6551 O.3     
  33 O33           -2.2713    -1.4956     3.1596 O.2     
  34 C34            1.0678    -3.0055    -0.2155 C.3     
  35 C35            2.0698    -4.1337    -0.3276 C.2     
  36 C36            5.3978    -5.1579    -0.3090 C.3     
  37 C37            9.8399    -1.6752     0.3873 C.3     
  38 C38            9.9778    -2.1180     1.8453 C.3     
  39 C39            9.9782     1.4705     0.4571 C.3     
  40 O40            1.8261    -5.3146    -0.4647 O.2     
  41 H41           -0.3142     1.9030     1.0114 H       
  42 H42           -0.5251    -0.3126    -0.9017 H       
  43 H43            4.4592     1.3470     0.0318 H       
  44 H44            1.5249     3.8961     0.0259 H       
  45 H45            7.8866     3.1957     0.0724 H       
  46 H46            4.7002    -0.6105    -0.0094 H       
  47 H47            7.4931    -3.2232    -0.0440 H       
  48 H48            3.2106     6.0905    -1.1791 H       
  49 H49            2.4314     5.7175     0.3771 H       
  50 H50            3.9752     6.6029     0.3444 H       
  51 H51            6.4324     6.2222    -0.8628 H       
  52 H52            8.2272     6.2807     0.7431 H       
  53 H53            7.5720     4.7164     1.5323 H       
  54 H54           -1.6446     1.8987    -1.1269 H       
  55 H55           -0.5066     3.2652    -1.0493 H       
  56 H56           -0.1204     1.8408    -2.0444 H       
  57 H57           -0.6656    -1.6507     1.2208 H       
  58 H58           -0.1763    -0.2064     2.1389 H       
  59 H59           -2.1726     0.9967     1.3910 H       
  60 H60           -2.6373    -0.3645     0.3425 H       
  61 H61           -4.5754    -0.9013     3.4094 H       
  62 H62            0.4625    -3.1248     0.6831 H       
  63 H63            0.4309    -2.9757    -1.0996 H       
  64 H64            5.5799    -5.4060    -1.3547 H       
  65 H65            6.3429    -5.1575     0.2342 H       
  66 H66            4.7276    -5.8978     0.1285 H       
  67 H67            9.6654    -2.5476    -0.2424 H       
  68 H68           10.7558    -1.1761     0.0709 H       
  69 H69           10.8175    -2.8068     1.9380 H       
  70 H70           10.1523    -1.2456     2.4750 H       
  71 H71            9.0619    -2.6171     2.1616 H       
  72 H72           10.4046     1.6895    -0.5219 H       
  73 H73            9.7194     2.4035     0.9576 H       
  74 H74           10.7072     0.9262     1.0574 H       
@<TRIPOS>BOND
   1    1    2 1
   2    1    5 1
   3    1   28 1
   4    1   41 1
   5    2    3 1
   6    2   29 1
   7    2   42 1
   8    3    4 2
   9    3   23 1
  10    4    5 1
  11    5   11 2
  12    6    7 1
  13    6   10 2
  14    6   26 1
  15    7    8 2
  16    7   25 1
  17    8    9 1
  18    8   11 1
  19    9   10 1
  20    9   43 1
  21   10   17 1
  22   11   44 1
  23   12   13 2
  24   12   16 1
  25   12   37 1
  26   13   14 1
  27   13   39 1
  28   14   15 1
  29   14   17 2
  30   15   16 2
  31   16   24 1
  32   17   45 1
  33   18   19 2
  34   18   22 1
  35   18   35 1
  36   19   20 1
  37   19   36 1
  38   20   21 1
  39   20   24 2
  40   21   22 1
  41   21   46 1
  42   22   23 2
  43   23   34 1
  44   24   47 1
  45   25   48 1
  46   25   49 1
  47   25   50 1
  48   26   27 2
  49   26   51 1
  50   27   52 1
  51   27   53 1
  52   28   54 1
  53   28   55 1
  54   28   56 1
  55   29   30 1
  56   29   57 1
  57   29   58 1
  58   30   31 1
  59   30   59 1
  60   30   60 1
  61   31   32 1
  62   31   33 2
  63   32   61 1
  64   34   35 1
  65   34   62 1
  66   34   63 1
  67   35   40 2
  68   36   64 1
  69   36   65 1
  70   36   66 1
  71   37   38 1
  72   37   67 1
  73   37   68 1
  74   38   69 1
  75   38   70 1
  76   38   71 1
  77   39   72 1
  78   39   73 1
  79   39   74 1

#	End of record

