#	Name: ASD01900260
#	Creating user name:	WinNT
#	Creation time:	15. 06. 2019 19:51

#	Modifying user name:	WinNT
#	Modification time:	15. 06. 2019 19:51

#	Program:	/corina/corina34_cracker 3.40 0067  02.08.2006

@<TRIPOS>MOLECULE
ASD01900260
  36   38    0    0    0
SMALL
NO_CHARGES


@<TRIPOS>ATOM
   1 S1            -0.0211     1.7035     0.0114 S.3     
   2 C2             0.0021    -0.0041     0.0020 C.2     
   3 N3             1.2126    -0.4394    -0.0119 N.2     
   4 C4             2.1660     0.4959    -0.0160 C.2     
   5 C5             1.6873     1.7604    -0.0046 C.2     
   6 C6             3.6041     0.1796    -0.0306 C.2     
   7 O7             4.4246     1.0780    -0.0332 O.2     
   8 N8             4.0115    -1.1051    -0.0411 N.am    
   9 N9             7.2953    -2.5045    -0.0787 N.am    
  10 C10            5.9345    -2.6440    -0.0667 C.2     
  11 C11            5.3855    -1.4073    -0.0551 C.2     
  12 C12            6.4475    -0.4759    -0.0602 C.2     
  13 C13            7.5998    -1.1758    -0.0746 C.2     
  14 S14            8.3920    -3.7453    -0.0891 S.o2    
  15 O15            9.5562    -3.1890     0.5061 O.2     
  16 O16            7.7026    -4.8274     0.5216 O.2     
  17 C17            8.6762    -4.0834    -1.8485 C.3     
  18 C18            9.6692    -5.2081    -1.9899 C.ar    
  19 C19            9.2273    -6.5182    -2.0473 C.ar    
  20 C20           10.1394    -7.5501    -2.1776 C.ar    
  21 C21           11.4915    -7.2719    -2.2503 C.ar    
  22 C22           11.9323    -5.9632    -2.1925 C.ar    
  23 C23           11.0208    -4.9310    -2.0680 C.ar    
  24 Cl24           7.5292    -6.8667    -1.9553 Cl      
  25 H25           -0.8772    -0.6312     0.0070 H       
  26 H26            2.2862     2.6591    -0.0058 H       
  27 H27            3.3574    -1.8213    -0.0391 H       
  28 H28            5.3928    -3.5783    -0.0670 H       
  29 H29            6.3536     0.6000    -0.0541 H       
  30 H30            8.5946    -0.7554    -0.0811 H       
  31 H31            7.7356    -4.3677    -2.3204 H       
  32 H32            9.0692    -3.1888    -2.3316 H       
  33 H33            9.7952    -8.5728    -2.2221 H       
  34 H34           12.2037    -8.0775    -2.3520 H       
  35 H35           12.9888    -5.7464    -2.2486 H       
  36 H36           11.3654    -3.9083    -2.0273 H       
@<TRIPOS>BOND
   1    1    2 1
   2    1    5 1
   3    2    3 2
   4    2   25 1
   5    3    4 1
   6    4    5 2
   7    4    6 1
   8    5   26 1
   9    6    7 2
  10    6    8 am
  11    8   11 1
  12    8   27 1
  13    9   10 1
  14    9   13 1
  15    9   14 am
  16   10   11 2
  17   10   28 1
  18   11   12 1
  19   12   13 2
  20   12   29 1
  21   13   30 1
  22   14   15 2
  23   14   16 2
  24   14   17 1
  25   17   18 1
  26   17   31 1
  27   17   32 1
  28   18   19 ar
  29   18   23 ar
  30   19   20 ar
  31   19   24 1
  32   20   21 ar
  33   20   33 1
  34   21   22 ar
  35   21   34 1
  36   22   23 ar
  37   22   35 1
  38   23   36 1

#	End of record

