#	Name: ASD01870027
#	Creating user name:	WinNT
#	Creation time:	15. 06. 2019 19:38

#	Modifying user name:	WinNT
#	Modification time:	15. 06. 2019 19:38

#	Program:	/corina/corina34_cracker 3.40 0067  02.08.2006

@<TRIPOS>MOLECULE
ASD01870027
  49   49    0    0    0
SMALL
NO_CHARGES


@<TRIPOS>ATOM
   1 C1            -0.0164     1.3600     0.0095 C.2     
   2 C2             0.0021    -0.0041     0.0020 C.2     
   3 C3            -1.3435    -0.4355     0.0131 C.2     
   4 C4            -2.1337     0.6996     0.0270 C.2     
   5 N5            -1.3307     1.7749     0.0303 N.pl3   
   6 C6             1.1604     2.2349     0.0030 C.2     
   7 O7             1.0047     3.5746     0.0117 O.3     
   8 C8             2.2137     4.3787     0.0044 C.3     
   9 C9             1.8395     5.8622     0.0160 C.3     
  10 C10            3.1134     6.7096     0.0084 C.3     
  11 C11           -1.8153    -1.8304     0.0103 C.2     
  12 O12           -2.0428    -2.4624    -1.1580 O.3     
  13 C13           -2.5067    -3.8364    -1.0848 C.3     
  14 O14            2.2766     1.7526    -0.0103 O.2     
  15 O15           -1.9996    -2.4117     1.0615 O.2     
  16 C16           -3.6404     0.7247     0.0416 C.3     
  17 C17           -3.3862    -4.1431    -2.2986 C.3     
  18 C18           -1.3033    -4.7811    -1.0751 C.3     
  19 C19           -2.5734    -3.9469    -3.5799 C.3     
  20 C20           -3.8750    -5.5909    -2.2215 C.3     
  21 C21           -4.5896    -3.1983    -2.3083 C.3     
  22 C22            1.2255    -0.8839    -0.0156 C.3     
  23 H23           -1.6282     2.6981     0.0395 H       
  24 H24            2.8092     4.1473     0.8875 H       
  25 H25            2.7922     4.1569    -0.8923 H       
  26 H26            1.2440     6.0936    -0.8671 H       
  27 H27            1.2610     6.0840     0.9127 H       
  28 H28            3.7090     6.4782     0.8915 H       
  29 H29            3.6920     6.4877    -0.8884 H       
  30 H30            2.8469     7.7664     0.0166 H       
  31 H31           -3.0858    -3.9762    -0.1720 H       
  32 H32           -3.9938     0.7250     1.0728 H       
  33 H33           -3.9938     1.6234    -0.4638 H       
  34 H34           -4.0235    -0.1563    -0.4735 H       
  35 H35           -0.7243    -4.6413    -1.9880 H       
  36 H36           -0.6768    -4.5626    -0.2104 H       
  37 H37           -1.6516    -5.8126    -1.0202 H       
  38 H38           -1.7161    -4.6199    -3.5731 H       
  39 H39           -3.2000    -4.1654    -4.4447 H       
  40 H40           -2.2252    -2.9154    -3.6349 H       
  41 H41           -4.4540    -5.7307    -1.3086 H       
  42 H42           -4.5015    -5.8094    -3.0862 H       
  43 H43           -3.0177    -6.2639    -2.2146 H       
  44 H44           -4.2414    -2.1669    -2.3633 H       
  45 H45           -5.2162    -3.4169    -3.1730 H       
  46 H46           -5.1687    -3.3382    -1.3955 H       
  47 H47            1.5310    -1.1019     1.0077 H       
  48 H48            0.9955    -1.8156    -0.5324 H       
  49 H49            2.0347    -0.3705    -0.5349 H       
@<TRIPOS>BOND
   1    1    2 2
   2    1    6 1
   3    1    5 1
   4    2    3 1
   5    2   22 1
   6    3    4 2
   7    3   11 1
   8    4    5 1
   9    4   16 1
  10    5   23 1
  11    6    7 1
  12    6   14 2
  13    7    8 1
  14    8    9 1
  15    8   24 1
  16    8   25 1
  17    9   10 1
  18    9   26 1
  19    9   27 1
  20   10   28 1
  21   10   29 1
  22   10   30 1
  23   11   12 1
  24   11   15 2
  25   12   13 1
  26   13   17 1
  27   13   18 1
  28   13   31 1
  29   16   32 1
  30   16   33 1
  31   16   34 1
  32   17   19 1
  33   17   20 1
  34   17   21 1
  35   18   35 1
  36   18   36 1
  37   18   37 1
  38   19   38 1
  39   19   39 1
  40   19   40 1
  41   20   41 1
  42   20   42 1
  43   20   43 1
  44   21   44 1
  45   21   45 1
  46   21   46 1
  47   22   47 1
  48   22   48 1
  49   22   49 1

#	End of record

