#	Name: ASD01815848
#	Creating user name:	WinNT
#	Creation time:	15. 06. 2019 19:34

#	Modifying user name:	WinNT
#	Modification time:	15. 06. 2019 19:34

#	Program:	/corina/corina34_cracker 3.40 0067  02.08.2006

@<TRIPOS>MOLECULE
ASD01815848
  53   58    0    0    0
SMALL
NO_CHARGES


@<TRIPOS>ATOM
   1 C1            -0.0168     1.3846     0.0097 C.ar    
   2 C2             0.0021    -0.0041     0.0020 C.ar    
   3 C3            -1.1855    -0.7094     0.0095 C.ar    
   4 C4            -2.3921    -0.0344     0.0242 C.ar    
   5 C5            -2.4144     1.3485     0.0318 C.ar    
   6 C6            -1.2307     2.0596     0.0307 C.ar    
   7 N7             1.1849     2.1024     0.0020 N.am    
   8 C8             2.1646     1.9570    -0.9162 C.2     
   9 N9             1.5392     3.0755     0.9398 N.2     
  10 C10            2.7138     3.5723     0.6781 C.2     
  11 C11            3.2177     2.8948    -0.5390 C.2     
  12 O12            2.1687     1.1949    -1.8690 O.2     
  13 C13            3.5855     4.5927     1.2878 C.ar    
  14 C14            4.8288     4.8583     0.6889 C.ar    
  15 N15            5.2150     4.1726    -0.4460 N.pl3   
  16 C16            4.4500     3.2380    -1.0347 C.2     
  17 C17            3.2059     5.2909     2.4317 C.ar    
  18 C18            4.0837     6.2340     2.9408 C.ar    
  19 C19            5.2931     6.4464     2.3016 C.ar    
  20 N20            5.6292     5.7726     1.2209 N.ar    
  21 C21            6.5189     4.4816    -1.0381 C.3     
  22 C22            7.5703     3.5882    -0.4319 C.ar    
  23 C23            7.8549     2.3657    -1.0119 C.ar    
  24 C24            8.8177     1.5445    -0.4583 C.ar    
  25 C25            9.5002     1.9479     0.6815 C.ar    
  26 C26            9.2125     3.1762     1.2613 C.ar    
  27 C27            8.2523     3.9952     0.7001 C.ar    
  28 N28           10.4776     1.1165     1.2460 N.pl3   
  29 C29           11.2122     1.3869     2.3487 C.2     
  30 C30           12.0377     0.3360     2.5612 C.2     
  31 C31           11.8007    -0.6082     1.5562 C.2     
  32 N32           10.8619    -0.1441     0.7712 N.2     
  33 C33           -1.2559     3.5664     0.0394 C.3     
  34 H34            0.9442    -0.5319    -0.0101 H       
  35 H35           -1.1715    -1.7893     0.0036 H       
  36 H36           -3.3193    -0.5882     0.0293 H       
  37 H37           -3.3586     1.8728     0.0432 H       
  38 H38            4.8166     2.7412    -1.9208 H       
  39 H39            2.2549     5.1028     2.9077 H       
  40 H40            3.8273     6.7973     3.8259 H       
  41 H41            5.9772     7.1819     2.6984 H       
  42 H42            6.4776     4.3154    -2.1146 H       
  43 H43            6.7698     5.5238    -0.8407 H       
  44 H44            7.3237     2.0524    -1.8985 H       
  45 H45            9.0391     0.5895    -0.9113 H       
  46 H46            9.7415     3.4925     2.1482 H       
  47 H47            8.0280     4.9508     1.1507 H       
  48 H48           11.1514     2.2812     2.9511 H       
  49 H49           12.7532     0.2425     3.3648 H       
  50 H50           12.3028    -1.5584     1.4492 H       
  51 H51           -1.2574     3.9237     1.0692 H       
  52 H52           -0.3744     3.9475    -0.4761 H       
  53 H53           -2.1541     3.9177    -0.4684 H       
@<TRIPOS>BOND
   1    1    2 ar
   2    1    7 1
   3    1    6 ar
   4    2    3 ar
   5    2   34 1
   6    3    4 ar
   7    3   35 1
   8    4    5 ar
   9    4   36 1
  10    5    6 ar
  11    5   37 1
  12    6   33 1
  13    7    8 am
  14    7    9 1
  15    8   12 2
  16    8   11 1
  17    9   10 2
  18   10   11 1
  19   10   13 1
  20   11   16 2
  21   13   14 ar
  22   13   17 ar
  23   14   15 1
  24   14   20 ar
  25   15   16 1
  26   15   21 1
  27   16   38 1
  28   17   18 ar
  29   17   39 1
  30   18   19 ar
  31   18   40 1
  32   19   20 ar
  33   19   41 1
  34   21   22 1
  35   21   42 1
  36   21   43 1
  37   22   23 ar
  38   22   27 ar
  39   23   24 ar
  40   23   44 1
  41   24   25 ar
  42   24   45 1
  43   25   26 ar
  44   25   28 1
  45   26   27 ar
  46   26   46 1
  47   27   47 1
  48   28   29 1
  49   28   32 1
  50   29   30 2
  51   29   48 1
  52   30   31 1
  53   30   49 1
  54   31   32 2
  55   31   50 1
  56   33   51 1
  57   33   52 1
  58   33   53 1

#	End of record

