#	Name: ASD00431104
#	Creating user name:	WinNT
#	Creation time:	15. 06. 2019 18:35

#	Modifying user name:	WinNT
#	Modification time:	15. 06. 2019 18:35

#	Program:	/corina/corina34_cracker 3.40 0067  02.08.2006

@<TRIPOS>MOLECULE
ASD00431104
  43   45    0    0    0
SMALL
NO_CHARGES


@<TRIPOS>ATOM
   1 C1             0.4705     0.7755     1.2645 C.2     
   2 N2             0.5850    -0.5568     1.0964 N.am    
   3 O3             1.4257     1.5049     1.0373 O.co2   
   4 O4            -0.5901     1.2557     1.6393 O.co2   
   5 C5             1.8535    -1.1314     0.6417 C.3     
   6 C6             2.7737    -1.3518     1.8440 C.3     
   7 C7             1.5922    -2.4502    -0.0393 C.ar    
   8 C8             2.2962    -2.7867    -1.1819 C.ar    
   9 C9             2.0621    -3.9925    -1.8099 C.ar    
  10 C10            1.1126    -4.8739    -1.2900 C.ar    
  11 C11            0.4059    -4.5281    -0.1369 C.ar    
  12 C12            0.6534    -3.3214     0.4842 C.ar    
  13 S13            1.6541    -6.7584    -3.4132 S.3     
  14 C14            0.7293    -8.1948    -3.3503 C.2     
  15 N15           -0.0692    -8.1717    -2.3289 N.2     
  16 C16           -0.0296    -7.1034    -1.5609 C.2     
  17 C17            0.8563    -6.1672    -1.9579 C.2     
  18 O18            0.8178    -9.2118    -4.2408 O.3     
  19 C19           -0.0595   -10.2435    -4.1206 C.ar    
  20 C20           -1.3734   -10.0890    -4.5381 C.ar    
  21 C21           -2.2646   -11.1371    -4.4160 C.ar    
  22 C22           -1.8460   -12.3440    -3.8754 C.ar    
  23 C23           -0.5322   -12.4986    -3.4580 C.ar    
  24 C24            0.3606   -11.4526    -3.5857 C.ar    
  25 O25           -2.7236   -13.3755    -3.7544 O.3     
  26 C26           -2.2242   -14.5893    -3.1892 C.3     
  27 H27           -0.1726    -1.1352     1.2766 H       
  28 H28            2.3308    -0.4481    -0.0607 H       
  29 H29            3.7175    -1.7793     1.5056 H       
  30 H30            2.9627    -0.3980     2.3365 H       
  31 H31            2.2964    -2.0351     2.5464 H       
  32 H32            3.0303    -2.1037    -1.5832 H       
  33 H33            2.6120    -4.2539    -2.7019 H       
  34 H34           -0.3303    -5.2054     0.2701 H       
  35 H35            0.1103    -3.0545     1.3787 H       
  36 H36           -0.6538    -6.9864    -0.6873 H       
  37 H37           -1.6995    -9.1491    -4.9583 H       
  38 H38           -3.2874   -11.0169    -4.7410 H       
  39 H39           -0.2065   -13.4383    -3.0368 H       
  40 H40            1.3846   -11.5744    -3.2648 H       
  41 H41           -1.8577   -14.3967    -2.1809 H       
  42 H42           -3.0247   -15.3281    -3.1499 H       
  43 H43           -1.4093   -14.9689    -3.8056 H       
@<TRIPOS>BOND
   1    1    2 am
   2    1    3 ar
   3    1    4 ar
   4    2    5 1
   5    2   27 1
   6    5    6 1
   7    5    7 1
   8    5   28 1
   9    6   29 1
  10    6   30 1
  11    6   31 1
  12    7    8 ar
  13    7   12 ar
  14    8    9 ar
  15    8   32 1
  16    9   10 ar
  17    9   33 1
  18   10   11 ar
  19   10   17 1
  20   11   12 ar
  21   11   34 1
  22   12   35 1
  23   13   14 1
  24   13   17 1
  25   14   15 2
  26   14   18 1
  27   15   16 1
  28   16   17 2
  29   16   36 1
  30   18   19 1
  31   19   20 ar
  32   19   24 ar
  33   20   21 ar
  34   20   37 1
  35   21   22 ar
  36   21   38 1
  37   22   23 ar
  38   22   25 1
  39   23   24 ar
  40   23   39 1
  41   24   40 1
  42   25   26 1
  43   26   41 1
  44   26   42 1
  45   26   43 1

#	End of record

