#	Name: ASD01811993
#	Creating user name:	WinNT
#	Creation time:	15. 06. 2019 19:27

#	Modifying user name:	WinNT
#	Modification time:	15. 06. 2019 19:27

#	Program:	/corina/corina34_cracker 3.40 0067  02.08.2006

@<TRIPOS>MOLECULE
ASD01811993
  34   36    0    0    0
SMALL
NO_CHARGES


@<TRIPOS>ATOM
   1 C1            -0.0179     1.4706     0.0101 C.2     
   2 C2             0.0021    -0.0041     0.0020 C.ar    
   3 C3             1.2440    -0.6608    -0.0134 C.ar    
   4 N4             2.4150     0.0669    -0.0211 N.pl3   
   5 C5             2.4376     1.4056    -0.0146 C.2     
   6 C6             1.2820     2.1606     0.0014 C.2     
   7 C7            -1.1823    -0.7411     0.0099 C.ar    
   8 C8            -1.1268    -2.1192     0.0023 C.ar    
   9 C9             0.1011    -2.7700    -0.0130 C.ar    
  10 C10            1.2770    -2.0531    -0.0212 C.ar    
  11 O11           -1.0664     2.0915     0.0185 O.2     
  12 C12            1.3487     3.6288     0.0082 C.2     
  13 O13            2.4280     4.1883     0.0009 O.2     
  14 O14            0.2132     4.3551     0.0226 O.3     
  15 C15            3.6893    -0.6557    -0.0367 C.3     
  16 C16            4.1127    -0.8967    -1.4628 C.ar    
  17 C17            3.7117    -2.0460    -2.1180 C.ar    
  18 C18            4.8974     0.0341    -2.1175 C.ar    
  19 C19            5.2858    -0.1870    -3.4256 C.ar    
  20 C20            4.8899    -1.3392    -4.0788 C.ar    
  21 C21            4.1001    -2.2671    -3.4261 C.ar    
  22 F22           -2.2701    -2.8389     0.0103 F       
  23 H23            3.3917     1.9116    -0.0209 H       
  24 H24           -2.1367    -0.2357     0.0221 H       
  25 H25            0.1336    -3.8495    -0.0184 H       
  26 H26            2.2248    -2.5706    -0.0328 H       
  27 H27            0.3076     5.3175     0.0266 H       
  28 H28            4.4493    -0.0631     0.4727 H       
  29 H29            3.5713    -1.6115     0.4738 H       
  30 H30            3.0953    -2.7713    -1.6077 H       
  31 H31            5.2067     0.9343    -1.6072 H       
  32 H32            5.8983     0.5406    -3.9374 H       
  33 H33            5.1931    -1.5118    -5.1009 H       
  34 H34            3.7871    -3.1652    -3.9378 H       
@<TRIPOS>BOND
   1    1    2 1
   2    1    6 1
   3    1   11 2
   4    2    3 ar
   5    2    7 ar
   6    3    4 1
   7    3   10 ar
   8    4    5 1
   9    4   15 1
  10    5    6 2
  11    5   23 1
  12    6   12 1
  13    7    8 ar
  14    7   24 1
  15    8    9 ar
  16    8   22 1
  17    9   10 ar
  18    9   25 1
  19   10   26 1
  20   12   13 2
  21   12   14 1
  22   14   27 1
  23   15   16 1
  24   15   28 1
  25   15   29 1
  26   16   18 ar
  27   16   17 ar
  28   17   21 ar
  29   17   30 1
  30   18   19 ar
  31   18   31 1
  32   19   20 ar
  33   19   32 1
  34   20   21 ar
  35   20   33 1
  36   21   34 1

#	End of record

