#	Name: ASD02508305
#	Creating user name:	WinNT
#	Creation time:	15. 06. 2019 20:24

#	Modifying user name:	WinNT
#	Modification time:	15. 06. 2019 20:24

#	Program:	/corina/corina34_cracker 3.40 0067  02.08.2006

@<TRIPOS>MOLECULE
ASD02508305
  46   49    0    0    0
SMALL
NO_CHARGES


@<TRIPOS>ATOM
   1 C1            -0.0355     1.3702    -0.0462 C.ar    
   2 C2            -0.0033    -0.0155    -0.0540 C.ar    
   3 C3            -1.1899    -0.7388    -0.1091 C.ar    
   4 C4            -2.4006    -0.0775    -0.1534 C.ar    
   5 C5            -2.4320     1.3052    -0.1427 C.ar    
   6 C6            -1.2547     2.0257    -0.0931 C.ar    
   7 S7            -3.9776     2.1495    -0.1973 S.o2    
   8 O8            -3.7097     3.4434    -0.7202 O.2     
   9 O9            -4.9058     1.2497    -0.7871 O.2     
  10 C10           -4.5024     2.3849     1.4682 C.ar    
  11 C11           -4.1348     3.5281     2.1522 C.ar    
  12 C12           -4.5460     3.7157     3.4635 C.ar    
  13 C13           -5.3313     2.7528     4.0860 C.ar    
  14 C14           -5.6961     1.6074     3.3940 C.ar    
  15 C15           -5.2860     1.4283     2.0865 C.ar    
  16 O16           -4.1695     4.8428     4.1271 O.3     
  17 C17           -4.9082     5.1710     5.3088 C.3     
  18 C18           -5.0572     3.8974     6.1520 C.3     
  19 O19           -5.7523     2.9205     5.3694 O.3     
  20 C20            1.2290     2.1864     0.0060 C.3     
  21 C21            2.3852     1.3475     0.5497 C.3     
  22 C22            2.4598     0.0346    -0.2408 C.3     
  23 N23            1.2130    -0.7050    -0.0017 N.am    
  24 S24            1.2468    -2.3281     0.3248 S.o2    
  25 C25            0.8987    -3.1181    -1.2705 C.3     
  26 O26            2.5880    -2.5777     0.7227 O.2     
  27 O27            0.1663    -2.5269     1.2260 O.2     
  28 H28           -1.1639    -1.8185    -0.1177 H       
  29 H29           -3.3221    -0.6390    -0.1967 H       
  30 H30           -1.2851     3.1053    -0.0845 H       
  31 H31           -3.5265     4.2759     1.6654 H       
  32 H32           -6.3043     0.8565     3.8763 H       
  33 H33           -5.5711     0.5357     1.5495 H       
  34 H34           -4.3712     5.9288     5.8794 H       
  35 H35           -5.8936     5.5470     5.0337 H       
  36 H36           -4.0717     3.5183     6.4225 H       
  37 H37           -5.6270     4.1186     7.0545 H       
  38 H38            1.4759     2.5328    -0.9976 H       
  39 H39            1.0743     3.0494     0.6537 H       
  40 H40            3.3200     1.8963     0.4352 H       
  41 H41            2.2143     1.1297     1.6040 H       
  42 H42            2.5634     0.2495    -1.3043 H       
  43 H43            3.3102    -0.5549     0.1020 H       
  44 H44            1.6639    -2.8322    -1.9922 H       
  45 H45            0.9014    -4.2012    -1.1479 H       
  46 H46           -0.0785    -2.7957    -1.6301 H       
@<TRIPOS>BOND
   1    1    2 ar
   2    1   20 1
   3    1    6 ar
   4    2    3 ar
   5    2   23 1
   6    3    4 ar
   7    3   28 1
   8    4    5 ar
   9    4   29 1
  10    5    6 ar
  11    5    7 1
  12    6   30 1
  13    7    8 2
  14    7    9 2
  15    7   10 1
  16   10   11 ar
  17   10   15 ar
  18   11   12 ar
  19   11   31 1
  20   12   13 ar
  21   12   16 1
  22   13   14 ar
  23   13   19 1
  24   14   15 ar
  25   14   32 1
  26   15   33 1
  27   16   17 1
  28   17   18 1
  29   17   34 1
  30   17   35 1
  31   18   19 1
  32   18   36 1
  33   18   37 1
  34   20   21 1
  35   20   38 1
  36   20   39 1
  37   21   22 1
  38   21   40 1
  39   21   41 1
  40   22   23 1
  41   22   42 1
  42   22   43 1
  43   23   24 am
  44   24   25 1
  45   24   26 2
  46   24   27 2
  47   25   44 1
  48   25   45 1
  49   25   46 1

#	End of record

