#	Name: ASD05490113
#	Creating user name:	WinNT
#	Creation time:	15. 06. 2019 21:01

#	Modifying user name:	WinNT
#	Modification time:	15. 06. 2019 21:01

#	Program:	/corina/corina34_cracker 3.40 0067  02.08.2006

@<TRIPOS>MOLECULE
ASD05490113
  70   74    0    0    0
SMALL
NO_CHARGES


@<TRIPOS>ATOM
   1 O1            -2.2665     1.8171     0.0253 O.2     
   2 N2            -0.0178     1.4608     0.0101 N.am    
   3 O3             4.5863     2.8160    -0.0274 O.3     
   4 N4             2.8511     4.3367    -0.0019 N.ar    
   5 C5             1.5540     4.6376     0.0121 C.ar    
   6 C6             3.2565     3.0770    -0.0133 C.ar    
   7 N7             2.4054     2.0644    -0.0102 N.ar    
   8 C8             1.0946     2.2826     0.0039 C.ar    
   9 C9             0.6266     3.5971     0.0154 C.ar    
  10 N10            1.1342     5.9598     0.0237 N.pl3   
  11 C11           -1.1223     2.2312     0.0189 C.2     
  12 N12           -0.7663     3.5310     0.0284 N.am    
  13 C13            5.4681     3.9405    -0.0289 C.3     
  14 C14            6.9178     3.4517    -0.0454 C.3     
  15 O15            7.1758     2.7674    -1.2731 O.3     
  16 C16            8.5094     2.2677    -1.3909 C.3     
  17 C17            0.0021    -0.0041     0.0020 C.3     
  18 C18            0.0225    -0.5140     1.4200 C.ar    
  19 C19           -1.1674    -0.7635     2.0797 C.ar    
  20 C20           -1.1546    -1.2305     3.3784 C.ar    
  21 C21            0.0599    -1.4507     4.0249 C.ar    
  22 C22            1.2555    -1.1977     3.3555 C.ar    
  23 C23            1.2310    -0.7362     2.0550 C.ar    
  24 C24            0.0799    -1.9524     5.4213 C.ar    
  25 C25            1.2932    -2.1762     6.0781 C.ar    
  26 C26           -1.1101    -2.2022     6.1007 C.ar    
  27 N27           -1.0937    -2.6472     7.3407 N.ar    
  28 C28            0.0351    -2.8725     7.9844 C.ar    
  29 C29            1.2582    -2.6441     7.3803 C.ar    
  30 C30           -0.0084    -3.3811     9.4023 C.3     
  31 C31           -0.8555    -2.4364    10.2572 C.3     
  32 C32           -0.8996    -2.9528    11.6968 C.3     
  33 N33           -1.7130    -2.0458    12.5176 N.3     
  34 C34           -1.9767    -2.6287    13.8460 C.3     
  35 C35           -1.4563    -1.6256    14.8970 C.3     
  36 C36           -1.4432    -0.2821    14.1213 C.3     
  37 C37           -1.0346    -0.7450    12.7006 C.3     
  38 H38            1.7881     6.6762     0.0216 H       
  39 H39            0.1868     6.1678     0.0339 H       
  40 H40           -1.3727     4.2880     0.0359 H       
  41 H41            5.2796     4.5488    -0.9135 H       
  42 H42            5.2964     4.5381     0.8664 H       
  43 H43            7.5900     4.3052     0.0430 H       
  44 H44            7.0817     2.7720     0.7908 H       
  45 H45            9.2146     3.0966    -1.3305 H       
  46 H46            8.7062     1.5635    -0.5826 H       
  47 H47            8.6245     1.7620    -2.3496 H       
  48 H48           -0.8878    -0.3767    -0.5053 H       
  49 H49            0.8920    -0.3525    -0.5222 H       
  50 H50           -2.1082    -0.5921     1.5778 H       
  51 H51           -2.0842    -1.4247     3.8927 H       
  52 H52            2.1996    -1.3663     3.8521 H       
  53 H53            2.1571    -0.5401     1.5352 H       
  54 H54            2.2341    -1.9893     5.5820 H       
  55 H55           -2.0548    -2.0293     5.6067 H       
  56 H56            2.1760    -2.8327     7.9174 H       
  57 H57           -0.4487    -4.3781     9.4174 H       
  58 H58            1.0041    -3.4250     9.8038 H       
  59 H59           -0.4151    -1.4395    10.2422 H       
  60 H60           -1.8679    -2.3925     9.8558 H       
  61 H61           -1.3400    -3.9498    11.7119 H       
  62 H62            0.1128    -2.9967    12.0983 H       
  63 H63           -3.0479    -2.7816    13.9778 H       
  64 H64           -1.4494    -3.5774    13.9460 H       
  65 H65           -2.1350    -1.5726    15.7483 H       
  66 H66           -0.4506    -1.8936    15.2206 H       
  67 H67           -2.4332     0.1740    14.1137 H       
  68 H68           -0.7032     0.4016    14.5372 H       
  69 H69            0.0466    -0.8687    12.6382 H       
  70 H70           -1.3792    -0.0290    11.9545 H       
@<TRIPOS>BOND
   1    1   11 2
   2    2   17 1
   3    2    8 1
   4    2   11 am
   5    3   13 1
   6    3    6 1
   7    4    5 ar
   8    4    6 ar
   9    5   10 1
  10    5    9 ar
  11    6    7 ar
  12    7    8 ar
  13    8    9 ar
  14    9   12 1
  15   10   38 1
  16   10   39 1
  17   11   12 am
  18   12   40 1
  19   13   14 1
  20   13   41 1
  21   13   42 1
  22   14   15 1
  23   14   43 1
  24   14   44 1
  25   15   16 1
  26   16   45 1
  27   16   46 1
  28   16   47 1
  29   17   18 1
  30   17   48 1
  31   17   49 1
  32   18   19 ar
  33   18   23 ar
  34   19   20 ar
  35   19   50 1
  36   20   21 ar
  37   20   51 1
  38   21   22 ar
  39   21   24 1
  40   22   23 ar
  41   22   52 1
  42   23   53 1
  43   24   25 ar
  44   24   26 ar
  45   25   29 ar
  46   25   54 1
  47   26   27 ar
  48   26   55 1
  49   27   28 ar
  50   28   29 ar
  51   28   30 1
  52   29   56 1
  53   30   31 1
  54   30   57 1
  55   30   58 1
  56   31   32 1
  57   31   59 1
  58   31   60 1
  59   32   33 1
  60   32   61 1
  61   32   62 1
  62   33   34 1
  63   33   37 1
  64   34   35 1
  65   34   63 1
  66   34   64 1
  67   35   36 1
  68   35   65 1
  69   35   66 1
  70   36   37 1
  71   36   67 1
  72   36   68 1
  73   37   69 1
  74   37   70 1

#	End of record

