#	Name: ASD00990031
#	Creating user name:	WinNT
#	Creation time:	15. 06. 2019 18:54

#	Modifying user name:	WinNT
#	Modification time:	15. 06. 2019 18:54

#	Program:	/corina/corina34_cracker 3.40 0067  02.08.2006

@<TRIPOS>MOLECULE
ASD00990031
  24   25    0    0    0
SMALL
NO_CHARGES


@<TRIPOS>ATOM
   1 C1            -0.0167     1.3800     0.0096 C.ar    
   2 C2             0.0021    -0.0041     0.0020 C.ar    
   3 C3            -1.1802    -0.7176     0.0090 C.ar    
   4 C4            -2.3939    -0.0468     0.0242 C.ar    
   5 C5            -2.4136     1.3468     0.0323 C.ar    
   6 C6            -1.2218     2.0583     0.0305 C.ar    
   7 O7            -3.6824    -0.4679     0.0339 O.3     
   8 C8            -4.4958     0.5997     0.0476 C.2     
   9 N9            -3.7566     1.7268     0.0471 N.am    
  10 O10           -5.7110     0.5568     0.0583 O.2     
  11 F11           -1.2390     3.4092     0.0389 F       
  12 C12           -4.2689     3.0992     0.0601 C.3     
  13 C13           -4.4314     3.5612     1.4853 C.2     
  14 O14           -4.1483     2.8201     2.3967 O.2     
  15 O15           -4.8906     4.7961     1.7424 O.3     
  16 C16            1.2790     2.1494     0.0014 C.3     
  17 F17            2.3534     1.2534    -0.0137 F       
  18 F18            1.3324     2.9607    -1.1371 F       
  19 F19            1.3542     2.9484     1.1473 F       
  20 H20            0.9461    -0.5286    -0.0098 H       
  21 H21           -1.1597    -1.7974     0.0023 H       
  22 H22           -3.5670     3.7540    -0.4563 H       
  23 H23           -5.2345     3.1314    -0.4446 H       
  24 H24           -4.9779     5.0473     2.6721 H       
@<TRIPOS>BOND
   1    1    2 ar
   2    1   16 1
   3    1    6 ar
   4    2    3 ar
   5    2   20 1
   6    3    4 ar
   7    3   21 1
   8    4    5 ar
   9    4    7 1
  10    5    6 ar
  11    5    9 1
  12    6   11 1
  13    7    8 1
  14    8    9 am
  15    8   10 2
  16    9   12 1
  17   12   13 1
  18   12   22 1
  19   12   23 1
  20   13   14 2
  21   13   15 1
  22   15   24 1
  23   16   17 1
  24   16   18 1
  25   16   19 1

#	End of record

