#	Name: ASD04590479
#	Creating user name:	WinNT
#	Creation time:	15. 06. 2019 20:50

#	Modifying user name:	WinNT
#	Modification time:	15. 06. 2019 20:50

#	Program:	/corina/corina34_cracker 3.40 0067  02.08.2006

@<TRIPOS>MOLECULE
ASD04590479
  54   58    0    0    0
SMALL
NO_CHARGES


@<TRIPOS>ATOM
   1 C1            -0.0634     1.3084     0.3419 C.ar    
   2 C2            -0.0126    -0.0696     0.4951 C.ar    
   3 C3             2.3585    -0.0296     0.1248 C.ar    
   4 C4             2.3009     1.3669    -0.0299 C.ar    
   5 C5             1.0852     2.0259     0.0808 C.ar    
   6 N6             3.6538    -0.3972    -0.0328 N.2     
   7 C7             4.3869     0.6636    -0.2706 C.2     
   8 N8             3.5958     1.7809    -0.2790 N.pl3   
   9 C9             5.8471     0.6544    -0.4962 C.2     
  10 C10            6.6814    -0.4871    -0.4927 C.2     
  11 C11            7.9484    -0.0738    -0.7384 C.2     
  12 N12            7.9238     1.2764    -0.8924 N.pl3   
  13 N13            6.6001     1.7086    -0.7418 N.2     
  14 N14            6.2704    -1.8130    -0.2733 N.am    
  15 C15            7.1750    -2.8117    -0.2975 C.2     
  16 O16            8.3469    -2.5656    -0.5092 O.2     
  17 C17            1.1841    -0.7411     0.3893 C.ar    
  18 N18            6.7809    -4.0833    -0.0870 N.am    
  19 C19            7.7017    -5.1307    -0.2084 C.ar    
  20 C20           -1.2778    -0.8372     0.7801 C.3     
  21 N21           -1.8988    -1.2455    -0.4870 N.3     
  22 C22           -2.9987    -2.1925    -0.2535 C.3     
  23 C23           -0.9015    -1.8205    -1.4013 C.3     
  24 C24           -1.5782    -2.1763    -2.7276 C.3     
  25 O25           -2.6640    -3.0729    -2.4776 O.3     
  26 C26           -3.6544    -2.5446    -1.5914 C.3     
  27 C27            9.0208    -4.9460     0.1839 C.ar    
  28 C28            9.9273    -5.9809     0.0631 C.ar    
  29 C29            9.5221    -7.2011    -0.4488 C.ar    
  30 C30            8.2081    -7.3876    -0.8408 C.ar    
  31 C31            7.2961    -6.3579    -0.7159 C.ar    
  32 Cl32          10.6641    -8.4998    -0.5999 Cl      
  33 H33           -1.0098     1.8224     0.4234 H       
  34 H34            1.0382     3.0984    -0.0376 H       
  35 H35            3.8892     2.6927    -0.4318 H       
  36 H36            8.8224    -0.7051    -0.8004 H       
  37 H37            8.6896     1.8421    -1.0778 H       
  38 H38            5.3356    -2.0094    -0.1044 H       
  39 H39            1.2160    -1.8138     0.5104 H       
  40 H40            5.8592    -4.2726     0.1485 H       
  41 H41           -1.0405    -1.7223     1.3703 H       
  42 H42           -1.9692    -0.2042     1.3363 H       
  43 H43           -2.6070    -3.0983     0.2094 H       
  44 H44           -3.7378    -1.7367     0.4053 H       
  45 H45           -0.1097    -1.0931    -1.5803 H       
  46 H46           -0.4762    -2.7203    -0.9567 H       
  47 H47           -1.9566    -1.2688    -3.1982 H       
  48 H48           -0.8554    -2.6553    -3.3881 H       
  49 H49           -4.4332    -3.2900    -1.4300 H       
  50 H50           -4.0931    -1.6478    -2.0289 H       
  51 H51            9.3378    -3.9937     0.5827 H       
  52 H52           10.9535    -5.8378     0.3680 H       
  53 H53            7.8945    -8.3406    -1.2407 H       
  54 H54            6.2708    -6.5040    -1.0221 H       
@<TRIPOS>BOND
   1    1    2 ar
   2    1    5 ar
   3    1   33 1
   4    2   17 ar
   5    2   20 1
   6    3    4 ar
   7    3    6 1
   8    3   17 ar
   9    4    5 ar
  10    4    8 1
  11    5   34 1
  12    6    7 2
  13    7    8 1
  14    7    9 1
  15    8   35 1
  16    9   10 1
  17    9   13 2
  18   10   11 2
  19   10   14 1
  20   11   12 1
  21   11   36 1
  22   12   13 1
  23   12   37 1
  24   14   15 am
  25   14   38 1
  26   15   16 2
  27   15   18 am
  28   17   39 1
  29   18   19 1
  30   18   40 1
  31   19   27 ar
  32   19   31 ar
  33   20   21 1
  34   20   41 1
  35   20   42 1
  36   21   22 1
  37   21   23 1
  38   22   26 1
  39   22   43 1
  40   22   44 1
  41   23   24 1
  42   23   45 1
  43   23   46 1
  44   24   25 1
  45   24   47 1
  46   24   48 1
  47   25   26 1
  48   26   49 1
  49   26   50 1
  50   27   28 ar
  51   27   51 1
  52   28   29 ar
  53   28   52 1
  54   29   30 ar
  55   29   32 1
  56   30   31 ar
  57   30   53 1
  58   31   54 1

#	End of record

