#	Name: ASD00170762
#	Creating user name:	WinNT
#	Creation time:	15. 06. 2019 18:32

#	Modifying user name:	WinNT
#	Modification time:	15. 06. 2019 18:32

#	Program:	/corina/corina34_cracker 3.40 0067  02.08.2006

@<TRIPOS>MOLECULE
ASD00170762
  63   67    0    0    0
SMALL
NO_CHARGES


@<TRIPOS>ATOM
   1 C1            -3.8126    -3.1708     3.6752 C.3     
   2 C2            -2.6759    -3.4241     2.7187 C.ar    
   3 C3            -1.4450    -2.8318     2.9394 C.ar    
   4 C4            -0.4004    -3.0595     2.0678 C.ar    
   5 C5            -0.5871    -3.8899     0.9613 C.ar    
   6 C6            -1.8313    -4.4847     0.7447 C.ar    
   7 C7            -2.8662    -4.2524     1.6268 C.ar    
   8 C8             0.5283    -4.1381     0.0224 C.2     
   9 O9             1.6068    -3.6036     0.2035 O.2     
  10 C10            0.3351    -5.0278    -1.1264 C.2     
  11 C11            0.0285    -4.5723    -2.3879 C.2     
  12 S12           -0.1229    -5.8810    -3.4716 S.3     
  13 C13            0.2311    -7.0477    -2.2074 C.2     
  14 C14            0.4507    -6.4182    -1.0445 C.2     
  15 C15            0.7813    -7.1431     0.2347 C.3     
  16 C16            2.2943    -7.3514     0.3264 C.3     
  17 C17            2.9951    -5.9919     0.3609 C.3     
  18 C18            2.6256    -8.1286     1.6020 C.3     
  19 C19            2.7750    -8.1423    -0.8920 C.3     
  20 C20            0.2854    -8.5122    -2.3994 C.ar    
  21 C21           -0.4278    -9.3578    -1.5481 C.ar    
  22 C22           -0.3732   -10.7237    -1.7331 C.ar    
  23 C23            0.3864   -11.2560    -2.7599 C.ar    
  24 C24            1.0957   -10.4235    -3.6073 C.ar    
  25 C25            1.0454    -9.0555    -3.4366 C.ar    
  26 N26           -0.1344    -3.2383    -2.7301 N.am    
  27 C27            0.8594    -2.4322    -3.1451 C.2     
  28 O28            2.0233    -2.7525    -3.2778 O.2     
  29 C29            0.2978    -1.0917    -3.4130 C.ar    
  30 C30           -1.0791    -1.1857    -3.1242 C.ar    
  31 C31           -1.3080    -2.5816    -2.6962 C.2     
  32 O32           -2.3754    -3.0546    -2.3621 O.2     
  33 C33           -1.8931    -0.0751    -3.2796 C.ar    
  34 C34           -1.3471     1.1210    -3.7183 C.ar    
  35 C35            0.0028     1.2132    -4.0015 C.ar    
  36 C36            0.8295     0.1108    -3.8504 C.ar    
  37 H37           -4.3227    -2.2484     3.3972 H       
  38 H38           -4.5161    -4.0022     3.6318 H       
  39 H39           -3.4212    -3.0784     4.6883 H       
  40 H40           -1.3019    -2.1896     3.7958 H       
  41 H41            0.5597    -2.5961     2.2408 H       
  42 H42           -1.9823    -5.1281    -0.1094 H       
  43 H43           -3.8292    -4.7122     1.4606 H       
  44 H44            0.4438    -6.5511     1.0854 H       
  45 H45            0.2800    -8.1109     0.2438 H       
  46 H46            2.6527    -5.4285     1.2289 H       
  47 H47            4.0730    -6.1403     0.4262 H       
  48 H48            2.7591    -5.4382    -0.5479 H       
  49 H49            2.1263    -9.0971     1.5774 H       
  50 H50            3.7035    -8.2770     1.6673 H       
  51 H51            2.2832    -7.5652     2.4700 H       
  52 H52            2.6130    -7.5531    -1.7946 H       
  53 H53            3.8375    -8.3613    -0.7869 H       
  54 H54            2.2168    -9.0758    -0.9625 H       
  55 H55           -1.0208    -8.9436    -0.7460 H       
  56 H56           -0.9242   -11.3791    -1.0749 H       
  57 H57            0.4260   -12.3261    -2.9002 H       
  58 H58            1.6866   -10.8453    -4.4069 H       
  59 H59            1.5995    -8.4067    -4.0988 H       
  60 H60           -2.9485    -0.1413    -3.0602 H       
  61 H61           -1.9808     1.9870    -3.8401 H       
  62 H62            0.4163     2.1508    -4.3426 H       
  63 H63            1.8834     0.1887    -4.0731 H       
@<TRIPOS>BOND
   1    1    2 1
   2    1   37 1
   3    1   38 1
   4    1   39 1
   5    2    3 ar
   6    2    7 ar
   7    3    4 ar
   8    3   40 1
   9    4    5 ar
  10    4   41 1
  11    5    6 ar
  12    5    8 1
  13    6    7 ar
  14    6   42 1
  15    7   43 1
  16    8    9 2
  17    8   10 1
  18   10   11 2
  19   10   14 1
  20   11   12 1
  21   11   26 1
  22   12   13 1
  23   13   14 2
  24   13   20 1
  25   14   15 1
  26   15   16 1
  27   15   44 1
  28   15   45 1
  29   16   17 1
  30   16   18 1
  31   16   19 1
  32   17   46 1
  33   17   47 1
  34   17   48 1
  35   18   49 1
  36   18   50 1
  37   18   51 1
  38   19   52 1
  39   19   53 1
  40   19   54 1
  41   20   21 ar
  42   20   25 ar
  43   21   22 ar
  44   21   55 1
  45   22   23 ar
  46   22   56 1
  47   23   24 ar
  48   23   57 1
  49   24   25 ar
  50   24   58 1
  51   25   59 1
  52   26   27 am
  53   26   31 am
  54   27   28 2
  55   27   29 1
  56   29   30 ar
  57   29   36 ar
  58   30   31 1
  59   30   33 ar
  60   31   32 2
  61   33   34 ar
  62   33   60 1
  63   34   35 ar
  64   34   61 1
  65   35   36 ar
  66   35   62 1
  67   36   63 1

#	End of record

