#	Name: ASD01884317
#	Creating user name:	WinNT
#	Creation time:	15. 06. 2019 19:48

#	Modifying user name:	WinNT
#	Modification time:	15. 06. 2019 19:48

#	Program:	/corina/corina34_cracker 3.40 0067  02.08.2006

@<TRIPOS>MOLECULE
ASD01884317
  62   65    0    0    0
SMALL
NO_CHARGES


@<TRIPOS>ATOM
   1 C1            -0.8937     0.8572    -0.5540 C.2     
   2 C2            -0.9394    -0.5178    -0.3378 C.2     
   3 C3            -2.1620    -1.1121    -0.0222 C.2     
   4 C4            -3.2840    -0.3547     0.0702 C.2     
   5 N5            -3.2472     0.9838    -0.1389 N.am    
   6 C6            -2.0928     1.6081    -0.4404 C.2     
   7 O7            -2.0795     2.8130    -0.6251 O.2     
   8 C8            -4.4820     1.7647    -0.0298 C.3     
   9 C9            -4.6511     2.2413     1.3898 C.ar    
  10 C10            0.3423     1.5029    -0.8795 C.1     
  11 N11            1.3228     2.0151    -1.1376 N.1     
  12 C12            0.3118    -1.3510    -0.4435 C.3     
  13 N13            0.9031    -1.5180     0.8908 N.3     
  14 C14            1.9838    -2.5136     0.8671 C.3     
  15 C15            2.6247    -2.6000     2.2543 C.3     
  16 N16            1.5997    -2.9629     3.2429 N.3     
  17 C17            0.5191    -1.9672     3.2666 C.3     
  18 C18           -0.1218    -1.8809     1.8794 C.3     
  19 C19           -4.1205     3.4579     1.7771 C.ar    
  20 C20           -4.2742     3.8971     3.0779 C.ar    
  21 C21           -4.9617     3.1164     3.9957 C.ar    
  22 C22           -5.4931     1.8960     3.6045 C.ar    
  23 C23           -5.3416     1.4639     2.3012 C.ar    
  24 C24            2.1911    -3.1298     4.5772 C.3     
  25 C25            1.1001    -3.4080     5.5789 C.ar    
  26 N26            0.6110    -2.4191     6.3011 N.ar    
  27 C27           -0.3439    -2.6154     7.1894 C.ar    
  28 C28           -0.8690    -3.8769     7.3956 C.ar    
  29 C29           -0.3797    -4.9419     6.6545 C.ar    
  30 C30            0.6198    -4.6957     5.7260 C.ar    
  31 O31           -5.1138     3.5460     5.2760 O.3     
  32 C32           -5.8329     2.6903     6.1663 C.3     
  33 F33           -5.1781     1.4575     6.2589 F       
  34 F34           -5.8951     3.2815     7.4327 F       
  35 F35           -7.1296     2.4942     5.6790 F       
  36 C36            1.1839    -5.8199     4.8959 C.3     
  37 F37            0.4603    -6.9913     5.1440 F       
  38 F38            1.0885    -5.4914     3.5394 F       
  39 F39            2.5265    -6.0208     5.2338 F       
  40 H40           -2.2153    -2.1772     0.1486 H       
  41 H41           -4.2238    -0.8273     0.3145 H       
  42 H42           -4.4284     2.6243    -0.6978 H       
  43 H43           -5.3318     1.1412    -0.3075 H       
  44 H44            0.0633    -2.3290    -0.8558 H       
  45 H45            1.0265    -0.8518    -1.0978 H       
  46 H46            1.5758    -3.4867     0.5938 H       
  47 H47            2.7362    -2.2163     0.1367 H       
  48 H48            3.4073    -3.3586     2.2466 H       
  49 H49            3.0566    -1.6341     2.5161 H       
  50 H50           -0.2334    -2.2646     3.9969 H       
  51 H51            0.9271    -0.9941     3.5399 H       
  52 H52           -0.9045    -1.1222     1.8870 H       
  53 H53           -0.5538    -2.8468     1.6176 H       
  54 H54           -3.5851     4.0652     1.0623 H       
  55 H55           -3.8592     4.8473     3.3800 H       
  56 H56           -6.0287     1.2864     4.3172 H       
  57 H57           -5.7551     0.5140     1.9961 H       
  58 H58            2.8919    -3.9645     4.5622 H       
  59 H59            2.7181    -2.2179     4.8578 H       
  60 H60           -0.7195    -1.7807     7.7625 H       
  61 H61           -1.6504    -4.0314     8.1250 H       
  62 H62           -0.7708    -5.9388     6.7946 H       
@<TRIPOS>BOND
   1    1    2 2
   2    1   10 1
   3    1    6 1
   4    2    3 1
   5    2   12 1
   6    3    4 2
   7    3   40 1
   8    4    5 1
   9    4   41 1
  10    5    6 am
  11    5    8 1
  12    6    7 2
  13    8    9 1
  14    8   42 1
  15    8   43 1
  16    9   19 ar
  17    9   23 ar
  18   10   11 3
  19   12   13 1
  20   12   44 1
  21   12   45 1
  22   13   14 1
  23   13   18 1
  24   14   15 1
  25   14   46 1
  26   14   47 1
  27   15   16 1
  28   15   48 1
  29   15   49 1
  30   16   17 1
  31   16   24 1
  32   17   18 1
  33   17   50 1
  34   17   51 1
  35   18   52 1
  36   18   53 1
  37   19   20 ar
  38   19   54 1
  39   20   21 ar
  40   20   55 1
  41   21   31 1
  42   21   22 ar
  43   22   23 ar
  44   22   56 1
  45   23   57 1
  46   24   25 1
  47   24   58 1
  48   24   59 1
  49   25   26 ar
  50   25   30 ar
  51   26   27 ar
  52   27   28 ar
  53   27   60 1
  54   28   29 ar
  55   28   61 1
  56   29   30 ar
  57   29   62 1
  58   30   36 1
  59   31   32 1
  60   32   33 1
  61   32   34 1
  62   32   35 1
  63   36   37 1
  64   36   38 1
  65   36   39 1

#	End of record

