#	Name: ASD03090337
#	Creating user name:	WinNT
#	Creation time:	15. 06. 2019 20:28

#	Modifying user name:	WinNT
#	Modification time:	15. 06. 2019 20:28

#	Program:	/corina/corina34_cracker 3.40 0067  02.08.2006

@<TRIPOS>MOLECULE
ASD03090337
  48   50    0    0    0
SMALL
NO_CHARGES


@<TRIPOS>ATOM
   1 N1             0.4459     1.5126     1.4675 N.ar    
   2 C2             1.5492     2.1899     1.2088 C.ar    
   3 C3             2.7234     1.5362     0.8893 C.ar    
   4 C4             2.7301     0.1384     0.8426 C.ar    
   5 C5             1.5378    -0.5376     1.1238 C.ar    
   6 C6             0.4102     0.1943     1.4341 C.ar    
   7 C7             3.9643    -0.6053     0.5043 C.2     
   8 N8             5.7446    -3.4533    -0.5315 N.pl3   
   9 C9             4.8183    -4.4432    -0.8760 C.ar    
  10 C10            3.6018    -4.0896    -1.4448 C.ar    
  11 C11            2.6886    -5.0689    -1.7841 C.ar    
  12 C12            2.9852    -6.4021    -1.5572 C.ar    
  13 C13            4.1979    -6.7571    -0.9900 C.ar    
  14 C14            5.1163    -5.7819    -0.6549 C.ar    
  15 N15            4.0292    -1.8612     0.1104 N.2     
  16 C16            5.3008    -2.1998    -0.1058 C.2     
  17 N17            6.0687    -1.1645     0.1468 N.2     
  18 N18            5.2231    -0.1143     0.5394 N.pl3   
  19 C19            5.6262     1.2415     0.9208 C.3     
  20 C20            5.7319     2.1136    -0.3319 C.3     
  21 C21            6.1466     3.5083     0.0604 C.2     
  22 N22            6.3039     4.4556    -0.8852 N.am    
  23 C23            6.7070     5.8115    -0.5038 C.3     
  24 O24            6.3387     3.7782     1.2271 O.2     
  25 C25            6.0718     4.1296    -2.2944 C.3     
  26 F26            2.0903    -7.3582    -1.8890 F       
  27 Cl27           1.5238     3.9246     1.2706 Cl      
  28 C28            4.5178    -8.2091    -0.7443 C.3     
  29 H29            3.6226     2.0961     0.6784 H       
  30 H30            1.5007    -1.6167     1.0982 H       
  31 H31           -0.5145    -0.3191     1.6526 H       
  32 H32            6.6952    -3.6377    -0.5883 H       
  33 H33            3.3697    -3.0497    -1.6213 H       
  34 H34            1.7424    -4.7944    -2.2265 H       
  35 H35            6.0620    -6.0592    -0.2130 H       
  36 H36            4.8832     1.6649     1.5967 H       
  37 H37            6.5939     1.2056     1.4212 H       
  38 H38            6.4749     1.6902    -1.0077 H       
  39 H39            4.7642     2.1495    -0.8323 H       
  40 H40            7.7947     5.8826    -0.5105 H       
  41 H41            6.2918     6.5271    -1.2133 H       
  42 H42            6.3346     6.0335     0.4963 H       
  43 H43            5.0266     4.3139    -2.5427 H       
  44 H44            6.7095     4.7529    -2.9214 H       
  45 H45            6.3067     3.0794    -2.4679 H       
  46 H46            5.0134    -8.6254    -1.6213 H       
  47 H47            5.1763    -8.2947     0.1201 H       
  48 H48            3.5951    -8.7572    -0.5539 H       
@<TRIPOS>BOND
   1    1    2 ar
   2    1    6 ar
   3    2    3 ar
   4    2   27 1
   5    3    4 ar
   6    3   29 1
   7    4    5 ar
   8    4    7 1
   9    5    6 ar
  10    5   30 1
  11    6   31 1
  12    7   15 2
  13    7   18 1
  14    8    9 1
  15    8   16 1
  16    8   32 1
  17    9   10 ar
  18    9   14 ar
  19   10   11 ar
  20   10   33 1
  21   11   12 ar
  22   11   34 1
  23   12   13 ar
  24   12   26 1
  25   13   14 ar
  26   13   28 1
  27   14   35 1
  28   15   16 1
  29   16   17 2
  30   17   18 1
  31   18   19 1
  32   19   20 1
  33   19   36 1
  34   19   37 1
  35   20   21 1
  36   20   38 1
  37   20   39 1
  38   21   22 am
  39   21   24 2
  40   22   23 1
  41   22   25 1
  42   23   40 1
  43   23   41 1
  44   23   42 1
  45   25   43 1
  46   25   44 1
  47   25   45 1
  48   28   46 1
  49   28   47 1
  50   28   48 1

#	End of record

