#	Name: ASD01884079
#	Creating user name:	WinNT
#	Creation time:	15. 06. 2019 19:47

#	Modifying user name:	WinNT
#	Modification time:	15. 06. 2019 19:47

#	Program:	/corina/corina34_cracker 3.40 0067  02.08.2006

@<TRIPOS>MOLECULE
ASD01884079
  55   57    0    0    0
SMALL
NO_CHARGES


@<TRIPOS>ATOM
   1 C1            -0.1057     0.6810     1.6916 C.2     
   2 C2             0.1067     0.0222     0.4688 C.2     
   3 C3            -0.8838     0.1086    -0.5270 C.2     
   4 C4            -2.0121     0.8150    -0.2975 C.2     
   5 N5            -2.2189     1.4525     0.8842 N.am    
   6 C6            -1.3100     1.4005     1.8756 C.2     
   7 C7             0.8749     0.6205     2.7334 C.1     
   8 N8             1.6529     0.5725     3.5599 N.1     
   9 N9             1.2619    -0.6937     0.2491 N.pl3   
  10 O10           -1.5196     1.9813     2.9271 O.2     
  11 C11           -3.4589     2.2062     1.0858 C.3     
  12 C12           -4.5242     1.2850     1.6837 C.3     
  13 C13           -5.8191     2.0722     1.8943 C.3     
  14 C14            2.5655    -0.0173     0.1686 C.3     
  15 C15            3.5390    -0.7219     1.1194 C.3     
  16 N16            3.5646    -2.1583     0.8127 N.3     
  17 C17            2.2516    -2.7757     1.0423 C.3     
  18 C18            1.2260    -2.1559     0.0945 C.3     
  19 C19            4.5590    -2.8092     1.5466 C.ar    
  20 C20           -6.3767     2.5091     0.5381 C.3     
  21 C21           -6.8442     1.1868     2.6058 C.3     
  22 C22            4.5729    -2.7190     2.9327 C.ar    
  23 C23            5.5329    -3.5528     0.8923 C.ar    
  24 C24            6.5147    -4.1951     1.6210 C.ar    
  25 C25            6.5286    -4.0989     3.0004 C.ar    
  26 C26            5.5575    -3.3637     3.6552 C.ar    
  27 C27           -0.1711    -2.6770     0.4370 C.3     
  28 H28           -0.7418    -0.3895    -1.4747 H       
  29 H29           -2.7651     0.8744    -1.0694 H       
  30 H30           -3.2726     3.0364     1.7671 H       
  31 H31           -3.8086     2.5930     0.1287 H       
  32 H32           -4.7104     0.4548     1.0024 H       
  33 H33           -4.1744     0.8982     2.6408 H       
  34 H34           -5.6142     2.9525     2.5035 H       
  35 H35            2.9449    -0.0736    -0.8517 H       
  36 H36            2.4555     1.0260     0.4644 H       
  37 H37            4.5380    -0.3049     0.9918 H       
  38 H38            3.2121    -0.5756     2.1489 H       
  39 H39            2.3168    -3.8482     0.8588 H       
  40 H40            1.9426    -2.6008     2.0729 H       
  41 H41            1.4746    -2.4156    -0.9345 H       
  42 H42           -7.2992     3.0699     0.6882 H       
  43 H43           -5.6464     3.1398     0.0312 H       
  44 H44           -6.5816     1.6288    -0.0711 H       
  45 H45           -6.4470     0.8755     3.5720 H       
  46 H46           -7.7667     1.7476     2.7559 H       
  47 H47           -7.0491     0.3065     1.9966 H       
  48 H48            3.8147    -2.1450     3.4447 H       
  49 H49            5.5222    -3.6290    -0.1849 H       
  50 H50            7.2722    -4.7734     1.1129 H       
  51 H51            7.2971    -4.6027     3.5679 H       
  52 H52            5.5713    -3.2906     4.7327 H       
  53 H53           -0.4629    -2.3139     1.4225 H       
  54 H54           -0.8840    -2.3214    -0.3069 H       
  55 H55           -0.1619    -3.7670     0.4395 H       
@<TRIPOS>BOND
   1    1    2 2
   2    1    7 1
   3    1    6 1
   4    2    3 1
   5    2    9 1
   6    3    4 2
   7    3   28 1
   8    4    5 1
   9    4   29 1
  10    5   11 1
  11    5    6 am
  12    6   10 2
  13    7    8 3
  14    9   14 1
  15    9   18 1
  16   11   12 1
  17   11   30 1
  18   11   31 1
  19   12   13 1
  20   12   32 1
  21   12   33 1
  22   13   20 1
  23   13   21 1
  24   13   34 1
  25   14   15 1
  26   14   35 1
  27   14   36 1
  28   15   16 1
  29   15   37 1
  30   15   38 1
  31   16   17 1
  32   16   19 1
  33   17   18 1
  34   17   39 1
  35   17   40 1
  36   18   27 1
  37   18   41 1
  38   19   22 ar
  39   19   23 ar
  40   20   42 1
  41   20   43 1
  42   20   44 1
  43   21   45 1
  44   21   46 1
  45   21   47 1
  46   22   26 ar
  47   22   48 1
  48   23   24 ar
  49   23   49 1
  50   24   25 ar
  51   24   50 1
  52   25   26 ar
  53   25   51 1
  54   26   52 1
  55   27   53 1
  56   27   54 1
  57   27   55 1

#	End of record

