#	Name: ASD02408063
#	Creating user name:	WinNT
#	Creation time:	15. 06. 2019 20:21

#	Modifying user name:	WinNT
#	Modification time:	15. 06. 2019 20:21

#	Program:	/corina/corina34_cracker 3.40 0067  02.08.2006

@<TRIPOS>MOLECULE
ASD02408063
  40   42    0    0    0
SMALL
NO_CHARGES


@<TRIPOS>ATOM
   1 C1             0.5437     0.6195    -0.0811 C.ar    
   2 C2             0.8132    -0.7160    -0.3127 C.ar    
   3 C3             1.6681     1.6227    -0.0625 C.3     
   4 C4             1.8794     2.1662    -1.4521 C.2     
   5 N5             2.8455     3.0834    -1.6526 N.am    
   6 N6             1.1237     1.7287    -2.4224 N.2     
   7 C7             1.2664     2.1753    -3.6768 C.2     
   8 C8             2.2518     3.1368    -3.9559 C.2     
   9 C9             3.0625     3.5912    -2.8841 C.2     
  10 N10            0.4585     1.6982    -4.6796 N.pl3   
  11 C11            1.0076     1.4162    -6.0129 C.3     
  12 O12            3.9324     4.4244    -3.0704 O.2     
  13 C13           -0.2194    -1.6370    -0.3302 C.ar    
  14 C14           -1.5209    -1.2202    -0.1158 C.ar    
  15 C15           -1.7892     0.1160     0.1158 C.ar    
  16 C16           -0.7579     1.0362     0.1280 C.ar    
  17 Cl17           0.1183    -3.3147    -0.6217 Cl      
  18 C18            0.6512    -0.0229    -6.3986 C.3     
  19 C19           -0.8629    -0.2163    -6.2886 C.3     
  20 C20           -1.3053     0.0199    -4.8426 C.3     
  21 C21           -0.9700     1.4542    -4.4377 C.3     
  22 C22            2.4359     3.6395    -5.2840 C.1     
  23 N23            2.5821     4.0383    -6.3376 N.1     
  24 H24            1.8295    -1.0407    -0.4804 H       
  25 H25            1.4147     2.4400     0.6127 H       
  26 H26            2.5820     1.1379     0.2809 H       
  27 H27            3.3889     3.3813    -0.9064 H       
  28 H28            0.5772     2.1062    -6.7387 H       
  29 H29            2.0913     1.5317    -5.9938 H       
  30 H30           -2.3273    -1.9385    -0.1297 H       
  31 H31           -2.8053     0.4415     0.2833 H       
  32 H32           -0.9680     2.0800     0.3093 H       
  33 H33            0.9689    -0.2141    -7.4236 H       
  34 H34            1.1563    -0.7156    -5.7255 H       
  35 H35           -1.3682     0.4936    -6.9435 H       
  36 H36           -1.1218    -1.2324    -6.5861 H       
  37 H37           -2.3802    -0.1408    -4.7602 H       
  38 H38           -0.7818    -0.6732    -4.1842 H       
  39 H39           -1.1924     1.5968    -3.3802 H       
  40 H40           -1.5601     2.1498    -5.0344 H       
@<TRIPOS>BOND
   1    1    2 ar
   2    1    3 1
   3    1   16 ar
   4    2   13 ar
   5    2   24 1
   6    3    4 1
   7    3   25 1
   8    3   26 1
   9    4    5 1
  10    4    6 2
  11    5    9 am
  12    5   27 1
  13    6    7 1
  14    7    8 2
  15    7   10 1
  16    8    9 1
  17    8   22 1
  18    9   12 2
  19   10   11 1
  20   10   21 1
  21   11   18 1
  22   11   28 1
  23   11   29 1
  24   13   14 ar
  25   13   17 1
  26   14   15 ar
  27   14   30 1
  28   15   16 ar
  29   15   31 1
  30   16   32 1
  31   18   19 1
  32   18   33 1
  33   18   34 1
  34   19   20 1
  35   19   35 1
  36   19   36 1
  37   20   21 1
  38   20   37 1
  39   20   38 1
  40   21   39 1
  41   21   40 1
  42   22   23 3

#	End of record

