#	Name: ASD03082315
#	Creating user name:	WinNT
#	Creation time:	15. 06. 2019 20:27

#	Modifying user name:	WinNT
#	Modification time:	15. 06. 2019 20:27

#	Program:	/corina/corina34_cracker 3.40 0067  02.08.2006

@<TRIPOS>MOLECULE
ASD03082315
  45   48    0    0    0
SMALL
NO_CHARGES


@<TRIPOS>ATOM
   1 C1            -0.1364     1.4395     0.1251 C.ar    
   2 C2            -0.1856     0.1214    -0.3081 C.ar    
   3 C3            -1.3964    -0.5500    -0.3455 C.ar    
   4 C4            -2.5627     0.0992     0.0519 C.ar    
   5 C5            -2.5095     1.4146     0.4838 C.ar    
   6 C6            -1.3004     2.0822     0.5260 C.ar    
   7 O7            -1.7125    -1.8232    -0.7228 O.3     
   8 C8            -3.0161    -2.0770    -0.1668 C.3     
   9 O9            -3.6101    -0.7685    -0.0768 O.3     
  10 F10           -3.7625    -2.8982    -1.0186 F       
  11 F11           -2.9051    -2.6548     1.1025 F       
  12 N12            1.0869     2.1187     0.1630 N.pl3   
  13 C13            1.1235     3.4996    -0.0242 C.2     
  14 N14            2.2110     4.2665     0.0903 N.2     
  15 N15            0.0960     4.2498    -0.3464 N.2     
  16 N16            0.5638     5.5711    -0.4345 N.am    
  17 C17            1.8982     5.5222    -0.1509 C.2     
  18 C18            2.8258     6.6736    -0.1192 C.ar    
  19 C19            2.5676     7.7831     0.6930 C.ar    
  20 C20            3.4601     8.8356     0.6923 C.ar    
  21 N21            4.5436     8.8061    -0.0591 N.ar    
  22 C22            4.8271     7.7815    -0.8396 C.ar    
  23 C23            3.9913     6.6815    -0.8976 C.ar    
  24 C24            6.0809     7.8078    -1.6753 C.3     
  25 C25           -0.1587     6.6667    -0.7412 C.2     
  26 N26           -1.4518     6.5424    -1.1004 N.am    
  27 O27            0.3556     7.7665    -0.6938 O.2     
  28 C28           -2.2372     7.7332    -1.4338 C.3     
  29 C29           -3.6621     7.3171    -1.8043 C.3     
  30 F30            4.2884     5.6353    -1.6991 F       
  31 H31            0.7200    -0.3801    -0.6160 H       
  32 H32           -3.4141     1.9179     0.7916 H       
  33 H33           -1.2617     3.1074     0.8635 H       
  34 H34            1.9091     1.6286     0.3197 H       
  35 H35            1.6826     7.8156     1.3111 H       
  36 H36            3.2683     9.6962     1.3160 H       
  37 H37            6.9043     7.3731    -1.1086 H       
  38 H38            5.9224     7.2309    -2.5864 H       
  39 H39            6.3228     8.8383    -1.9352 H       
  40 H40           -1.8624     5.6643    -1.1382 H       
  41 H41           -2.2660     8.4020    -0.5735 H       
  42 H42           -1.7775     8.2470    -2.2781 H       
  43 H43           -3.6333     6.6484    -2.6645 H       
  44 H44           -4.1218     6.8034    -0.9599 H       
  45 H45           -4.2465     8.2032    -2.0523 H       
@<TRIPOS>BOND
   1    1    2 ar
   2    1   12 1
   3    1    6 ar
   4    2    3 ar
   5    2   31 1
   6    3    4 ar
   7    3    7 1
   8    4    5 ar
   9    4    9 1
  10    5    6 ar
  11    5   32 1
  12    6   33 1
  13    7    8 1
  14    8    9 1
  15    8   10 1
  16    8   11 1
  17   12   13 1
  18   12   34 1
  19   13   14 1
  20   13   15 2
  21   14   17 2
  22   15   16 1
  23   16   17 1
  24   16   25 am
  25   17   18 1
  26   18   19 ar
  27   18   23 ar
  28   19   20 ar
  29   19   35 1
  30   20   21 ar
  31   20   36 1
  32   21   22 ar
  33   22   23 ar
  34   22   24 1
  35   23   30 1
  36   24   37 1
  37   24   38 1
  38   24   39 1
  39   25   26 am
  40   25   27 2
  41   26   28 1
  42   26   40 1
  43   28   29 1
  44   28   41 1
  45   28   42 1
  46   29   43 1
  47   29   44 1
  48   29   45 1

#	End of record

