#	Name: ASD04230029
#	Creating user name:	WinNT
#	Creation time:	15. 06. 2019 20:48

#	Modifying user name:	WinNT
#	Modification time:	15. 06. 2019 20:48

#	Program:	/corina/corina34_cracker 3.40 0067  02.08.2006

@<TRIPOS>MOLECULE
ASD04230029
  44   47    0    0    0
SMALL
NO_CHARGES


@<TRIPOS>ATOM
   1 C1            -0.0201     1.3790     0.0495 C.ar    
   2 C2            -0.0003    -0.0082     0.0381 C.ar    
   3 C3             1.1848    -0.6863     0.0294 C.ar    
   4 C4             2.3957     0.0212     0.0423 C.ar    
   5 C5             2.3815     1.4276     0.0207 C.ar    
   6 C6             1.1610     2.0997     0.0379 C.ar    
   7 C7             3.6343    -0.6710     0.0722 C.2     
   8 C8             4.7886     0.0708     0.2855 C.2     
   9 C9             4.6293     1.5213     0.4960 C.2     
  10 O10            3.5429     2.1221    -0.0388 O.3     
  11 C11            6.1166    -0.5650     0.3013 C.2     
  12 N12            7.2188     0.1818     0.5109 N.am    
  13 O13            6.2189    -1.7642     0.1252 O.2     
  14 C14            8.4676    -0.4350     0.6381 C.ar    
  15 C15            9.6061     0.1931     0.1483 C.ar    
  16 C16           10.8419    -0.4134     0.2723 C.ar    
  17 C17           10.9522    -1.6461     0.8837 C.ar    
  18 C18            9.8154    -2.2835     1.3785 C.ar    
  19 C19            8.5708    -1.6713     1.2585 C.ar    
  20 C20            9.9322    -3.6087     2.0355 C.ar    
  21 O21            5.4496     2.1573     1.1308 O.2     
  22 C22           11.1737    -4.2367     2.1691 C.ar    
  23 C23           11.2375    -5.4687     2.7871 C.ar    
  24 N24           10.1478    -6.0525     3.2476 N.ar    
  25 C25            8.9573    -5.4939     3.1418 C.ar    
  26 C26            8.8047    -4.2603     2.5429 C.ar    
  27 O27            1.1309     3.4591     0.0425 O.3     
  28 C28           -0.1564     4.0794     0.0604 C.3     
  29 H29           -0.9655     1.9009     0.0629 H       
  30 H30           -0.9306    -0.5567     0.0365 H       
  31 H31            1.1898    -1.7661     0.0130 H       
  32 H32            3.6777    -1.7412    -0.0663 H       
  33 H33            7.1460     1.1470     0.5735 H       
  34 H34            9.5252     1.1576    -0.3309 H       
  35 H35           11.7239     0.0785    -0.1107 H       
  36 H36           11.9195    -2.1171     0.9784 H       
  37 H37            7.6872    -2.1611     1.6402 H       
  38 H38           12.0697    -3.7649     1.7938 H       
  39 H39           12.1923    -5.9618     2.8950 H       
  40 H40            8.0912    -6.0073     3.5325 H       
  41 H41            7.8272    -3.8087     2.4599 H       
  42 H42           -0.7178     3.7769    -0.8236 H       
  43 H43           -0.6957     3.7714     0.9562 H       
  44 H44           -0.0376     5.1629     0.0623 H       
@<TRIPOS>BOND
   1    1    2 ar
   2    1    6 ar
   3    1   29 1
   4    2    3 ar
   5    2   30 1
   6    3    4 ar
   7    3   31 1
   8    4    5 ar
   9    4    7 1
  10    5    6 ar
  11    5   10 1
  12    6   27 1
  13    7    8 2
  14    7   32 1
  15    8    9 1
  16    8   11 1
  17    9   10 1
  18    9   21 2
  19   11   12 am
  20   11   13 2
  21   12   14 1
  22   12   33 1
  23   14   15 ar
  24   14   19 ar
  25   15   16 ar
  26   15   34 1
  27   16   17 ar
  28   16   35 1
  29   17   18 ar
  30   17   36 1
  31   18   19 ar
  32   18   20 1
  33   19   37 1
  34   20   22 ar
  35   20   26 ar
  36   22   23 ar
  37   22   38 1
  38   23   24 ar
  39   23   39 1
  40   24   25 ar
  41   25   26 ar
  42   25   40 1
  43   26   41 1
  44   27   28 1
  45   28   42 1
  46   28   43 1
  47   28   44 1

#	End of record

