#	Name: ASD01840511
#	Creating user name:	WinNT
#	Creation time:	15. 06. 2019 19:37

#	Modifying user name:	WinNT
#	Modification time:	15. 06. 2019 19:37

#	Program:	/corina/corina34_cracker 3.40 0067  02.08.2006

@<TRIPOS>MOLECULE
ASD01840511
  38   40    0    0    0
SMALL
NO_CHARGES


@<TRIPOS>ATOM
   1 C1            -0.0184     1.5028     0.0103 C.3     
   2 C2             0.0021    -0.0041     0.0020 C.ar    
   3 N3             0.0056    -0.6576    -1.1456 N.ar    
   4 N4             0.0231    -1.9361    -1.2106 N.ar    
   5 C5             0.0392    -2.7077    -0.1197 C.ar    
   6 S6             0.0644    -4.4572     0.0312 S.3     
   7 C7             0.0720    -4.3981     1.7843 C.ar    
   8 C8             0.0917    -5.4289     2.7319 C.ar    
   9 C9             0.1104    -6.8701     2.2919 C.3     
  10 C10            1.5590    -7.3370     2.1356 C.3     
  11 C11            2.2852    -7.2034     3.4757 C.3     
  12 C12            1.5779    -8.8002     1.6889 C.3     
  13 C13            2.2625    -6.4742     1.0861 C.3     
  14 N14            0.0942    -5.1217     4.0152 N.ar    
  15 C15            0.0785    -3.8625     4.4114 C.ar    
  16 N16            0.0593    -2.8634     3.5626 N.ar    
  17 C17            0.0558    -3.0826     2.2355 C.ar    
  18 C18            0.0369    -2.1086     1.1378 C.ar    
  19 C19            0.0228    -0.6999     1.1935 C.ar    
  20 C20            0.0250     0.0244     2.5150 C.3     
  21 H21            1.0042     1.8801     0.0026 H       
  22 H22           -0.5455     1.8639    -0.8728 H       
  23 H23           -0.5286     1.8543     0.9071 H       
  24 H24           -0.3908    -7.4848     3.0396 H       
  25 H25           -0.4070    -6.9653     1.3372 H       
  26 H26            1.7840    -7.8181     4.2234 H       
  27 H27            3.3172    -7.5360     3.3644 H       
  28 H28            2.2717    -6.1610     3.7939 H       
  29 H29            1.0605    -8.8953     0.7342 H       
  30 H30            2.6099    -9.1328     1.5776 H       
  31 H31            1.0767    -9.4149     2.4366 H       
  32 H32            2.2490    -5.4318     1.4043 H       
  33 H33            3.2945    -6.8068     0.9748 H       
  34 H34            1.7451    -6.5693     0.1314 H       
  35 H35            0.0811    -3.6482     5.4700 H       
  36 H36           -1.0020     0.1847     2.8432 H       
  37 H37            0.5541    -0.5742     3.2565 H       
  38 H38            0.5245     0.9866     2.4012 H       
@<TRIPOS>BOND
   1    1    2 1
   2    1   21 1
   3    1   22 1
   4    1   23 1
   5    2   19 ar
   6    2    3 ar
   7    3    4 ar
   8    4    5 ar
   9    5   18 ar
  10    5    6 1
  11    6    7 1
  12    7   17 ar
  13    7    8 ar
  14    8    9 1
  15    8   14 ar
  16    9   10 1
  17    9   24 1
  18    9   25 1
  19   10   11 1
  20   10   12 1
  21   10   13 1
  22   11   26 1
  23   11   27 1
  24   11   28 1
  25   12   29 1
  26   12   30 1
  27   12   31 1
  28   13   32 1
  29   13   33 1
  30   13   34 1
  31   14   15 ar
  32   15   16 ar
  33   15   35 1
  34   16   17 ar
  35   17   18 1
  36   18   19 ar
  37   19   20 1
  38   20   36 1
  39   20   37 1
  40   20   38 1

#	End of record

