#	Name: ASD03450003
#	Creating user name:	WinNT
#	Creation time:	15. 06. 2019 20:42

#	Modifying user name:	WinNT
#	Modification time:	15. 06. 2019 20:42

#	Program:	/corina/corina34_cracker 3.40 0067  02.08.2006

@<TRIPOS>MOLECULE
ASD03450003
  43   42    0    0    0
SMALL
NO_CHARGES


@<TRIPOS>ATOM
   1 C1            -0.0173     1.4248     0.0099 C.3     
   2 O2             0.0021    -0.0041     0.0020 O.3     
   3 C3            -1.2953    -0.6030     0.0112 C.3     
   4 C4            -1.1538    -2.1264     0.0017 C.3     
   5 O5            -0.5312    -2.5546     1.2145 O.3     
   6 C6            -0.3510    -3.9691     1.3075 C.3     
   7 C7             0.3203    -4.3113     2.6391 C.3     
   8 O8            -0.5555    -3.9702     3.7155 O.3     
   9 C9            -0.0213    -4.2514     5.0108 C.3     
  10 C10           -1.0384    -3.8484     6.0804 C.3     
  11 O11           -2.2019    -4.6700     5.9648 O.3     
  12 C12           -3.2198    -4.3742     6.9231 C.3     
  13 C13           -4.4113    -5.3094     6.7068 C.3     
  14 O14           -4.0158    -6.6554     6.9786 O.3     
  15 C15           -5.0609    -7.6145     6.8056 C.3     
  16 C16           -4.5272    -9.0130     7.1220 C.3     
  17 C17            1.4181     1.9544    -0.0010 C.3     
  18 H18           -0.5445     1.7859    -0.8732 H       
  19 H19           -0.5275     1.7763     0.9067 H       
  20 H20           -1.8320    -0.2936     0.9080 H       
  21 H21           -1.8490    -0.2840    -0.8718 H       
  22 H22           -2.1404    -2.5824    -0.0809 H       
  23 H23           -0.5414    -2.4291    -0.8477 H       
  24 H24           -1.3210    -4.4634     1.2520 H       
  25 H25            0.2781    -4.3101     0.4852 H       
  26 H26            0.5382    -5.3788     2.6723 H       
  27 H27            1.2485    -3.7478     2.7334 H       
  28 H28            0.1896    -5.3176     5.0932 H       
  29 H29            0.8999    -3.6866     5.1543 H       
  30 H30           -0.5977    -3.9796     7.0686 H       
  31 H31           -1.3163    -2.8035     5.9423 H       
  32 H32           -2.8244    -4.5163     7.9289 H       
  33 H33           -3.5430    -3.3402     6.8025 H       
  34 H34           -5.2220    -5.0263     7.3781 H       
  35 H35           -4.7510    -5.2321     5.6740 H       
  36 H36           -5.8851    -7.3792     7.4789 H       
  37 H37           -5.4141    -7.5850     5.7748 H       
  38 H38           -3.7030    -9.2483     6.4486 H       
  39 H39           -4.1740    -9.0425     8.1528 H       
  40 H40           -5.3244    -9.7446     6.9900 H       
  41 H41            1.9453     1.5933     0.8821 H       
  42 H42            1.9283     1.6028    -0.8978 H       
  43 H43            1.4033     3.0442     0.0050 H       
@<TRIPOS>BOND
   1    1    2 1
   2    1   17 1
   3    1   18 1
   4    1   19 1
   5    2    3 1
   6    3    4 1
   7    3   20 1
   8    3   21 1
   9    4    5 1
  10    4   22 1
  11    4   23 1
  12    5    6 1
  13    6    7 1
  14    6   24 1
  15    6   25 1
  16    7    8 1
  17    7   26 1
  18    7   27 1
  19    8    9 1
  20    9   10 1
  21    9   28 1
  22    9   29 1
  23   10   11 1
  24   10   30 1
  25   10   31 1
  26   11   12 1
  27   12   13 1
  28   12   32 1
  29   12   33 1
  30   13   14 1
  31   13   34 1
  32   13   35 1
  33   14   15 1
  34   15   16 1
  35   15   36 1
  36   15   37 1
  37   16   38 1
  38   16   39 1
  39   16   40 1
  40   17   41 1
  41   17   42 1
  42   17   43 1

#	End of record

