#	Name: ASD01022004
#	Creating user name:	WinNT
#	Creation time:	15. 06. 2019 18:56

#	Modifying user name:	WinNT
#	Modification time:	15. 06. 2019 18:56

#	Program:	/corina/corina34_cracker 3.40 0067  02.08.2006

@<TRIPOS>MOLECULE
ASD01022004
  71   74    0    0    0
SMALL
NO_CHARGES


@<TRIPOS>ATOM
   1 C1            -0.0167     1.3831     0.0096 C.ar    
   2 C2             0.0021    -0.0041     0.0020 C.ar    
   3 C3             1.2141    -0.6789    -0.0132 C.ar    
   4 C4             2.3989     0.0314    -0.0207 C.ar    
   5 C5             2.3774     1.4139    -0.0126 C.ar    
   6 C6             1.1708     2.0889     0.0021 C.ar    
   7 O7            -1.1648    -0.7006     0.0099 O.3     
   8 C8             3.6714     2.1863    -0.0198 C.3     
   9 C9             4.0963     2.4560    -1.4647 C.3     
  10 O10            5.3233     3.1884    -1.4715 O.3     
  11 C11            5.8425     3.5118    -2.6860 C.ar    
  12 C12            5.1787     3.1284    -3.8482 C.ar    
  13 C13            5.6905     3.4476    -5.0863 C.ar    
  14 C14            6.8809     4.1598    -5.1838 C.ar    
  15 C15            7.5538     4.5490    -4.0116 C.ar    
  16 C16            7.0231     4.2240    -2.7616 C.ar    
  17 N17            7.6265     4.6163    -6.2504 N.pl3   
  18 C18            8.7360     5.2738    -5.7940 C.2     
  19 C19            8.7515     5.2687    -4.4517 C.2     
  20 C20            7.2819     4.4256    -7.6614 C.3     
  21 C21            6.3216     5.5306    -8.1057 C.3     
  22 C22            5.9617     5.3315    -9.5794 C.3     
  23 C23            5.0013     6.4366   -10.0237 C.3     
  24 C24            4.6414     6.2374   -11.4974 C.3     
  25 C25            3.6955     7.3259   -11.9350 C.ar    
  26 C26            4.1951     8.5059   -12.4552 C.ar    
  27 C27            3.3314     9.5055   -12.8572 C.ar    
  28 C28            1.9586     9.3245   -12.7386 C.ar    
  29 C29            1.4602     8.1374   -12.2154 C.ar    
  30 C30            2.3298     7.1400   -11.8207 C.ar    
  31 C31           10.8308     4.8228    -3.1762 C.3     
  32 C32            9.8021     5.8864    -3.5652 C.3     
  33 S33            0.8526    10.5974   -13.2497 S.3     
  34 C34           -0.7786     9.8867   -12.8967 C.3     
  35 N35           11.8549     5.4250    -2.3122 N.3     
  36 Cl36          13.0272     4.2677    -1.8532 Cl      
  37 H37           -0.9590     1.9108     0.0170 H       
  38 H38            1.2314    -1.7588    -0.0188 H       
  39 H39            3.3426    -0.4935    -0.0325 H       
  40 H40            1.1567     3.1688     0.0084 H       
  41 H41           -1.5113    -0.8975    -0.8712 H       
  42 H42            3.5318     3.1338     0.5007 H       
  43 H43            4.4441     1.6055     0.4838 H       
  44 H44            4.2359     1.5085    -1.9852 H       
  45 H45            3.3236     3.0369    -1.9683 H       
  46 H46            4.2538     2.5752    -3.7781 H       
  47 H47            5.1676     3.1446    -5.9813 H       
  48 H48            7.5370     4.5212    -1.8594 H       
  49 H49            9.4882     5.7295    -6.4209 H       
  50 H50            8.1882     4.4672    -8.2656 H       
  51 H51            6.8034     3.4548    -7.7906 H       
  52 H52            5.4153     5.4890    -7.5015 H       
  53 H53            6.8001     6.5014    -7.9766 H       
  54 H54            6.8679     5.3731   -10.1836 H       
  55 H55            5.4832     4.3607    -9.7086 H       
  56 H56            4.0950     6.3949    -9.4195 H       
  57 H57            5.4798     7.4074    -9.8945 H       
  58 H58            5.5477     6.2790   -12.1015 H       
  59 H59            4.1629     5.2666   -11.6265 H       
  60 H60            5.2620     8.6460   -12.5468 H       
  61 H61            3.7222    10.4268   -13.2631 H       
  62 H62            0.3939     7.9934   -12.1217 H       
  63 H63            1.9432     6.2172   -11.4140 H       
  64 H64           10.3330     4.0145    -2.6406 H       
  65 H65           11.3017     4.4266    -4.0759 H       
  66 H66           10.2999     6.6947    -4.1009 H       
  67 H67            9.3312     6.2827    -2.6656 H       
  68 H68           -0.9056     8.9671   -13.4679 H       
  69 H69           -0.8564     9.6668   -11.8320 H       
  70 H70           -1.5540    10.5992   -13.1781 H       
  71 H71           12.2867     6.2183    -2.7620 H       
@<TRIPOS>BOND
   1    1    2 ar
   2    1    6 ar
   3    1   37 1
   4    2    3 ar
   5    2    7 1
   6    3    4 ar
   7    3   38 1
   8    4    5 ar
   9    4   39 1
  10    5    6 ar
  11    5    8 1
  12    6   40 1
  13    7   41 1
  14    8    9 1
  15    8   42 1
  16    8   43 1
  17    9   10 1
  18    9   44 1
  19    9   45 1
  20   10   11 1
  21   11   12 ar
  22   11   16 ar
  23   12   13 ar
  24   12   46 1
  25   13   14 ar
  26   13   47 1
  27   14   15 ar
  28   14   17 1
  29   15   16 ar
  30   15   19 1
  31   16   48 1
  32   17   18 1
  33   17   20 1
  34   18   19 2
  35   18   49 1
  36   19   32 1
  37   20   21 1
  38   20   50 1
  39   20   51 1
  40   21   22 1
  41   21   52 1
  42   21   53 1
  43   22   23 1
  44   22   54 1
  45   22   55 1
  46   23   24 1
  47   23   56 1
  48   23   57 1
  49   24   25 1
  50   24   58 1
  51   24   59 1
  52   25   26 ar
  53   25   30 ar
  54   26   27 ar
  55   26   60 1
  56   27   28 ar
  57   27   61 1
  58   28   29 ar
  59   28   33 1
  60   29   30 ar
  61   29   62 1
  62   30   63 1
  63   31   32 1
  64   31   35 1
  65   31   64 1
  66   31   65 1
  67   32   66 1
  68   32   67 1
  69   33   34 1
  70   34   68 1
  71   34   69 1
  72   34   70 1
  73   35   36 1
  74   35   71 1

#	End of record

