#	Name: ASD06610076
#	Creating user name:	WinNT
#	Creation time:	15. 06. 2019 21:07

#	Modifying user name:	WinNT
#	Modification time:	15. 06. 2019 21:07

#	Program:	/corina/corina34_cracker 3.40 0067  02.08.2006

@<TRIPOS>MOLECULE
ASD06610076
 459  460    0    0    0
SMALL
NO_CHARGES


@<TRIPOS>ATOM
   1 C1            -0.3764   -14.3004    -5.2588 C.2     
   2 O2            -0.8873   -15.3988    -5.2018 O.2     
   3 N3             1.7547   -15.4158    -4.9137 N.3     
   4 C4             1.1211   -14.1705    -5.3673 C.3     
   5 C5             1.5056   -13.9039    -6.8240 C.3     
   6 C6             3.0114   -13.6485    -6.9154 C.3     
   7 C7             3.3902   -13.3858    -8.3502 C.2     
   8 O8             2.5399   -13.4013    -9.2141 O.2     
   9 N9             4.6742   -13.1336    -8.6728 N.am    
  10 C10           -3.2561   -12.0954    -5.7155 C.2     
  11 O11           -2.5792   -11.1372    -6.0228 O.2     
  12 N12           -1.1483   -13.1959    -5.2306 N.am    
  13 C13           -2.6044   -13.3222    -5.1312 C.3     
  14 C14           -3.0051   -13.4614    -3.6612 C.3     
  15 C15           -2.3568   -14.7160    -3.0725 C.3     
  16 O16           -2.5633   -12.3120    -2.9361 O.3     
  17 C17           -6.6769   -10.8227    -5.9186 C.2     
  18 O18           -7.1195   -11.7492    -5.2732 O.2     
  19 N19           -4.5913   -12.0631    -5.8965 N.am    
  20 C20           -5.2375   -10.8345    -6.3647 C.3     
  21 C21           -5.1765   -10.7764    -7.8923 C.3     
  22 C22           -5.9020   -11.9894    -8.4782 C.3     
  23 C23           -5.9496   -11.8679   -10.0026 C.3     
  24 C24           -3.7151   -10.7885    -8.3452 C.3     
  25 C25           -9.6789    -8.9026    -6.7338 C.2     
  26 O26           -9.1385    -8.3481    -7.6673 O.2     
  27 N27           -7.4725    -9.7824    -6.2369 N.am    
  28 C28           -8.8718    -9.7708    -5.8033 C.3     
  29 C29           -8.9604    -9.2141    -4.3810 C.3     
  30 C30          -13.2253    -7.8865    -6.9872 C.2     
  31 O31          -13.5626    -8.5206    -6.0099 O.2     
  32 N32          -11.0013    -8.7424    -6.5287 N.am    
  33 C33          -11.7859    -7.8983    -7.4332 C.3     
  34 C34          -16.4253    -6.8489    -8.4178 C.2     
  35 O35          -15.9375    -6.6561    -9.5113 O.2     
  36 N36          -14.1379    -7.1711    -7.6743 N.am    
  37 C37          -15.5372    -7.1596    -7.2407 C.3     
  38 C38          -15.7280    -6.0916    -6.1619 C.3     
  39 C39          -14.9342    -6.4671    -4.9372 C.2     
  40 C40          -14.0130    -5.6989    -4.3249 C.2     
  41 N41          -13.5407    -6.4190    -3.2610 N.pl3   
  42 C42          -14.1901    -7.6031    -3.2602 C.2     
  43 N43          -15.0256    -7.6227    -4.2625 N.2     
  44 C44          -19.9147    -5.8766    -8.9099 C.2     
  45 O45          -20.0948    -5.7126    -7.7218 O.2     
  46 N46          -17.7618    -6.7853    -8.2554 N.am    
  47 C47          -18.6251    -6.4833    -9.3998 C.3     
  48 C48          -18.9269    -7.7731   -10.1654 C.3     
  49 C49          -17.6522    -8.3145   -10.7597 C.ar    
  50 C50          -16.8738    -9.1990   -10.0368 C.ar    
  51 C51          -15.7045    -9.6956   -10.5818 C.ar    
  52 C52          -15.3139    -9.3080   -11.8499 C.ar    
  53 C53          -16.0928    -8.4242   -12.5732 C.ar    
  54 C54          -17.2643    -7.9310   -12.0298 C.ar    
  55 C55          -23.2095    -5.1735   -10.3285 C.2     
  56 O56          -22.9623    -5.7825   -11.3478 O.2     
  57 N57          -20.8678    -5.5162    -9.7920 N.am    
  58 C58          -22.1214    -4.9263    -9.3157 C.3     
  59 C59          -21.9357    -3.4198    -9.1240 C.3     
  60 C60          -20.9204    -3.1690    -8.0073 C.3     
  61 C61          -20.7347    -1.6625    -7.8156 C.3     
  62 N62          -19.7625    -1.4224    -6.7463 N.pl3   
  63 C63          -19.4325    -0.1352    -6.3937 C.2     
  64 N64          -18.5675     0.0784    -5.4423 N.2     
  65 N65          -20.0147     0.9267    -7.0445 N.pl3   
  66 C66          -26.5797    -3.9003   -10.9483 C.2     
  67 O67          -26.4658    -3.0312   -10.1101 O.2     
  68 N68          -24.4575    -4.7179   -10.1016 N.am    
  69 C69          -25.5154    -4.9583   -11.0862 C.3     
  70 C70          -26.1328    -6.3373   -10.8451 C.3     
  71 C71          -25.0828    -7.4189   -11.1069 C.3     
  72 C72          -25.7002    -8.7979   -10.8658 C.3     
  73 C73          -24.6503    -9.8796   -11.1276 C.3     
  74 N74          -25.2431   -11.2036   -10.8961 N.3     
  75 C75          -30.0032    -3.4269   -12.1394 C.2     
  76 O76          -30.0666    -4.5564   -12.5767 O.2     
  77 N77          -27.6581    -3.9200   -11.7564 N.am    
  78 C78          -28.6928    -2.8915   -11.6224 C.3     
  79 C79          -28.2918    -1.6563   -12.4313 C.3     
  80 C80          -27.0279    -1.0400   -11.8283 C.3     
  81 C81          -26.6330     0.1767   -12.6250 C.2     
  82 O82          -27.2945     0.5161   -13.5774 O.2     
  83 O83          -25.5463     0.8834   -12.2765 O.3     
  84 C84          -33.2514    -2.0240   -13.0581 C.2     
  85 O85          -32.8490    -0.8840   -12.9613 O.2     
  86 N86          -31.1046    -2.6506   -12.1157 N.am    
  87 C87          -32.3785    -3.1711   -12.6183 C.3     
  88 C88          -33.0840    -3.9522   -11.5079 C.3     
  89 C89          -32.2559    -5.1873   -11.1479 C.3     
  90 C90          -32.9614    -5.9684   -10.0375 C.3     
  91 N91          -32.1685    -7.1511    -9.6928 N.pl3   
  92 C92          -32.6065    -8.0109    -8.7135 C.2     
  93 N93          -33.7273    -7.7738    -8.0918 N.2     
  94 N94          -31.8624    -9.1208    -8.3901 N.pl3   
  95 C95          -36.7439    -1.4398   -13.8401 C.2     
  96 O96          -37.0806    -2.4696   -13.2949 O.2     
  97 N97          -34.4792    -2.2650   -13.5590 N.am    
  98 C98          -35.2839    -1.1612   -14.0884 C.3     
  99 C99          -35.0389    -1.0271   -15.5927 C.3     
 100 C100         -35.2759    -2.3783   -16.2704 C.3     
 101 C101         -36.7623    -2.7330   -16.1948 C.3     
 102 C102         -33.5961    -0.5803   -15.8367 C.3     
 103 C103         -39.9588    -0.0387   -14.8720 C.2     
 104 O104         -39.4564     0.5919   -15.7780 O.2     
 105 N105         -37.6756    -0.5447   -14.2238 N.am    
 106 C106         -39.0833    -0.7592   -13.8793 C.3     
 107 C107         -39.3527    -0.2173   -12.4741 C.3     
 108 C108         -38.5572    -1.0319   -11.4521 C.3     
 109 C109         -38.8227    -0.4982   -10.0680 C.2     
 110 O110         -39.5713     0.4377    -9.9147 O.2     
 111 O111         -38.2274    -1.0625    -9.0055 O.3     
 112 C112         -43.5992     0.3846   -15.3636 C.2     
 113 O113         -43.8915    -0.2912   -14.3998 O.2     
 114 N114         -41.3001    -0.0951   -14.7529 N.am    
 115 C115         -42.1512     0.6053   -15.7180 C.3     
 116 C116         -46.8260     0.8796   -17.0085 C.2     
 117 O117         -46.3063     1.1440   -18.0720 O.2     
 118 N118         -44.5695     0.9382   -16.1177 N.am    
 119 C119         -45.9771     0.7236   -15.7732 C.3     
 120 C120         -46.4081     1.7516   -14.7251 C.3     
 121 C121         -45.6330     1.5129   -13.4277 C.3     
 122 C122         -45.9711     2.6148   -12.4216 C.3     
 123 C123         -46.0215     0.1529   -12.8444 C.3     
 124 C124         -50.3878     1.2679   -17.7340 C.2     
 125 O125         -50.6685     1.4062   -16.5623 O.2     
 126 N126         -48.1627     0.7254   -16.9316 N.am    
 127 C127         -48.9879     0.8770   -18.1325 C.3     
 128 C128         -49.0263    -0.4485   -18.8957 C.3     
 129 C129         -47.6238    -0.7829   -19.4078 C.3     
 130 C130         -47.6621    -2.1084   -20.1710 C.3     
 131 N131         -46.3193    -2.4285   -20.6613 N.pl3   
 132 C132         -46.1067    -3.5809   -21.3805 C.2     
 133 N133         -47.0998    -4.3885   -21.6259 N.2     
 134 N134         -44.8465    -3.8813   -21.8407 N.pl3   
 135 C135         -53.6545     1.4175   -19.3678 C.2     
 136 O136         -53.2464     0.8520   -20.3601 O.2     
 137 N137         -51.3278     1.4637   -18.6798 N.am    
 138 C138         -52.6886     1.8437   -18.2925 C.3     
 139 C139         -52.7627     3.3613   -18.1127 C.3     
 140 C140         -51.8758     3.7797   -16.9383 C.3     
 141 C141         -51.9499     5.2973   -16.7585 C.3     
 142 C142         -51.0631     5.7157   -15.5841 C.3     
 143 N143         -51.1342     7.1728   -15.4115 N.3     
 144 C144         -57.1394     2.1213   -20.2179 C.2     
 145 O145         -57.2225     3.0016   -19.3878 O.2     
 146 N146         -54.9719     1.6647   -19.2269 N.am    
 147 C147         -55.9108     1.2503   -20.2723 C.3     
 148 C148         -56.3105    -0.2096   -20.0493 C.3     
 149 C149         -55.0842    -1.1070   -20.2279 C.3     
 150 C150         -55.4838    -2.5670   -20.0049 C.3     
 151 N151         -54.3096    -3.4262   -20.1759 N.pl3   
 152 C152         -54.4259    -4.7876   -20.0230 C.2     
 153 N153         -55.5808    -5.3137   -19.7259 N.2     
 154 N154         -53.3240    -5.5939   -20.1834 N.pl3   
 155 C155         -60.5102     2.0246   -21.6292 C.2     
 156 O156         -60.3610     0.8977   -22.0523 O.2     
 157 N157         -58.1459     1.9222   -21.0919 N.am    
 158 C158         -59.3402     2.7689   -21.0391 C.3     
 159 C159         -59.0937     4.0490   -21.8401 C.3     
 160 C160         -57.9883     4.8660   -21.1683 C.3     
 161 C161         -57.7417     6.1461   -21.9692 C.3     
 162 N162         -56.6833     6.9284   -21.3259 N.pl3   
 163 C163         -56.2873     8.1273   -21.8700 C.2     
 164 N164         -55.3455     8.8233   -21.2977 N.2     
 165 N165         -56.8846     8.5920   -23.0178 N.pl3   
 166 C166         -63.8768     2.8748   -22.7720 C.2     
 167 O167         -63.6719     4.0656   -22.6675 O.2     
 168 N168         -61.7223     2.6111   -21.6869 N.am    
 169 C169         -62.8596     1.8875   -22.2605 C.3     
 170 C170         -63.4992     1.0073   -21.1848 C.3     
 171 C171         -62.5066    -0.0745   -20.7545 C.3     
 172 C172         -63.1461    -0.9547   -19.6787 C.3     
 173 N173         -62.1957    -1.9906   -19.2667 N.pl3   
 174 C174         -62.5507    -2.9055   -18.3039 C.2     
 175 N175         -61.7051    -3.8271   -17.9373 N.2     
 176 N176         -63.7976    -2.8482   -17.7277 N.pl3   
 177 C177         -67.3654     2.7500   -23.8571 C.2     
 178 O178         -67.4973     1.6021   -23.4884 O.2     
 179 N179         -65.0143     2.4345   -23.3454 N.am    
 180 C180         -66.0031     3.3943   -23.8425 C.3     
 181 C181         -65.6274     3.8247   -25.2619 C.3     
 182 C182         -64.3024     4.5890   -25.2291 C.3     
 183 C183         -63.8638     4.9109   -26.6591 C.3     
 184 C184         -64.4838     5.8908   -24.4460 C.3     
 185 C185         -70.6480     3.4326   -25.2803 C.2     
 186 O186         -70.2983     4.4285   -25.8776 O.2     
 187 N187         -68.4372     3.4493   -24.2797 N.am    
 188 C188         -69.7764     2.8621   -24.1913 C.3     
 189 C189         -70.3868     3.1874   -22.8266 C.3     
 190 C190         -71.7197     2.4514   -22.6756 C.3     
 191 C191         -71.4647     0.9446   -22.6015 C.3     
 192 C192         -72.4157     2.9145   -21.3942 C.3     
 193 C193         -74.0560     2.9612   -26.5157 C.2     
 194 O194         -74.3929     2.3624   -25.5218 O.2     
 195 N195         -71.8160     2.8360   -25.5905 N.am    
 196 C196         -72.6073     3.3201   -26.7244 C.3     
 197 C197         -72.1015     2.6701   -28.0139 C.3     
 198 O198         -74.9720     3.3066   -27.4340 O.3     
 199 C199           5.0130   -12.8987    -9.9560 C.2     
 200 O200           4.1627   -12.9143   -10.8199 O.2     
 201 C201          17.4300    -9.0035   -23.4405 C.3     
 202 C202          15.9723    -9.2898   -23.0742 C.3     
 203 C203          15.8612    -9.5197   -21.5657 C.3     
 204 C204          14.4036    -9.8059   -21.1994 C.3     
 205 C205          14.2925   -10.0359   -19.6909 C.3     
 206 C206          12.8348   -10.3221   -19.3246 C.3     
 207 C207          12.7237   -10.5520   -17.8161 C.3     
 208 C208          11.2661   -10.8383   -17.4498 C.3     
 209 C209          11.1550   -11.0682   -15.9412 C.3     
 210 C210           9.6973   -11.3545   -15.5750 C.3     
 211 C211           9.5862   -11.5844   -14.0664 C.3     
 212 C212           8.1286   -11.8707   -13.7001 C.3     
 213 C213           8.0175   -12.1006   -12.1916 C.3     
 214 C214           6.5598   -12.3869   -11.8253 C.3     
 215 C215           6.4487   -12.6168   -10.3168 C.3     
 216 H216           1.5687   -15.5808    -3.9358 H       
 217 H217           1.4562   -16.1989    -5.4757 H       
 218 H218           1.4601   -13.3426    -4.7446 H       
 219 H219           1.2464   -14.7702    -7.4326 H       
 220 H220           0.9660   -13.0295    -7.1880 H       
 221 H221           3.2706   -12.7822    -6.3067 H       
 222 H222           3.5509   -14.5228    -6.5514 H       
 223 H223           5.3545   -13.1212    -7.9815 H       
 224 H224          -0.7397   -12.3173    -5.2762 H       
 225 H225          -2.9311   -14.2043    -5.6819 H       
 226 H226          -4.0894   -13.5435    -3.5863 H       
 227 H227          -1.2742   -14.5906    -3.0532 H       
 228 H228          -2.7225   -14.8719    -2.0576 H       
 229 H229          -2.6117   -15.5793    -3.6872 H       
 230 H230          -2.9353   -11.4785    -3.2556 H       
 231 H231          -5.1244   -12.8533    -5.7168 H       
 232 H232          -4.7207    -9.9704    -5.9473 H       
 233 H233          -5.6573    -9.8623    -8.2407 H       
 234 H234          -5.3691   -12.8995    -8.2027 H       
 235 H235          -6.9178   -12.0300    -8.0851 H       
 236 H236          -6.4665   -12.7321   -10.4200 H       
 237 H237          -6.4825   -10.9578   -10.2781 H       
 238 H238          -4.9338   -11.8273   -10.3958 H       
 239 H239          -3.6716   -10.7471    -9.4335 H       
 240 H240          -3.1982    -9.9243    -7.9278 H       
 241 H241          -3.2343   -11.7026    -7.9969 H       
 242 H242          -7.1186    -9.0413    -6.7531 H       
 243 H243          -9.2661   -10.7869    -5.8210 H       
 244 H244          -8.5662    -8.1980    -4.3633 H       
 245 H245         -10.0015    -9.2055    -4.0584 H       
 246 H246          -8.3767    -9.8420    -3.7080 H       
 247 H247         -11.4335    -9.1859    -5.7821 H       
 248 H248         -11.7228    -8.2950    -8.4465 H       
 249 H249         -11.3917    -6.8823    -7.4156 H       
 250 H250         -13.8681    -6.6640    -8.4559 H       
 251 H251         -15.8000    -8.1366    -6.8351 H       
 252 H252         -15.3817    -5.1290    -6.5383 H       
 253 H253         -16.7845    -6.0216    -5.9028 H       
 254 H254         -13.7058    -4.7057    -4.6174 H       
 255 H255         -12.8655    -6.1324    -2.6262 H       
 256 H256         -14.0451    -8.4000    -2.5459 H       
 257 H257         -18.1519    -6.9395    -7.3809 H       
 258 H258         -18.1198    -5.7785   -10.0602 H       
 259 H259         -19.3513    -8.5098    -9.4833 H       
 260 H260         -19.6395    -7.5638   -10.9633 H       
 261 H261         -17.1789    -9.5018    -9.0460 H       
 262 H262         -15.0959   -10.3861   -10.0168 H       
 263 H263         -14.4000    -9.6954   -12.2755 H       
 264 H264         -15.7874    -8.1211   -13.5638 H       
 265 H265         -17.8747    -7.2433   -12.5963 H       
 266 H266         -20.7237    -5.6473   -10.7422 H       
 267 H267         -22.3992    -5.3820    -8.3653 H       
 268 H268         -21.5721    -2.9776   -10.0516 H       
 269 H269         -22.8903    -2.9673    -8.8555 H       
 270 H270         -21.2839    -3.6112    -7.0797 H       
 271 H271         -19.9658    -3.6215    -8.2758 H       
 272 H272         -20.3712    -1.2203    -8.7432 H       
 273 H273         -21.6893    -1.2100    -7.5471 H       
 274 H274         -19.3517    -2.1716    -6.2871 H       
 275 H275         -18.3346     0.9866    -5.1934 H       
 276 H276         -20.6584     0.7677    -7.7525 H       
 277 H277         -19.7818     1.8348    -6.7956 H       
 278 H278         -24.6552    -4.2309    -9.2863 H       
 279 H279         -25.0928    -4.9199   -12.0902 H       
 280 H280         -26.4759    -6.4063    -9.8128 H       
 281 H281         -26.9774    -6.4800   -11.5191 H       
 282 H282         -24.7396    -7.3499   -12.1391 H       
 283 H283         -24.2382    -7.2761   -10.4328 H       
 284 H284         -26.0434    -8.8669    -9.8335 H       
 285 H285         -26.5449    -8.9407   -11.5398 H       
 286 H286         -24.3071    -9.8106   -12.1598 H       
 287 H287         -23.8057    -9.7368   -10.4535 H       
 288 H288         -26.0671   -11.3350   -11.4634 H       
 289 H289         -24.5690   -11.9357   -11.0626 H       
 290 H290         -27.7492    -4.6152   -12.4268 H       
 291 H291         -28.8004    -2.6191   -10.5725 H       
 292 H292         -28.0977    -1.9456   -13.4641 H       
 293 H293         -29.1006    -0.9261   -12.4043 H       
 294 H294         -27.2220    -0.7507   -10.7954 H       
 295 H295         -26.2191    -1.7702   -11.8552 H       
 296 H296         -25.3329     1.6559   -12.8177 H       
 297 H297         -31.0539    -1.7473   -11.7660 H       
 298 H298         -32.1924    -3.8315   -13.4652 H       
 299 H299         -33.1906    -3.3172   -10.6283 H       
 300 H300         -34.0700    -4.2636   -11.8528 H       
 301 H301         -32.1493    -5.8222   -12.0274 H       
 302 H302         -31.2699    -4.8758   -10.8030 H       
 303 H303         -33.0680    -5.3335    -9.1579 H       
 304 H304         -33.9473    -6.2799   -10.3823 H       
 305 H305         -31.3344    -7.3275   -10.1555 H       
 306 H306         -34.0364    -8.3805    -7.4009 H       
 307 H307         -31.0283    -9.2972    -8.8528 H       
 308 H308         -32.1715    -9.7274    -7.6992 H       
 309 H309         -34.8300    -3.1692   -13.5690 H       
 310 H310         -35.0011    -0.2338   -13.5902 H       
 311 H311         -35.7235    -0.2874   -16.0078 H       
 312 H312         -34.9690    -2.3198   -17.3146 H       
 313 H313         -34.6927    -3.1466   -15.7628 H       
 314 H314         -37.0204    -2.9999   -15.1700 H       
 315 H315         -37.3570    -1.8748   -16.5075 H       
 316 H316         -36.9683    -3.5771   -16.8530 H       
 317 H317         -32.9125    -1.2853   -15.3636 H       
 318 H318         -33.4017    -0.5493   -16.9087 H       
 319 H319         -33.4463     0.4121   -15.4114 H       
 320 H320         -37.4141     0.2416   -14.7280 H       
 321 H321         -39.3054    -1.8260   -13.9061 H       
 322 H322         -39.0471     0.8277   -12.4229 H       
 323 H323         -40.4170    -0.2959   -12.2523 H       
 324 H324         -38.8628    -2.0770   -11.5033 H       
 325 H325         -37.4929    -0.9533   -11.6739 H       
 326 H326         -38.4286    -0.6856    -8.1380 H       
 327 H327         -41.7019    -0.5995   -14.0283 H       
 328 H328         -41.9592     0.2192   -16.7191 H       
 329 H329         -41.9291     1.6720   -15.6912 H       
 330 H330         -44.3357     1.4787   -16.8884 H       
 331 H331         -46.1035    -0.2811   -15.3700 H       
 332 H332         -46.1990     2.7559   -15.0937 H       
 333 H333         -47.4764     1.6498   -14.5341 H       
 334 H334         -44.5631     1.5268   -13.6359 H       
 335 H335         -47.0410     2.6010   -12.2134 H       
 336 H336         -45.4189     2.4448   -11.4973 H       
 337 H337         -45.6943     3.5837   -12.8371 H       
 338 H338         -47.0913     0.1390   -12.6363 H       
 339 H339         -45.7806    -0.6321   -13.5612 H       
 340 H340         -45.4693    -0.0171   -11.9202 H       
 341 H341         -48.5784     0.5139   -16.0810 H       
 342 H342         -48.5622     1.6514   -18.7705 H       
 343 H343         -49.3686    -1.2411   -18.2303 H       
 344 H344         -49.7103    -0.3621   -19.7399 H       
 345 H345         -47.2815     0.0097   -20.0732 H       
 346 H346         -46.9398    -0.8693   -18.5636 H       
 347 H347         -48.0045    -2.9010   -19.5056 H       
 348 H348         -48.3462    -2.0220   -21.0152 H       
 349 H349         -45.5802    -1.8275   -20.4787 H       
 350 H350         -46.9498    -5.2015   -22.1333 H       
 351 H351         -44.1073    -3.2803   -21.6580 H       
 352 H352         -44.6964    -4.6943   -22.3480 H       
 353 H353         -51.1033     1.3531   -19.6170 H       
 354 H354         -52.9496     1.3536   -17.3545 H       
 355 H355         -52.4166     3.8523   -19.0223 H       
 356 H356         -53.7934     3.6535   -17.9118 H       
 357 H357         -52.2219     3.2888   -16.0287 H       
 358 H358         -50.8451     3.4875   -17.1392 H       
 359 H359         -51.6039     5.7882   -17.6681 H       
 360 H360         -52.9807     5.5894   -16.5576 H       
 361 H361         -51.4092     5.2247   -14.6745 H       
 362 H362         -50.0324     5.4235   -15.7850 H       
 363 H363         -52.0886     7.4761   -15.2880 H       
 364 H364         -50.5565     7.4743   -14.6412 H       
 365 H365         -55.2983     2.1170   -18.4333 H       
 366 H366         -55.4362     1.3521   -21.2482 H       
 367 H367         -56.7038    -0.3286   -19.0398 H       
 368 H368         -57.0754    -0.4915   -20.7729 H       
 369 H369         -54.6908    -0.9881   -21.2374 H       
 370 H370         -54.3193    -0.8252   -19.5043 H       
 371 H371         -55.8772    -2.6859   -18.9954 H       
 372 H372         -56.2488    -2.8489   -20.7285 H       
 373 H373         -53.4502    -3.0347   -20.3970 H       
 374 H374         -55.6629    -6.2742   -19.6180 H       
 375 H375         -52.4645    -5.2024   -20.4045 H       
 376 H376         -53.4061    -6.5544   -20.0755 H       
 377 H377         -58.0794     1.2182   -21.7559 H       
 378 H378         -59.5583     3.0253   -20.0024 H       
 379 H379         -58.7890     3.7901   -22.8541 H       
 380 H380         -60.0103     4.6377   -21.8753 H       
 381 H381         -58.2930     5.1249   -20.1542 H       
 382 H382         -57.0716     4.2772   -21.1330 H       
 383 H383         -57.4370     5.8872   -22.9832 H       
 384 H384         -58.6584     6.7349   -22.0044 H       
 385 H385         -56.2618     6.6006   -20.5161 H       
 386 H386         -55.0661     9.6692   -21.6816 H       
 387 H387         -57.5854     8.0740   -23.4438 H       
 388 H388         -56.6052     9.4378   -23.4017 H       
 389 H389         -61.8416     3.5123   -21.3485 H       
 390 H390         -62.5145     1.2621   -23.0838 H       
 391 H391         -63.7640     1.6208   -20.3236 H       
 392 H392         -64.3971     0.5376   -21.5862 H       
 393 H393         -62.2417    -0.6879   -21.6157 H       
 394 H394         -61.6086     0.3952   -20.3531 H       
 395 H395         -63.4109    -0.3413   -18.8175 H       
 396 H396         -64.0441    -1.4244   -20.0802 H       
 397 H397         -61.3159    -2.0310   -19.6732 H       
 398 H398         -61.9555    -4.4726   -17.2579 H       
 399 H399         -64.4269    -2.1623   -18.0005 H       
 400 H400         -64.0481    -3.4937   -17.0484 H       
 401 H401         -65.1782     1.4821   -23.4289 H       
 402 H402         -66.0213     4.2678   -23.1908 H       
 403 H403         -65.5224     2.9424   -25.8933 H       
 404 H404         -66.4087     4.4690   -25.6650 H       
 405 H405         -63.5416     3.9767   -24.7448 H       
 406 H406         -64.6245     5.5231   -27.1433 H       
 407 H407         -62.9198     5.4554   -26.6357 H       
 408 H408         -63.7345     3.9834   -27.2169 H       
 409 H409         -65.2446     6.5031   -24.9303 H       
 410 H410         -64.7963     5.6615   -23.4272 H       
 411 H411         -63.5399     6.4353   -24.4226 H       
 412 H412         -68.3218     4.3415   -24.6424 H       
 413 H413         -69.7075     1.7808   -24.3101 H       
 414 H414         -69.7047     2.8691   -22.0383 H       
 415 H415         -70.5543     4.2617   -22.7503 H       
 416 H416         -72.3550     2.6707   -23.5337 H       
 417 H417         -72.4174     0.4162   -22.5677 H       
 418 H418         -70.9042     0.6273   -23.4809 H       
 419 H419         -70.8909     0.7170   -21.7032 H       
 420 H420         -72.5973     3.9880   -21.4469 H       
 421 H421         -73.3652     2.3902   -21.2866 H       
 422 H422         -71.7803     2.6953   -20.5361 H       
 423 H423         -72.1327     2.0861   -25.0630 H       
 424 H424         -72.5086     4.4029   -26.8005 H       
 425 H425         -72.6902     3.0303   -28.8575 H       
 426 H426         -71.0537     2.9297   -28.1648 H       
 427 H427         -72.2002     1.5872   -27.9378 H       
 428 H428         -75.8885     3.0546   -27.2562 H       
 429 H429          17.7695    -8.1131   -22.9113 H       
 430 H430          18.0498    -9.8537   -23.1560 H       
 431 H431          17.5091    -8.8397   -24.5152 H       
 432 H432          15.3525    -8.4395   -23.3588 H       
 433 H433          15.6329   -10.1801   -23.6035 H       
 434 H434          16.4811   -10.3699   -21.2811 H       
 435 H435          16.2007    -8.6293   -21.0365 H       
 436 H436          13.7837    -8.9557   -21.4840 H       
 437 H437          14.0641   -10.6963   -21.7286 H       
 438 H438          14.9123   -10.8861   -19.4063 H       
 439 H439          14.6320    -9.1455   -19.1617 H       
 440 H440          12.2150    -9.4719   -19.6092 H       
 441 H441          12.4953   -11.2125   -19.8538 H       
 442 H442          13.3436   -11.4023   -17.5315 H       
 443 H443          13.0632    -9.6617   -17.2869 H       
 444 H444          10.6462    -9.9881   -17.7343 H       
 445 H445          10.9266   -11.7287   -17.9790 H       
 446 H446          11.7748   -11.9185   -15.6567 H       
 447 H447          11.4945   -10.1778   -15.4120 H       
 448 H448           9.0775   -10.5042   -15.8595 H       
 449 H449           9.3578   -12.2449   -16.1042 H       
 450 H450          10.2061   -12.4347   -13.7819 H       
 451 H451           9.9257   -10.6940   -13.5372 H       
 452 H452           7.5087   -11.0204   -13.9847 H       
 453 H453           7.7891   -12.7611   -14.2293 H       
 454 H454           8.6373   -12.9508   -11.9070 H       
 455 H455           8.3569   -11.2102   -11.6624 H       
 456 H456           5.9400   -11.5366   -12.1099 H       
 457 H457           6.2203   -13.2772   -12.3545 H       
 458 H458           6.7882   -11.7264    -9.7876 H       
 459 H459           7.0686   -13.4670   -10.0322 H       
@<TRIPOS>BOND
   1    1    2 2
   2    1    4 1
   3    1   12 am
   4    3    4 1
   5    3  216 1
   6    3  217 1
   7    4    5 1
   8    4  218 1
   9    5    6 1
  10    5  219 1
  11    5  220 1
  12    6    7 1
  13    6  221 1
  14    6  222 1
  15    7    8 2
  16    7    9 am
  17    9  199 am
  18    9  223 1
  19   10   11 2
  20   10   13 1
  21   10   19 am
  22   12   13 1
  23   12  224 1
  24   13   14 1
  25   13  225 1
  26   14   15 1
  27   14   16 1
  28   14  226 1
  29   15  227 1
  30   15  228 1
  31   15  229 1
  32   16  230 1
  33   17   18 2
  34   17   20 1
  35   17   27 am
  36   19   20 1
  37   19  231 1
  38   20   21 1
  39   20  232 1
  40   21   22 1
  41   21   24 1
  42   21  233 1
  43   22   23 1
  44   22  234 1
  45   22  235 1
  46   23  236 1
  47   23  237 1
  48   23  238 1
  49   24  239 1
  50   24  240 1
  51   24  241 1
  52   25   26 2
  53   25   28 1
  54   25   32 am
  55   27   28 1
  56   27  242 1
  57   28   29 1
  58   28  243 1
  59   29  244 1
  60   29  245 1
  61   29  246 1
  62   30   31 2
  63   30   33 1
  64   30   36 am
  65   32   33 1
  66   32  247 1
  67   33  248 1
  68   33  249 1
  69   34   35 2
  70   34   37 1
  71   34   46 am
  72   36   37 1
  73   36  250 1
  74   37   38 1
  75   37  251 1
  76   38   39 1
  77   38  252 1
  78   38  253 1
  79   39   40 2
  80   39   43 1
  81   40   41 1
  82   40  254 1
  83   41   42 1
  84   41  255 1
  85   42   43 2
  86   42  256 1
  87   44   45 2
  88   44   47 1
  89   44   57 am
  90   46   47 1
  91   46  257 1
  92   47   48 1
  93   47  258 1
  94   48   49 1
  95   48  259 1
  96   48  260 1
  97   49   50 ar
  98   49   54 ar
  99   50   51 ar
 100   50  261 1
 101   51   52 ar
 102   51  262 1
 103   52   53 ar
 104   52  263 1
 105   53   54 ar
 106   53  264 1
 107   54  265 1
 108   55   56 2
 109   55   58 1
 110   55   68 am
 111   57   58 1
 112   57  266 1
 113   58   59 1
 114   58  267 1
 115   59   60 1
 116   59  268 1
 117   59  269 1
 118   60   61 1
 119   60  270 1
 120   60  271 1
 121   61   62 1
 122   61  272 1
 123   61  273 1
 124   62   63 1
 125   62  274 1
 126   63   64 2
 127   63   65 1
 128   64  275 1
 129   65  276 1
 130   65  277 1
 131   66   67 2
 132   66   69 1
 133   66   77 am
 134   68   69 1
 135   68  278 1
 136   69   70 1
 137   69  279 1
 138   70   71 1
 139   70  280 1
 140   70  281 1
 141   71   72 1
 142   71  282 1
 143   71  283 1
 144   72   73 1
 145   72  284 1
 146   72  285 1
 147   73   74 1
 148   73  286 1
 149   73  287 1
 150   74  288 1
 151   74  289 1
 152   75   76 2
 153   75   78 1
 154   75   86 am
 155   77   78 1
 156   77  290 1
 157   78   79 1
 158   78  291 1
 159   79   80 1
 160   79  292 1
 161   79  293 1
 162   80   81 1
 163   80  294 1
 164   80  295 1
 165   81   82 2
 166   81   83 1
 167   83  296 1
 168   84   85 2
 169   84   87 1
 170   84   97 am
 171   86   87 1
 172   86  297 1
 173   87   88 1
 174   87  298 1
 175   88   89 1
 176   88  299 1
 177   88  300 1
 178   89   90 1
 179   89  301 1
 180   89  302 1
 181   90   91 1
 182   90  303 1
 183   90  304 1
 184   91   92 1
 185   91  305 1
 186   92   93 2
 187   92   94 1
 188   93  306 1
 189   94  307 1
 190   94  308 1
 191   95   96 2
 192   95   98 1
 193   95  105 am
 194   97   98 1
 195   97  309 1
 196   98   99 1
 197   98  310 1
 198   99  100 1
 199   99  102 1
 200   99  311 1
 201  100  101 1
 202  100  312 1
 203  100  313 1
 204  101  314 1
 205  101  315 1
 206  101  316 1
 207  102  317 1
 208  102  318 1
 209  102  319 1
 210  103  104 2
 211  103  106 1
 212  103  114 am
 213  105  106 1
 214  105  320 1
 215  106  107 1
 216  106  321 1
 217  107  108 1
 218  107  322 1
 219  107  323 1
 220  108  109 1
 221  108  324 1
 222  108  325 1
 223  109  110 2
 224  109  111 1
 225  111  326 1
 226  112  113 2
 227  112  115 1
 228  112  118 am
 229  114  115 1
 230  114  327 1
 231  115  328 1
 232  115  329 1
 233  116  117 2
 234  116  119 1
 235  116  126 am
 236  118  119 1
 237  118  330 1
 238  119  120 1
 239  119  331 1
 240  120  121 1
 241  120  332 1
 242  120  333 1
 243  121  122 1
 244  121  123 1
 245  121  334 1
 246  122  335 1
 247  122  336 1
 248  122  337 1
 249  123  338 1
 250  123  339 1
 251  123  340 1
 252  124  125 2
 253  124  127 1
 254  124  137 am
 255  126  127 1
 256  126  341 1
 257  127  128 1
 258  127  342 1
 259  128  129 1
 260  128  343 1
 261  128  344 1
 262  129  130 1
 263  129  345 1
 264  129  346 1
 265  130  131 1
 266  130  347 1
 267  130  348 1
 268  131  132 1
 269  131  349 1
 270  132  133 2
 271  132  134 1
 272  133  350 1
 273  134  351 1
 274  134  352 1
 275  135  136 2
 276  135  138 1
 277  135  146 am
 278  137  138 1
 279  137  353 1
 280  138  139 1
 281  138  354 1
 282  139  140 1
 283  139  355 1
 284  139  356 1
 285  140  141 1
 286  140  357 1
 287  140  358 1
 288  141  142 1
 289  141  359 1
 290  141  360 1
 291  142  143 1
 292  142  361 1
 293  142  362 1
 294  143  363 1
 295  143  364 1
 296  144  145 2
 297  144  147 1
 298  144  157 am
 299  146  147 1
 300  146  365 1
 301  147  148 1
 302  147  366 1
 303  148  149 1
 304  148  367 1
 305  148  368 1
 306  149  150 1
 307  149  369 1
 308  149  370 1
 309  150  151 1
 310  150  371 1
 311  150  372 1
 312  151  152 1
 313  151  373 1
 314  152  153 2
 315  152  154 1
 316  153  374 1
 317  154  375 1
 318  154  376 1
 319  155  156 2
 320  155  158 1
 321  155  168 am
 322  157  158 1
 323  157  377 1
 324  158  159 1
 325  158  378 1
 326  159  160 1
 327  159  379 1
 328  159  380 1
 329  160  161 1
 330  160  381 1
 331  160  382 1
 332  161  162 1
 333  161  383 1
 334  161  384 1
 335  162  163 1
 336  162  385 1
 337  163  164 2
 338  163  165 1
 339  164  386 1
 340  165  387 1
 341  165  388 1
 342  166  167 2
 343  166  169 1
 344  166  179 am
 345  168  169 1
 346  168  389 1
 347  169  170 1
 348  169  390 1
 349  170  171 1
 350  170  391 1
 351  170  392 1
 352  171  172 1
 353  171  393 1
 354  171  394 1
 355  172  173 1
 356  172  395 1
 357  172  396 1
 358  173  174 1
 359  173  397 1
 360  174  175 2
 361  174  176 1
 362  175  398 1
 363  176  399 1
 364  176  400 1
 365  177  178 2
 366  177  180 1
 367  177  187 am
 368  179  180 1
 369  179  401 1
 370  180  181 1
 371  180  402 1
 372  181  182 1
 373  181  403 1
 374  181  404 1
 375  182  183 1
 376  182  184 1
 377  182  405 1
 378  183  406 1
 379  183  407 1
 380  183  408 1
 381  184  409 1
 382  184  410 1
 383  184  411 1
 384  185  186 2
 385  185  188 1
 386  185  195 am
 387  187  188 1
 388  187  412 1
 389  188  189 1
 390  188  413 1
 391  189  190 1
 392  189  414 1
 393  189  415 1
 394  190  191 1
 395  190  192 1
 396  190  416 1
 397  191  417 1
 398  191  418 1
 399  191  419 1
 400  192  420 1
 401  192  421 1
 402  192  422 1
 403  193  194 2
 404  193  196 1
 405  193  198 1
 406  195  196 1
 407  195  423 1
 408  196  197 1
 409  196  424 1
 410  197  425 1
 411  197  426 1
 412  197  427 1
 413  198  428 1
 414  199  200 2
 415  199  215 1
 416  201  202 1
 417  201  429 1
 418  201  430 1
 419  201  431 1
 420  202  203 1
 421  202  432 1
 422  202  433 1
 423  203  204 1
 424  203  434 1
 425  203  435 1
 426  204  205 1
 427  204  436 1
 428  204  437 1
 429  205  206 1
 430  205  438 1
 431  205  439 1
 432  206  207 1
 433  206  440 1
 434  206  441 1
 435  207  208 1
 436  207  442 1
 437  207  443 1
 438  208  209 1
 439  208  444 1
 440  208  445 1
 441  209  210 1
 442  209  446 1
 443  209  447 1
 444  210  211 1
 445  210  448 1
 446  210  449 1
 447  211  212 1
 448  211  450 1
 449  211  451 1
 450  212  213 1
 451  212  452 1
 452  212  453 1
 453  213  214 1
 454  213  454 1
 455  213  455 1
 456  214  215 1
 457  214  456 1
 458  214  457 1
 459  215  458 1
 460  215  459 1

#	End of record

