#	Name: ASD01811136
#	Creating user name:	WinNT
#	Creation time:	15. 06. 2019 19:26

#	Modifying user name:	WinNT
#	Modification time:	15. 06. 2019 19:26

#	Program:	/corina/corina34_cracker 3.40 0067  02.08.2006

@<TRIPOS>MOLECULE
ASD01811136
  67   72    0    0    0
SMALL
NO_CHARGES


@<TRIPOS>ATOM
   1 C1            -0.0343     1.3734     0.0098 C.ar    
   2 C2             0.0384    -0.0215    -0.0059 C.ar    
   3 C3             1.3548    -0.6948    -0.0172 C.2     
   4 N4             1.6487    -1.5841    -0.9863 N.am    
   5 O5             2.1720    -0.4463     0.8477 O.2     
   6 C6             2.9838    -2.1924    -1.0644 C.3     
   7 C7            -1.1321    -0.7769    -0.0105 C.ar    
   8 C8            -2.3682    -0.1347     0.0006 C.ar    
   9 C9            -2.4268     1.2602     0.0162 C.ar    
  10 C10           -1.2626     2.0032     0.0264 C.ar    
  11 C11           -3.6162    -0.9289    -0.0047 C.2     
  12 C12            3.5430    -1.9750    -2.4740 C.3     
  13 C13            2.5459    -2.5134    -3.5026 C.3     
  14 C14            1.2252    -1.7493    -3.3838 C.3     
  15 C15            0.6380    -1.9684    -1.9812 C.3     
  16 C16            3.1078    -2.3321    -4.8891 C.ar    
  17 C17            3.3168    -3.4356    -5.6972 C.ar    
  18 C18            3.8304    -3.2768    -6.9676 C.ar    
  19 C19            4.1396    -1.9988    -7.4374 C.ar    
  20 C20            3.9262    -0.8895    -6.6166 C.ar    
  21 C21            3.4070    -1.0623    -5.3503 C.ar    
  22 N22           -3.6762    -2.2395    -0.0191 N.2     
  23 C23            4.6735    -1.8265    -8.7549 C.1     
  24 N24            5.0971    -1.6898    -9.8001 N.1     
  25 C25           -4.9616    -2.6361    -0.0198 C.ar    
  26 C26           -5.7601    -1.4735    -0.0047 C.ar    
  27 N27           -4.8803    -0.4070     0.0105 N.pl3   
  28 C28           -5.6040    -3.8795    -0.0314 C.ar    
  29 C29           -6.9874    -3.9124    -0.0275 C.ar    
  30 N30           -7.7008    -2.7932    -0.0131 N.ar    
  31 C31           -7.1380    -1.5999    -0.0023 C.ar    
  32 N32           -7.6430    -5.1421    -0.0393 N.3     
  33 C33           -9.1063    -4.9608    -0.0328 C.3     
  34 C34           -9.6632    -5.6928    -1.2719 C.3     
  35 C35           -8.5506    -6.7236    -1.5982 C.3     
  36 C36           -7.2715    -5.9291    -1.2345 C.3     
  37 C37            1.2308     2.1923     0.0148 C.3     
  38 H38            3.6425    -1.7231    -0.3336 H       
  39 H39            2.9111    -3.2608    -0.8609 H       
  40 H40           -1.0815    -1.8556    -0.0230 H       
  41 H41           -3.3845     1.7592     0.0245 H       
  42 H42           -1.3134     3.0820     0.0386 H       
  43 H43            3.7003    -0.9097    -2.6427 H       
  44 H44            4.4909    -2.5037    -2.5748 H       
  45 H45            2.3702    -3.5731    -3.3179 H       
  46 H46            1.4043    -0.6861    -3.5439 H       
  47 H47            0.5234    -2.1173    -4.1322 H       
  48 H48            0.3744    -3.0185    -1.8553 H       
  49 H49           -0.2501    -1.3490    -1.8560 H       
  50 H50            3.0775    -4.4235    -5.3324 H       
  51 H51            3.9934    -4.1390    -7.5972 H       
  52 H52            4.1635     0.1017    -6.9737 H       
  53 H53            3.2414    -0.2053    -4.7143 H       
  54 H54           -5.1154     0.5340     0.0236 H       
  55 H55           -5.0314    -4.7951    -0.0435 H       
  56 H56           -7.7574    -0.7153     0.0096 H       
  57 H57           -9.5293    -5.3926     0.8743 H       
  58 H58           -9.3487    -3.8996    -0.0889 H       
  59 H59          -10.5988    -6.1983    -1.0327 H       
  60 H60           -9.8002    -4.9982    -2.1006 H       
  61 H61           -8.6479    -7.6132    -0.9760 H       
  62 H62           -8.5596    -6.9860    -2.6561 H       
  63 H63           -6.9908    -5.2664    -2.0530 H       
  64 H64           -6.4546    -6.6117    -1.0005 H       
  65 H65            1.5825     2.3238    -1.0085 H       
  66 H66            1.0305     3.1676     0.4583 H       
  67 H67            1.9944     1.6777     0.5981 H       
@<TRIPOS>BOND
   1    1    2 ar
   2    1   37 1
   3    1   10 ar
   4    2    3 1
   5    2    7 ar
   6    3    4 am
   7    3    5 2
   8    4    6 1
   9    4   15 1
  10    6   12 1
  11    6   38 1
  12    6   39 1
  13    7    8 ar
  14    7   40 1
  15    8    9 ar
  16    8   11 1
  17    9   10 ar
  18    9   41 1
  19   10   42 1
  20   11   22 2
  21   11   27 1
  22   12   13 1
  23   12   43 1
  24   12   44 1
  25   13   14 1
  26   13   16 1
  27   13   45 1
  28   14   15 1
  29   14   46 1
  30   14   47 1
  31   15   48 1
  32   15   49 1
  33   16   17 ar
  34   16   21 ar
  35   17   18 ar
  36   17   50 1
  37   18   19 ar
  38   18   51 1
  39   19   20 ar
  40   19   23 1
  41   20   21 ar
  42   20   52 1
  43   21   53 1
  44   22   25 1
  45   23   24 3
  46   25   26 ar
  47   25   28 ar
  48   26   27 1
  49   26   31 ar
  50   27   54 1
  51   28   29 ar
  52   28   55 1
  53   29   30 ar
  54   29   32 1
  55   30   31 ar
  56   31   56 1
  57   32   33 1
  58   32   36 1
  59   33   34 1
  60   33   57 1
  61   33   58 1
  62   34   35 1
  63   34   59 1
  64   34   60 1
  65   35   36 1
  66   35   61 1
  67   35   62 1
  68   36   63 1
  69   36   64 1
  70   37   65 1
  71   37   66 1
  72   37   67 1

#	End of record

