#	Name: ASD06620004
#	Creating user name:	WinNT
#	Creation time:	15. 06. 2019 21:07

#	Modifying user name:	WinNT
#	Modification time:	15. 06. 2019 21:07

#	Program:	/corina/corina34_cracker 3.40 0067  02.08.2006

@<TRIPOS>MOLECULE
ASD06620004
  24   25    0    0    0
SMALL
NO_CHARGES


@<TRIPOS>ATOM
   1 C1            -0.0171     1.4072     0.0098 C.2     
   2 C2             0.0021    -0.0041     0.0020 C.2     
   3 C3             1.1969    -0.6543    -0.0129 C.2     
   4 C4             2.3933     0.0859    -0.0203 C.2     
   5 C5             2.3601     1.4335    -0.0123 C.2     
   6 N6             1.1674     2.1013     0.0022 N.pl3   
   7 N7            -1.0113     2.2789     0.0293 N.2     
   8 C8            -0.5020     3.5255     0.0288 C.2     
   9 C9             0.8606     3.4284     0.0127 C.2     
  10 C10           -1.2799     4.7778     0.0473 C.2     
  11 O11           -0.7067     5.8493     0.0444 O.2     
  12 O12           -2.6266     4.7343     0.0675 O.3     
  13 Cl13           1.2451    -2.3896    -0.0221 Cl      
  14 C14           -3.3271     6.0060     0.0849 C.3     
  15 C15           -4.8365     5.7566     0.1064 C.3     
  16 H16           -0.9226    -0.5621     0.0082 H       
  17 H17            3.3431    -0.4281    -0.0322 H       
  18 H18            3.2850     1.9911    -0.0178 H       
  19 H19            1.5624     4.2493     0.0109 H       
  20 H20           -3.0389     6.5674     0.9737 H       
  21 H21           -3.0659     6.5770    -0.8060 H       
  22 H22           -5.3624     6.7113     0.1195 H       
  23 H23           -5.1247     5.1952    -0.7824 H       
  24 H24           -5.0978     5.1856     0.9974 H       
@<TRIPOS>BOND
   1    1    2 1
   2    1    6 1
   3    1    7 2
   4    2    3 2
   5    2   16 1
   6    3    4 1
   7    3   13 1
   8    4    5 2
   9    4   17 1
  10    5    6 1
  11    5   18 1
  12    6    9 1
  13    7    8 1
  14    8    9 2
  15    8   10 1
  16    9   19 1
  17   10   11 2
  18   10   12 1
  19   12   14 1
  20   14   15 1
  21   14   20 1
  22   14   21 1
  23   15   22 1
  24   15   23 1
  25   15   24 1

#	End of record

