#	Name: ASD01910853
#	Creating user name:	WinNT
#	Creation time:	15. 06. 2019 19:56

#	Modifying user name:	WinNT
#	Modification time:	15. 06. 2019 19:56

#	Program:	/corina/corina34_cracker 3.40 0067  02.08.2006

@<TRIPOS>MOLECULE
ASD01910853
  54   57    0    0    0
SMALL
NO_CHARGES


@<TRIPOS>ATOM
   1 C1            -0.0168     1.3842     0.0097 C.ar    
   2 C2             0.0021    -0.0041     0.0020 C.ar    
   3 C3             1.2266    -0.6477    -0.0131 C.ar    
   4 C4             2.3908     0.1134    -0.0202 C.ar    
   5 N5             2.3311     1.4363    -0.0120 N.ar    
   6 C6             1.1776     2.0767     0.0020 C.ar    
   7 N7             3.6279    -0.5202    -0.0354 N.3     
   8 C8             4.7216     0.4605    -0.0406 C.3     
   9 C9             6.0587    -0.2697     0.1253 C.3     
  10 N10            6.1531    -1.3121    -0.9080 N.am    
  11 C11            5.0298    -2.2501    -1.0549 C.3     
  12 C12            3.7333    -1.4420    -1.1743 C.3     
  13 S13            7.4886    -1.4262    -1.8805 S.o2    
  14 C14            8.6304    -2.4993    -1.0747 C.ar    
  15 C15            8.5891    -3.8604    -1.3196 C.ar    
  16 C16            9.4817    -4.7110    -0.6909 C.ar    
  17 C17           10.4199    -4.2065     0.1847 C.ar    
  18 C18           10.4681    -2.8327     0.4367 C.ar    
  19 C19            9.5671    -1.9796    -0.2056 C.ar    
  20 C20           11.4396    -2.3014     1.3447 C.1     
  21 C21           12.2361    -1.8658     2.0891 C.1     
  22 C22           13.2076    -1.3344     2.9971 C.ar    
  23 C23           13.2552     0.0383     3.2484 C.ar    
  24 C24           14.1972     0.5441     4.1280 C.ar    
  25 C25           15.0912    -0.3119     4.7571 C.ar    
  26 C26           15.0462    -1.6719     4.5093 C.ar    
  27 C27           14.1083    -2.1885     3.6398 C.ar    
  28 O28            7.0696    -2.0989    -3.0600 O.2     
  29 O29            8.0880    -0.1379    -1.8919 O.2     
  30 O30           14.2471     1.8795     4.3756 O.3     
  31 C31           15.2440     2.3323     5.2938 C.3     
  32 H32           -0.9562     1.9169     0.0170 H       
  33 H33           -0.9185    -0.5688     0.0081 H       
  34 H34            1.2778    -1.7264    -0.0191 H       
  35 H35            1.1676     3.1567     0.0082 H       
  36 H36            4.7186     1.0037    -0.9855 H       
  37 H37            4.5854     1.1615     0.7829 H       
  38 H38            6.8793     0.4380     0.0077 H       
  39 H39            6.1055    -0.7280     1.1132 H       
  40 H40            5.1703    -2.8518    -1.9528 H       
  41 H41            4.9777    -2.8988    -0.1805 H       
  42 H42            2.8803    -2.1206    -1.1731 H       
  43 H43            3.7441    -0.8723    -2.1035 H       
  44 H44            7.8564    -4.2611    -2.0044 H       
  45 H45            9.4430    -5.7724    -0.8863 H       
  46 H46           11.1156    -4.8715     0.6749 H       
  47 H47            9.5985    -0.9169    -0.0157 H       
  48 H48           12.5597     0.7034     2.7580 H       
  49 H49           15.8250     0.0858     5.4424 H       
  50 H50           15.7448    -2.3321     5.0017 H       
  51 H51           14.0757    -3.2510     3.4489 H       
  52 H52           15.0859     1.8603     6.2635 H       
  53 H53           16.2320     2.0671     4.9174 H       
  54 H54           15.1745     3.4148     5.4009 H       
@<TRIPOS>BOND
   1    1    2 ar
   2    1    6 ar
   3    1   32 1
   4    2    3 ar
   5    2   33 1
   6    3    4 ar
   7    3   34 1
   8    4    5 ar
   9    4    7 1
  10    5    6 ar
  11    6   35 1
  12    7    8 1
  13    7   12 1
  14    8    9 1
  15    8   36 1
  16    8   37 1
  17    9   10 1
  18    9   38 1
  19    9   39 1
  20   10   11 1
  21   10   13 am
  22   11   12 1
  23   11   40 1
  24   11   41 1
  25   12   42 1
  26   12   43 1
  27   13   14 1
  28   13   28 2
  29   13   29 2
  30   14   15 ar
  31   14   19 ar
  32   15   16 ar
  33   15   44 1
  34   16   17 ar
  35   16   45 1
  36   17   18 ar
  37   17   46 1
  38   18   19 ar
  39   18   20 1
  40   19   47 1
  41   20   21 3
  42   21   22 1
  43   22   23 ar
  44   22   27 ar
  45   23   24 ar
  46   23   48 1
  47   24   25 ar
  48   24   30 1
  49   25   26 ar
  50   25   49 1
  51   26   27 ar
  52   26   50 1
  53   27   51 1
  54   30   31 1
  55   31   52 1
  56   31   53 1
  57   31   54 1

#	End of record

