#	Name: ASD01141104
#	Creating user name:	WinNT
#	Creation time:	15. 06. 2019 19:01

#	Modifying user name:	WinNT
#	Modification time:	15. 06. 2019 19:01

#	Program:	/corina/corina34_cracker 3.40 0067  02.08.2006

@<TRIPOS>MOLECULE
ASD01141104
  50   53    0    0    0
SMALL
NO_CHARGES


@<TRIPOS>ATOM
   1 C1             0.0917     1.5697     0.0371 C.ar    
   2 C2            -0.0480     0.1953     0.3520 C.ar    
   3 C3             1.3715     2.0184    -0.3196 C.ar    
   4 N4            -0.9856     2.4279     0.0742 N.pl3   
   5 C5             1.1049    -0.6237     0.2854 C.ar    
   6 C6            -1.2803    -0.3568     0.7199 C.ar    
   7 C7             1.5862     3.4360    -0.6589 C.2     
   8 N8             2.3955     1.1627    -0.3516 N.ar    
   9 C9             0.9886    -1.9964     0.5951 C.ar    
  10 N10            2.2775    -0.0838    -0.0687 N.ar    
  11 C11           -1.3705    -1.6861     1.0147 C.ar    
  12 O12            0.6384     4.1949    -0.7288 O.2     
  13 N13            2.8330     3.8918    -0.8919 N.am    
  14 C14            2.1754    -2.8800     0.5355 C.ar    
  15 C15           -0.2502    -2.5090     0.9566 C.ar    
  16 C16            2.4998    -3.5408    -0.6540 C.ar    
  17 C17            2.9771    -3.0521     1.6629 C.ar    
  18 F18           -0.3692    -3.8214     1.2543 F       
  19 C19            3.6112    -4.3660    -0.7034 C.ar    
  20 O20            1.7259    -3.3738    -1.7588 O.3     
  21 C21            4.0851    -3.8794     1.6010 C.ar    
  22 C22            4.3985    -4.5374     0.4193 C.ar    
  23 C23            2.1175    -4.0797    -2.9380 C.3     
  24 O24            4.8680    -4.0483     2.6999 O.3     
  25 C25            5.9956    -4.9159     2.5660 C.3     
  26 H26           -1.8878     2.0766     0.0148 H       
  27 H27           -0.8418     3.3833     0.1596 H       
  28 H28            3.5890     3.2865    -0.8362 H       
  29 C29            3.0465     5.3013    -1.2293 C.3     
  30 C30            4.4537     5.8125    -0.8781 C.3     
  31 C31            4.4179     6.5876    -2.2058 C.3     
  32 C32            3.4161     5.5326    -2.7040 C.3     
  33 H33           -2.1591     0.2689     0.7708 H       
  34 H34           -2.3247    -2.1050     1.2982 H       
  35 H35            2.7343    -2.5408     2.5827 H       
  36 H36            3.8628    -4.8768    -1.6211 H       
  37 H37            5.2639    -5.1821     0.3760 H       
  38 H38            2.1149    -5.1512    -2.7377 H       
  39 H39            1.4168    -3.8589    -3.7432 H       
  40 H40            3.1195    -3.7676    -3.2324 H       
  41 H41            6.5332    -4.9619     3.5131 H       
  42 H42            5.6551    -5.9147     2.2927 H       
  43 H43            6.6585    -4.5331     1.7901 H       
  44 H44            2.2452     5.9481    -0.8719 H       
  45 H45            4.4778     6.4550     0.0020 H       
  46 H46            5.2093     5.0274    -0.8511 H       
  47 H47            3.9916     7.5868    -2.1167 H       
  48 H48            5.3662     6.5773    -2.7432 H       
  49 H49            3.8880     4.6710    -3.1762 H       
  50 H50            2.6025     5.9492    -3.2979 H       
@<TRIPOS>BOND
   1    1    2 ar
   2    1    3 ar
   3    1    4 1
   4    2    5 ar
   5    2    6 ar
   6    3    7 1
   7    3    8 ar
   8    4   26 1
   9    4   27 1
  10    5    9 ar
  11    5   10 ar
  12    6   11 ar
  13    6   33 1
  14    7   13 am
  15    7   12 2
  16    8   10 ar
  17    9   14 1
  18    9   15 ar
  19   11   15 ar
  20   11   34 1
  21   13   28 1
  22   13   29 1
  23   14   16 ar
  24   14   17 ar
  25   15   18 1
  26   16   19 ar
  27   16   20 1
  28   17   21 ar
  29   17   35 1
  30   19   22 ar
  31   19   36 1
  32   20   23 1
  33   21   22 ar
  34   21   24 1
  35   22   37 1
  36   23   38 1
  37   23   39 1
  38   23   40 1
  39   24   25 1
  40   25   41 1
  41   25   42 1
  42   25   43 1
  43   29   30 1
  44   29   32 1
  45   29   44 1
  46   30   31 1
  47   30   45 1
  48   30   46 1
  49   31   32 1
  50   31   47 1
  51   31   48 1
  52   32   49 1
  53   32   50 1

#	End of record

