#	Name: ASD05060030
#	Creating user name:	WinNT
#	Creation time:	15. 06. 2019 20:56

#	Modifying user name:	WinNT
#	Modification time:	15. 06. 2019 20:56

#	Program:	/corina/corina34_cracker 3.40 0067  02.08.2006

@<TRIPOS>MOLECULE
ASD05060030
 118  119    0    0    0
SMALL
NO_CHARGES


@<TRIPOS>ATOM
   1 N1            -2.4434     5.0649    -3.0196 N.3     
   2 N2            -2.4573     3.7477    -3.6351 N.3     
   3 C3            -3.7643     3.0996    -3.4618 C.3     
   4 C4            -3.8084     2.4090    -2.1230 C.2     
   5 N5            -4.9318     2.5323    -1.3558 N.am    
   6 C6            -4.8944     1.8241    -0.0561 C.3     
   7 C7            -5.8949     2.4655     0.8705 C.2     
   8 N8            -5.6429     2.4812     2.2081 N.am    
   9 C9            -6.6589     3.1247     3.0644 C.3     
  10 C10           -5.9749     4.1125     3.9739 C.2     
  11 N11           -6.5999     5.2954     4.2488 N.am    
  12 C12           -5.8642     6.2078     5.1533 C.3     
  13 C13           -5.7397     7.5526     4.4844 C.2     
  14 N14           -4.6507     8.3249     4.7501 N.am    
  15 C15           -4.5834     9.6311     4.0649 C.3     
  16 C16           -3.2472     9.7519     3.3784 C.2     
  17 N17           -3.1214    10.6219     2.3329 N.am    
  18 C18           -1.7788    10.6786     1.7113 C.3     
  19 C19           -1.9268    10.4621     0.2272 C.2     
  20 C20           -0.9828     9.5661    -0.4911 C.2     
  21 C21           -1.1328     9.3473    -1.9747 C.3     
  22 N22           -0.8414     7.9323    -2.2795 N.am    
  23 C23           -1.6182     7.3409    -3.2279 C.2     
  24 C24           -1.3705     5.8968    -3.5808 C.3     
  25 O25           -2.4974     7.9671    -3.7808 O.2     
  26 O26           -0.0954     9.0138     0.1142 O.2     
  27 O27           -2.8127    11.0164    -0.3786 O.2     
  28 O28           -2.3010     9.0891     3.7476 O.2     
  29 O29           -6.5973     7.9410     3.7199 O.2     
  30 O30           -4.8891     3.8619     4.4526 O.2     
  31 O31           -6.9110     2.9605     0.4306 O.2     
  32 O32           -2.8638     1.7553    -1.7341 O.2     
  33 C33           -0.0256     5.4535    -3.0016 C.3     
  34 C34           -4.8699     4.1552    -3.5278 C.3     
  35 O35           -4.8219     4.8166    -4.7937 O.3     
  36 C36           -7.6788     3.8554     2.1887 C.3     
  37 C37           -6.9527     4.8538     1.2849 C.3     
  38 C38           -7.9092     5.3461     0.1969 C.3     
  39 C39           -8.4308     2.8399     1.3261 C.3     
  40 C40           -5.2561     0.3519    -0.2629 C.3     
  41 C41           -4.1825    -0.3216    -1.1200 C.3     
  42 C42           -4.5442    -1.7937    -1.3268 C.3     
  43 C43           -3.4706    -2.4672    -2.1839 C.3     
  44 N44           -3.8179    -3.8807    -2.3824 N.3     
  45 C45           -5.7034     9.7238     3.0268 C.3     
  46 C46           -5.5056     8.6598     1.9780 C.2     
  47 O47           -4.5617     7.9020     2.0535 O.2     
  48 N48           -6.3776     8.5504     0.9562 N.am    
  49 C49           -1.1503    12.0493     1.9703 C.3     
  50 C50           -1.1483    12.7696     5.5538 C.2     
  51 N51           -0.0090    12.1462     5.4258 N.2     
  52 C52            0.1627    11.7975     4.1421 C.2     
  53 C53           -0.9110    12.2210     3.4482 C.2     
  54 N54           -1.7430    12.8377     4.3433 N.pl3   
  55 C55           -6.6670     5.0316     7.1833 C.2     
  56 C56           -6.6327     6.3575     6.4678 C.3     
  57 O57           -6.1318     4.0661     6.6923 O.2     
  58 O58           -7.2922     4.9233     8.3662 O.3     
  59 C59           -3.5186     8.7095    -1.7504 C.2     
  60 C60           -2.5648     9.6789    -2.3996 C.3     
  61 O61           -3.1072     7.8977    -0.9557 O.2     
  62 O62           -4.8253     8.7480    -2.0550 O.3     
  63 H63           -3.3398     5.5181    -3.1151 H       
  64 H64           -2.2072     3.8020    -4.6111 H       
  65 H65           -3.9142     2.3662    -4.2541 H       
  66 H66           -5.7014     3.0482    -1.6429 H       
  67 H67           -3.8957     1.9011     0.3739 H       
  68 H68           -4.8371     2.0894     2.5796 H       
  69 H69           -7.1650     2.3672     3.6628 H       
  70 H70           -7.4665     5.5223     3.8767 H       
  71 H71           -4.8712     5.8044     5.3512 H       
  72 H72           -3.9543     8.0320     5.3584 H       
  73 H73           -4.6925    10.4327     4.7953 H       
  74 H74           -3.8611    11.1652     2.0190 H       
  75 H75           -1.1467     9.8975     2.1338 H       
  76 H76           -0.4330     9.9882    -2.5110 H       
  77 H77           -0.1323     7.4490    -1.8273 H       
  78 H78           -1.3537     5.7854    -4.6650 H       
  79 H79            0.1534     4.4090    -3.2567 H       
  80 H80            0.7705     6.0708    -3.4180 H       
  81 H81           -0.0424     5.5650    -1.9174 H       
  82 H82           -5.8400     3.6733    -3.4062 H       
  83 H83           -4.7240     4.8845    -2.7311 H       
  84 H84           -5.4963     5.5005    -4.9059 H       
  85 H85           -8.3870     4.3882     2.8233 H       
  86 H86           -6.6119     5.7012     1.8797 H       
  87 H87           -6.0948     4.3669     0.8213 H       
  88 H88           -8.7671     5.8330     0.6606 H       
  89 H89           -7.3919     6.0574    -0.4469 H       
  90 H90           -8.2500     4.4987    -0.3979 H       
  91 H91           -7.7813     1.9903     1.1156 H       
  92 H92           -9.3173     2.4962     1.8591 H       
  93 H93           -8.7296     3.3097     0.3891 H       
  94 H94           -5.3148    -0.1472     0.7044 H       
  95 H95           -6.2201     0.2820    -0.7669 H       
  96 H96           -4.1238     0.1775    -2.0873 H       
  97 H97           -3.2185    -0.2516    -0.6160 H       
  98 H98           -4.6029    -2.2928    -0.3595 H       
  99 H99           -5.5082    -1.8637    -1.8307 H       
 100 H100          -3.4119    -1.9681    -3.1511 H       
 101 H101          -2.5066    -2.3972    -1.6799 H       
 102 H102          -3.1235    -4.3479    -2.9460 H       
 103 H103          -3.9415    -4.3503    -1.4980 H       
 104 H104          -6.6660     9.5765     3.5166 H       
 105 H105          -5.6820    10.7066     2.5559 H       
 106 H106          -7.1326     9.1565     0.8958 H       
 107 H107          -6.2503     7.8656     0.2811 H       
 108 H108          -0.2019    12.1205     1.4379 H       
 109 H109          -1.8242    12.8303     1.6182 H       
 110 H110          -1.5510    13.1620     6.4759 H       
 111 H111           1.0131    11.2700     3.7360 H       
 112 H112          -2.5997    13.2471     4.1451 H       
 113 H113          -6.1366     7.0969     7.0965 H       
 114 H114          -7.6514     6.6836     6.2580 H       
 115 H115          -7.2877     4.0527     8.7871 H       
 116 H116          -2.8104    10.6941    -2.0880 H       
 117 H117          -2.6494     9.6011    -3.4835 H       
 118 H118          -5.3982     8.1063    -1.6131 H       
@<TRIPOS>BOND
   1    1    2 1
   2    1   24 1
   3    1   63 1
   4    2    3 1
   5    2   64 1
   6    3    4 1
   7    3   34 1
   8    3   65 1
   9    4    5 am
  10    4   32 2
  11    5    6 1
  12    5   66 1
  13    6    7 1
  14    6   40 1
  15    6   67 1
  16    7    8 am
  17    7   31 2
  18    8    9 1
  19    8   68 1
  20    9   10 1
  21    9   36 1
  22    9   69 1
  23   10   11 am
  24   10   30 2
  25   11   12 1
  26   11   70 1
  27   12   13 1
  28   12   56 1
  29   12   71 1
  30   13   14 am
  31   13   29 2
  32   14   15 1
  33   14   72 1
  34   15   16 1
  35   15   45 1
  36   15   73 1
  37   16   17 am
  38   16   28 2
  39   17   18 1
  40   17   74 1
  41   18   19 1
  42   18   49 1
  43   18   75 1
  44   19   20 1
  45   19   27 2
  46   20   21 1
  47   20   26 2
  48   21   22 1
  49   21   60 1
  50   21   76 1
  51   22   23 am
  52   22   77 1
  53   23   24 1
  54   23   25 2
  55   24   33 1
  56   24   78 1
  57   33   79 1
  58   33   80 1
  59   33   81 1
  60   34   35 1
  61   34   82 1
  62   34   83 1
  63   35   84 1
  64   36   37 1
  65   36   39 1
  66   36   85 1
  67   37   38 1
  68   37   86 1
  69   37   87 1
  70   38   88 1
  71   38   89 1
  72   38   90 1
  73   39   91 1
  74   39   92 1
  75   39   93 1
  76   40   41 1
  77   40   94 1
  78   40   95 1
  79   41   42 1
  80   41   96 1
  81   41   97 1
  82   42   43 1
  83   42   98 1
  84   42   99 1
  85   43   44 1
  86   43  100 1
  87   43  101 1
  88   44  102 1
  89   44  103 1
  90   45   46 1
  91   45  104 1
  92   45  105 1
  93   46   47 2
  94   46   48 am
  95   48  106 1
  96   48  107 1
  97   49   53 1
  98   49  108 1
  99   49  109 1
 100   50   51 2
 101   50   54 1
 102   50  110 1
 103   51   52 1
 104   52   53 2
 105   52  111 1
 106   53   54 1
 107   54  112 1
 108   55   56 1
 109   55   57 2
 110   55   58 1
 111   56  113 1
 112   56  114 1
 113   58  115 1
 114   59   60 1
 115   59   61 2
 116   59   62 1
 117   60  116 1
 118   60  117 1
 119   62  118 1

#	End of record

