#	Name: ASD01810096
#	Creating user name:	WinNT
#	Creation time:	15. 06. 2019 19:23

#	Modifying user name:	WinNT
#	Modification time:	15. 06. 2019 19:23

#	Program:	/corina/corina34_cracker 3.40 0067  02.08.2006

@<TRIPOS>MOLECULE
ASD01810096
  58   62    0    0    0
SMALL
NO_CHARGES


@<TRIPOS>ATOM
   1 C1            -0.7200     1.9343    -0.5160 C.ar    
   2 C2            -0.8254     0.5586    -0.6379 C.ar    
   3 C3             0.3119    -0.2209    -0.7387 C.ar    
   4 C4             1.5622     0.3773    -0.7181 C.ar    
   5 C5             1.6678     1.7646    -0.5957 C.ar    
   6 C6             0.5222     2.5383    -0.4947 C.ar    
   7 N7             2.8609    -0.1197    -0.7982 N.am    
   8 C8             3.7172     0.9169    -0.7278 C.2     
   9 N9             3.0280     2.0670    -0.6052 N.am    
  10 O10            4.9301     0.8278    -0.7687 O.2     
  11 C11            3.6090     3.4077    -0.5006 C.3     
  12 C12            4.5080     3.4807     0.7368 C.3     
  13 C13            5.1595     4.8637     0.8071 C.3     
  14 N14            5.9498     5.0962    -0.4085 N.3     
  15 C15            5.1000     5.0778    -1.6060 C.3     
  16 C16            4.4466     3.7012    -1.7483 C.3     
  17 C17            6.7009     6.3552    -0.3154 C.3     
  18 C18            7.6051     6.5014    -1.5415 C.3     
  19 C19            8.4121     7.7982    -1.4240 C.3     
  20 N20            7.4819     8.9176    -1.2233 N.am    
  21 C21            6.5075     8.8385    -0.1265 C.3     
  22 C22            5.7218     7.5300    -0.2584 C.3     
  23 C23            7.5219     9.9968    -2.0297 C.2     
  24 O24            6.6803    10.8672    -1.9224 O.2     
  25 C25            8.5895    10.1218    -3.0449 C.ar    
  26 C26            8.2882    10.5903    -4.3243 C.ar    
  27 C27            9.2902    10.7046    -5.2678 C.ar    
  28 C28           10.5906    10.3551    -4.9460 C.ar    
  29 C29           10.8947     9.8896    -3.6791 C.ar    
  30 C30            9.9040     9.7771    -2.7258 C.ar    
  31 Cl31           8.9184    11.2872    -6.8603 Cl      
  32 Cl32          -2.3916    -0.1897    -0.6635 Cl      
  33 H33           -1.6127     2.5375    -0.4418 H       
  34 H34            0.2265    -1.2934    -0.8329 H       
  35 H35            0.6005     3.6113    -0.4003 H       
  36 H36            3.1066    -1.0537    -0.8887 H       
  37 H37            2.8108     4.1450    -0.4149 H       
  38 H38            3.9089     3.3148     1.6321 H       
  39 H39            5.2824     2.7166     0.6696 H       
  40 H40            4.3850     5.6264     0.8882 H       
  41 H41            5.8114     4.9141     1.6792 H       
  42 H42            4.3258     5.8394    -1.5136 H       
  43 H43            5.7086     5.2837    -2.4865 H       
  44 H44            5.2201     2.9405    -1.8546 H       
  45 H45            3.8037     3.6928    -2.6285 H       
  46 H46            7.3117     6.3477     0.5874 H       
  47 H47            8.2865     5.6524    -1.5943 H       
  48 H48            6.9932     6.5341    -2.4429 H       
  49 H49            9.0911     7.7304    -0.5740 H       
  50 H50            8.9833     7.9572    -2.3387 H       
  51 H51            7.0311     8.8555     0.8294 H       
  52 H52            5.8220     9.6838    -0.1850 H       
  53 H53            5.1276     7.5530    -1.1720 H       
  54 H54            5.0628     7.4130     0.6019 H       
  55 H55            7.2739    10.8625    -4.5762 H       
  56 H56           11.3709    10.4458    -5.6872 H       
  57 H57           11.9110     9.6178    -3.4345 H       
  58 H58           10.1432     9.4136    -1.7373 H       
@<TRIPOS>BOND
   1    1    2 ar
   2    1    6 ar
   3    1   33 1
   4    2    3 ar
   5    2   32 1
   6    3    4 ar
   7    3   34 1
   8    4    5 ar
   9    4    7 1
  10    5    6 ar
  11    5    9 1
  12    6   35 1
  13    7    8 am
  14    7   36 1
  15    8    9 am
  16    8   10 2
  17    9   11 1
  18   11   12 1
  19   11   16 1
  20   11   37 1
  21   12   13 1
  22   12   38 1
  23   12   39 1
  24   13   14 1
  25   13   40 1
  26   13   41 1
  27   14   15 1
  28   14   17 1
  29   15   16 1
  30   15   42 1
  31   15   43 1
  32   16   44 1
  33   16   45 1
  34   17   18 1
  35   17   22 1
  36   17   46 1
  37   18   19 1
  38   18   47 1
  39   18   48 1
  40   19   20 1
  41   19   49 1
  42   19   50 1
  43   20   21 1
  44   20   23 am
  45   21   22 1
  46   21   51 1
  47   21   52 1
  48   22   53 1
  49   22   54 1
  50   23   24 2
  51   23   25 1
  52   25   26 ar
  53   25   30 ar
  54   26   27 ar
  55   26   55 1
  56   27   28 ar
  57   27   31 1
  58   28   29 ar
  59   28   56 1
  60   29   30 ar
  61   29   57 1
  62   30   58 1

#	End of record

