#	Name: ASD01914892
#	Creating user name:	WinNT
#	Creation time:	15. 06. 2019 20:04

#	Modifying user name:	WinNT
#	Modification time:	15. 06. 2019 20:04

#	Program:	/corina/corina34_cracker 3.40 0067  02.08.2006

@<TRIPOS>MOLECULE
ASD01914892
  39   41    0    0    0
SMALL
NO_CHARGES


@<TRIPOS>ATOM
   1 N1            -0.0178     1.4648     0.0101 N.3     
   2 C2             0.0021    -0.0041     0.0020 C.3     
   3 C3             0.6750    -0.4958    -1.2827 C.3     
   4 C4             1.0959     0.7200    -2.1177 C.3     
   5 C5             2.0575     1.5766    -1.2844 C.3     
   6 C6             1.3461     2.0114     0.0000 C.3     
   7 C7            -0.8025     1.9884    -1.1166 C.3     
   8 C8            -0.1530     1.5529    -2.4331 C.3     
   9 N9             3.8423    -1.9506    -0.1477 N.pl3   
  10 N10            2.9309    -0.8930    -0.2607 N.2     
  11 C11            1.8913    -1.3146    -0.9342 C.2     
  12 C12            2.1017    -2.6584    -1.2761 C.2     
  13 C13            3.3102    -3.0294    -0.7812 C.2     
  14 S14            0.9944    -3.6830    -2.1866 S.3     
  15 C15            1.8752    -5.2669    -2.2651 C.3     
  16 C16            1.0309    -6.2822    -3.0378 C.3     
  17 C17            1.7626    -7.5980    -3.1030 C.2     
  18 C18            1.1787    -8.6979    -2.6752 C.2     
  19 F19           -0.0763    -8.6468    -2.1778 F       
  20 F20            1.8347    -9.8775    -2.7337 F       
  21 H21            0.5602    -0.3649     0.8660 H       
  22 H22           -1.0195    -0.3818     0.0450 H       
  23 H23           -0.0267    -1.1050    -1.8525 H       
  24 H24            1.5845     0.3934    -3.0357 H       
  25 H25            2.9421     0.9918    -1.0318 H       
  26 H26            2.3506     2.4574    -1.8557 H       
  27 H27            1.3021     3.0998     0.0408 H       
  28 H28            1.8945     1.6366     0.8643 H       
  29 H29           -1.8185     1.5969    -1.0653 H       
  30 H30           -0.8289     3.0769    -1.0667 H       
  31 H31            0.1312     2.4336    -3.0090 H       
  32 H32           -0.8580     0.9511    -3.0066 H       
  33 H33            4.7024    -1.9178     0.2996 H       
  34 H34            3.7662    -4.0040    -0.8745 H       
  35 H35            2.8297    -5.1270    -2.7725 H       
  36 H36            2.0515    -5.6351    -1.2544 H       
  37 H37            0.0763    -6.4220    -2.5304 H       
  38 H38            0.8546    -5.9140    -4.0485 H       
  39 H39            2.7659    -7.6388    -3.5006 H       
@<TRIPOS>BOND
   1    1    2 1
   2    1    6 1
   3    1    7 1
   4    2    3 1
   5    2   21 1
   6    2   22 1
   7    3    4 1
   8    3   11 1
   9    3   23 1
  10    4    5 1
  11    4    8 1
  12    4   24 1
  13    5    6 1
  14    5   25 1
  15    5   26 1
  16    6   27 1
  17    6   28 1
  18    7    8 1
  19    7   29 1
  20    7   30 1
  21    8   31 1
  22    8   32 1
  23    9   10 1
  24    9   13 1
  25    9   33 1
  26   10   11 2
  27   11   12 1
  28   12   13 2
  29   12   14 1
  30   13   34 1
  31   14   15 1
  32   15   16 1
  33   15   35 1
  34   15   36 1
  35   16   17 1
  36   16   37 1
  37   16   38 1
  38   17   18 2
  39   17   39 1
  40   18   19 1
  41   18   20 1

#	End of record

