#	Name: ASD01816444
#	Creating user name:	WinNT
#	Creation time:	15. 06. 2019 19:35

#	Modifying user name:	WinNT
#	Modification time:	15. 06. 2019 19:35

#	Program:	/corina/corina34_cracker 3.40 0067  02.08.2006

@<TRIPOS>MOLECULE
ASD01816444
  54   59    0    0    0
SMALL
NO_CHARGES


@<TRIPOS>ATOM
   1 C1            -0.0167     1.3813     0.0096 C.ar    
   2 C2             0.0021    -0.0041     0.0020 C.ar    
   3 C3             1.1984    -0.6909    -0.0131 C.ar    
   4 C4             2.4015     0.0059    -0.0208 C.ar    
   5 C5             2.3790     1.4106    -0.0130 C.ar    
   6 C6             1.1663     2.0916     0.0022 C.ar    
   7 N7             3.6053    -0.6772    -0.0354 N.pl3   
   8 C8             4.7970    -0.0586    -0.0430 C.2     
   9 C9             4.9000     1.3103    -0.0371 C.2     
  10 C10            3.6670     2.1302    -0.0215 C.2     
  11 C11            5.9971     2.2730    -0.0424 C.2     
  12 N12            5.4245     3.4961    -0.0314 N.am    
  13 N13            4.0323     3.3799    -0.0189 N.2     
  14 C14            6.1259     4.7074    -0.0314 C.ar    
  15 O15            7.1914     2.0229    -0.0541 O.2     
  16 C16            3.5779    -2.1419    -0.0425 C.3     
  17 C17            3.5553    -2.6370    -1.4657 C.ar    
  18 C18            4.7430    -2.8861    -2.1285 C.ar    
  19 C19            4.7254    -3.3395    -3.4331 C.ar    
  20 C20            3.5137    -3.5456    -4.0786 C.ar    
  21 C21            2.3228    -3.2951    -3.4103 C.ar    
  22 C22            2.3467    -2.8468    -2.1041 C.ar    
  23 N23            3.4926    -4.0053    -5.4028 N.pl3   
  24 C24            2.3877    -4.2463    -6.1441 C.2     
  25 C25            2.7941    -4.6753    -7.3615 C.2     
  26 C26            4.1931    -4.6976    -7.3654 C.2     
  27 N27            4.6127    -4.2906    -6.1944 N.2     
  28 C28            7.5150     4.7074    -0.0491 C.ar    
  29 C29            8.2039     5.9041    -0.0490 C.ar    
  30 C30            7.5124     7.1019    -0.0312 C.ar    
  31 C31            6.1299     7.1053    -0.0131 C.ar    
  32 C32            5.4346     5.9118    -0.0194 C.ar    
  33 C33            5.3806     8.4127     0.0072 C.3     
  34 H34           -0.9602     1.9068     0.0169 H       
  35 H35           -0.9288    -0.5516     0.0083 H       
  36 H36            1.2004    -1.7709    -0.0185 H       
  37 H37            1.1506     3.1715     0.0084 H       
  38 H38            5.6983    -0.6536    -0.0536 H       
  39 H39            4.4657    -2.5244     0.4612 H       
  40 H40            2.6861    -2.4911     0.4779 H       
  41 H41            5.6853    -2.7256    -1.6258 H       
  42 H42            5.6534    -3.5332    -3.9505 H       
  43 H43            1.3787    -3.4542    -3.9100 H       
  44 H44            1.4207    -2.6517    -1.5837 H       
  45 H45            1.3646    -4.1197    -5.8222 H       
  46 H46            2.1520    -4.9516    -8.1847 H       
  47 H47            4.8191    -4.9951    -8.1937 H       
  48 H48            8.0555     3.7725    -0.0626 H       
  49 H49            9.2838     5.9048    -0.0624 H       
  50 H50            8.0536     8.0365    -0.0312 H       
  51 H51            4.3547     5.9152    -0.0104 H       
  52 H52            5.1866     8.7362    -1.0155 H       
  53 H53            4.4346     8.2812     0.5324 H       
  54 H54            5.9788     9.1664     0.5193 H       
@<TRIPOS>BOND
   1    1    2 ar
   2    1    6 ar
   3    1   34 1
   4    2    3 ar
   5    2   35 1
   6    3    4 ar
   7    3   36 1
   8    4    5 ar
   9    4    7 1
  10    5    6 ar
  11    5   10 1
  12    6   37 1
  13    7    8 1
  14    7   16 1
  15    8    9 2
  16    8   38 1
  17    9   10 1
  18    9   11 1
  19   10   13 2
  20   11   12 am
  21   11   15 2
  22   12   13 1
  23   12   14 1
  24   14   32 ar
  25   14   28 ar
  26   16   17 1
  27   16   39 1
  28   16   40 1
  29   17   18 ar
  30   17   22 ar
  31   18   19 ar
  32   18   41 1
  33   19   20 ar
  34   19   42 1
  35   20   21 ar
  36   20   23 1
  37   21   22 ar
  38   21   43 1
  39   22   44 1
  40   23   24 1
  41   23   27 1
  42   24   25 2
  43   24   45 1
  44   25   26 1
  45   25   46 1
  46   26   27 2
  47   26   47 1
  48   28   29 ar
  49   28   48 1
  50   29   30 ar
  51   29   49 1
  52   30   31 ar
  53   30   50 1
  54   31   32 ar
  55   31   33 1
  56   32   51 1
  57   33   52 1
  58   33   53 1
  59   33   54 1

#	End of record

