#	Name: ASD00451011
#	Creating user name:	WinNT
#	Creation time:	15. 06. 2019 18:36

#	Modifying user name:	WinNT
#	Modification time:	15. 06. 2019 18:36

#	Program:	/corina/corina34_cracker 3.40 0067  02.08.2006

@<TRIPOS>MOLECULE
ASD00451011
  55   59    0    0    0
SMALL
NO_CHARGES


@<TRIPOS>ATOM
   1 C1             0.0057     1.4672    -0.1707 C.ar    
   2 C2             0.0302     0.0824    -0.2398 C.ar    
   3 N3             1.2039     2.1895    -0.1479 N.am    
   4 C4            -1.2202     2.1410    -0.1296 C.ar    
   5 C5            -1.1524    -0.6313    -0.2632 C.ar    
   6 C6             2.2857     1.6807     0.4744 C.2     
   7 C7            -2.4082     1.4157    -0.1584 C.ar    
   8 C8            -2.3711     0.0322    -0.2178 C.ar    
   9 O9             2.1946     0.6422     1.1004 O.2     
  10 N10            3.4684     2.3229     0.4029 N.am    
  11 O11           -3.5308    -0.6768    -0.2464 O.3     
  12 C12            4.5596     1.8655     1.1510 C.ar    
  13 C13           -3.9142    -1.3179     0.8876 C.ar    
  14 C14            5.8544     2.1211     0.7200 C.ar    
  15 C15            4.3489     1.1602     2.3287 C.ar    
  16 C16           -5.1363    -1.9822     0.9562 C.ar    
  17 C17           -3.0936    -1.3346     2.0132 C.ar    
  18 C18            6.9294     1.6691     1.4603 C.ar    
  19 C19            5.4271     0.7105     3.0651 C.ar    
  20 N20           -6.1792    -2.1743     0.0523 N.am    
  21 C21           -5.4964    -2.6303     2.1380 C.ar    
  22 C22           -3.5178    -1.9973     3.1474 C.ar    
  23 C23            6.7168     0.9617     2.6302 C.ar    
  24 C24           -7.1313    -2.9077     0.6603 C.2     
  25 N25           -6.7479    -3.1922     1.9188 N.am    
  26 N26           -4.6840    -2.6137     3.1840 N.ar    
  27 Cl27           8.0700     0.3940     3.5577 Cl      
  28 O28           -8.1812    -3.2540     0.1519 O.2     
  29 H29            1.2559     3.0563    -0.5800 H       
  30 H30            3.5636     3.1021    -0.1670 H       
  31 H31           -6.2137    -1.8379    -0.8568 H       
  32 H32           -7.2578    -3.7078     2.5631 H       
  33 C33           -1.2536     3.6218    -0.0551 C.ar    
  34 C34           -2.0496     4.3488    -0.9386 C.ar    
  35 C35           -2.0772     5.7266    -0.8644 C.ar    
  36 C36           -1.3168     6.3861     0.0845 C.ar    
  37 C37           -0.5247     5.6698     0.9636 C.ar    
  38 C38           -0.4937     4.2914     0.9023 C.ar    
  39 C39            8.3351     1.9462     0.9930 C.3     
  40 F40            8.2946     2.6701    -0.2035 F       
  41 F41            9.0117     2.6902     1.9655 F       
  42 F42            9.0040     0.7355     0.7831 F       
  43 H43            0.9753    -0.4389    -0.2757 H       
  44 H44           -1.1289    -1.7096    -0.3174 H       
  45 H45           -3.3571     1.9304    -0.1269 H       
  46 H46            6.0209     2.6726    -0.1936 H       
  47 H47            3.3427     0.9639     2.6685 H       
  48 H48           -2.1362    -0.8349     1.9986 H       
  49 H49            5.2637     0.1622     3.9811 H       
  50 H50           -2.8833    -2.0116     4.0213 H       
  51 H51           -2.6434     3.8349    -1.6800 H       
  52 H52           -2.6933     6.2910    -1.5487 H       
  53 H53           -1.3415     7.4645     0.1389 H       
  54 H54            0.0675     6.1900     1.7019 H       
  55 H55            0.1249     3.7331     1.5894 H       
@<TRIPOS>BOND
   1    1    2 ar
   2    1    3 1
   3    1    4 ar
   4    2    5 ar
   5    2   43 1
   6    3   29 1
   7    3    6 am
   8    4   33 1
   9    4    7 ar
  10    5    8 ar
  11    5   44 1
  12    6    9 2
  13    6   10 am
  14    7    8 ar
  15    7   45 1
  16    8   11 1
  17   10   12 1
  18   10   30 1
  19   11   13 1
  20   12   14 ar
  21   12   15 ar
  22   13   16 ar
  23   13   17 ar
  24   14   18 ar
  25   14   46 1
  26   15   19 ar
  27   15   47 1
  28   16   20 1
  29   16   21 ar
  30   17   22 ar
  31   17   48 1
  32   18   23 ar
  33   18   39 1
  34   19   23 ar
  35   19   49 1
  36   20   31 1
  37   20   24 am
  38   21   26 ar
  39   21   25 1
  40   22   26 ar
  41   22   50 1
  42   23   27 1
  43   24   25 am
  44   24   28 2
  45   25   32 1
  46   33   34 ar
  47   33   38 ar
  48   34   35 ar
  49   34   51 1
  50   35   36 ar
  51   35   52 1
  52   36   37 ar
  53   36   53 1
  54   37   38 ar
  55   37   54 1
  56   38   55 1
  57   39   40 1
  58   39   41 1
  59   39   42 1

#	End of record

