#	Name: ASD04590677
#	Creating user name:	WinNT
#	Creation time:	15. 06. 2019 20:51

#	Modifying user name:	WinNT
#	Modification time:	15. 06. 2019 20:51

#	Program:	/corina/corina34_cracker 3.40 0067  02.08.2006

@<TRIPOS>MOLECULE
ASD04590677
  60   65    0    0    0
SMALL
NO_CHARGES


@<TRIPOS>ATOM
   1 N1            -0.0171     1.3233    -0.0119 N.ar    
   2 C2             0.0017    -0.0035    -0.0051 C.ar    
   3 N3             1.1298    -0.6949    -0.0122 N.ar    
   4 C4             2.3050    -0.0727    -0.0266 C.ar    
   5 C5             2.3189     1.3367    -0.0341 C.ar    
   6 C6             1.1071     2.0203    -0.0262 C.ar    
   7 N7             3.6029    -0.5190    -0.0371 N.pl3   
   8 C8             4.4820     0.5513    -0.0513 C.ar    
   9 C9             3.7311     1.7389    -0.0501 C.ar    
  10 N10           -1.2019    -0.6888     0.0103 N.pl3   
  11 C11           -2.4019     0.0120     0.1313 C.ar    
  12 C12            4.0021    -1.9285    -0.0329 C.3     
  13 C13            3.4623    -2.6255     1.2283 C.3     
  14 N14           -2.3783     1.3199     0.3319 N.ar    
  15 C15           -3.4881     2.0231     0.4522 C.ar    
  16 C16           -4.7291     1.4086     0.3721 C.ar    
  17 C17           -4.7935     0.0324     0.1615 C.ar    
  18 C18           -3.6090    -0.6707     0.0341 C.ar    
  19 N19           -5.9023     2.1614     0.5017 N.3     
  20 C20           -6.7485     1.6360     1.5822 C.3     
  21 C21           -7.9793     2.5312     1.7438 C.3     
  22 N22           -8.7187     2.5769     0.4746 N.3     
  23 C23           -7.8725     3.1023    -0.6059 C.3     
  24 C24           -6.6416     2.2071    -0.7675 C.3     
  25 C25            5.8704     0.6444    -0.0658 C.ar    
  26 N26            6.4628     1.8230    -0.0777 N.ar    
  27 C27            5.7838     2.9573    -0.0769 C.ar    
  28 C28            4.4059     2.9602    -0.0630 C.ar    
  29 F29            6.6175    -0.4811    -0.0673 F       
  30 C30            2.5294    -3.7542     0.7430 C.3     
  31 C31            3.0211    -4.0622    -0.6932 C.3     
  32 C32            3.3784    -2.6580    -1.2406 C.3     
  33 C33           -8.6664     3.1194    -1.9136 C.3     
  34 H34            1.0847     3.1001    -0.0319 H       
  35 H35           -1.2104    -1.6559    -0.0630 H       
  36 H36            5.0886    -2.0087    -0.0677 H       
  37 H37            4.2868    -3.0447     1.8051 H       
  38 H38            2.9033    -1.9150     1.8373 H       
  39 H39           -3.4296     3.0891     0.6153 H       
  40 H40           -5.7459    -0.4726     0.0953 H       
  41 H41           -3.6218    -1.7380    -0.1303 H       
  42 H42           -7.0657     0.6227     1.3357 H       
  43 H43           -6.1829     1.6238     2.5139 H       
  44 H44           -8.6229     2.1271     2.5252 H       
  45 H45           -7.6634     3.5380     2.0171 H       
  46 H46           -9.0855     1.6675     0.2369 H       
  47 H47           -7.5553     4.1156    -0.3594 H       
  48 H48           -5.9981     2.6112    -1.5489 H       
  49 H49           -6.9576     1.2003    -1.0407 H       
  50 H50            6.3173     3.8962    -0.0870 H       
  51 H51            3.8581     3.8909    -0.0625 H       
  52 H52            2.6324    -4.6339     1.3783 H       
  53 H53            1.4943    -3.4131     0.7269 H       
  54 H54            3.9020    -4.7036    -0.6706 H       
  55 H55            2.2261    -4.5165    -1.2845 H       
  56 H56            2.4803    -2.1399    -1.5771 H       
  57 H57            4.1008    -2.7377    -2.0529 H       
  58 H58           -9.5440     3.7555    -1.7976 H       
  59 H59           -8.0385     3.5092    -2.7148 H       
  60 H60           -8.9825     2.1058    -2.1601 H       
@<TRIPOS>BOND
   1    1    2 ar
   2    1    6 ar
   3    2    3 ar
   4    2   10 1
   5    3    4 ar
   6    4    5 ar
   7    4    7 1
   8    5    6 ar
   9    5    9 1
  10    6   34 1
  11    7    8 1
  12    7   12 1
  13    8    9 ar
  14    8   25 ar
  15    9   28 ar
  16   10   11 1
  17   10   35 1
  18   11   14 ar
  19   11   18 ar
  20   12   13 1
  21   12   32 1
  22   12   36 1
  23   13   30 1
  24   13   37 1
  25   13   38 1
  26   14   15 ar
  27   15   16 ar
  28   15   39 1
  29   16   17 ar
  30   16   19 1
  31   17   18 ar
  32   17   40 1
  33   18   41 1
  34   19   20 1
  35   19   24 1
  36   20   21 1
  37   20   42 1
  38   20   43 1
  39   21   22 1
  40   21   44 1
  41   21   45 1
  42   22   23 1
  43   22   46 1
  44   23   24 1
  45   23   33 1
  46   23   47 1
  47   24   48 1
  48   24   49 1
  49   25   26 ar
  50   25   29 1
  51   26   27 ar
  52   27   28 ar
  53   27   50 1
  54   28   51 1
  55   30   31 1
  56   30   52 1
  57   30   53 1
  58   31   32 1
  59   31   54 1
  60   31   55 1
  61   32   56 1
  62   32   57 1
  63   33   58 1
  64   33   59 1
  65   33   60 1

#	End of record

