#	Name: ASD01883039
#	Creating user name:	WinNT
#	Creation time:	15. 06. 2019 19:45

#	Modifying user name:	WinNT
#	Modification time:	15. 06. 2019 19:45

#	Program:	/corina/corina34_cracker 3.40 0067  02.08.2006

@<TRIPOS>MOLECULE
ASD01883039
  49   52    0    0    0
SMALL
NO_CHARGES


@<TRIPOS>ATOM
   1 N1            -0.2496     1.5394    -1.2538 N.am    
   2 C2            -0.3333     0.2817    -1.7256 C.2     
   3 C3            -1.5161    -0.4711    -1.5246 C.2     
   4 C4            -2.5846     0.1234    -0.8290 C.2     
   5 C5            -2.4351     1.4439    -0.3600 C.2     
   6 C6            -1.2796     2.1110    -0.5778 C.2     
   7 O7             0.6079    -0.2089    -2.3256 O.2     
   8 C8            -1.6224    -1.8104    -2.0202 C.1     
   9 N9            -1.7068    -2.8729    -2.4133 N.1     
  10 C10            0.9803     2.3058    -1.4688 C.3     
  11 C11            0.8783     3.0745    -2.7877 C.3     
  12 C12           -5.9152    -1.5125    -1.4191 C.ar    
  13 C13           -3.8381    -0.6213    -0.5952 C.ar    
  14 C14           -4.1225    -1.1341     0.6730 C.ar    
  15 C15           -6.1916    -2.0196    -0.1558 C.ar    
  16 O16           -7.3435    -2.7045     0.0611 O.3     
  17 C17           -7.3380    -4.0447    -0.1537 C.ar    
  18 C18           -6.1592    -4.7110    -0.4793 C.ar    
  19 C19           -6.1953    -6.0743    -0.6896 C.ar    
  20 N20           -7.3270    -6.7448    -0.5856 N.ar    
  21 C21           -8.4641    -6.1491    -0.2790 C.ar    
  22 C22           -8.5104    -4.7898    -0.0485 C.ar    
  23 C23           -4.7452    -0.8157    -1.6435 C.ar    
  24 C24            2.1628     3.8748    -3.0122 C.3     
  25 C25            2.3063     4.6228    -4.3392 C.3     
  26 C26            2.0478     5.4001    -3.0470 C.3     
  27 C27           -5.2925    -1.8280     0.8871 C.ar    
  28 F28           -4.4758    -0.3228    -2.8721 F       
  29 C29           -4.9265    -6.8066    -1.0430 C.3     
  30 H30           -3.2416     1.9212     0.1767 H       
  31 H31           -1.1764     3.1225    -0.2137 H       
  32 H32            1.1181     3.0095    -0.6478 H       
  33 H33            1.8303     1.6247    -1.5100 H       
  34 H34            0.7405     2.3708    -3.6087 H       
  35 H35            0.0284     3.7556    -2.7465 H       
  36 H36           -6.6144    -1.6675    -2.2275 H       
  37 H37           -3.4252    -0.9867     1.4844 H       
  38 H38           -5.2297    -4.1681    -0.5663 H       
  39 H39           -9.3690    -6.7339    -0.2036 H       
  40 H40           -9.4442    -4.3086     0.2024 H       
  41 H41            3.0654     3.4477    -2.5751 H       
  42 H42            3.3033     4.6880    -4.7749 H       
  43 H43            1.4856     4.5447    -5.0523 H       
  44 H44            1.0571     5.8334    -2.9099 H       
  45 H45            2.8748     5.9768    -2.6325 H       
  46 H46           -5.5120    -2.2246     1.8674 H       
  47 H47           -4.4343    -7.1420    -0.1301 H       
  48 H48           -5.1659    -7.6693    -1.6647 H       
  49 H49           -4.2615    -6.1381    -1.5897 H       
@<TRIPOS>BOND
   1    1    2 am
   2    1   10 1
   3    1    6 1
   4    2    3 1
   5    2    7 2
   6    3    4 2
   7    3    8 1
   8    4    5 1
   9    4   13 1
  10    5    6 2
  11    5   30 1
  12    6   31 1
  13    8    9 3
  14   10   11 1
  15   10   32 1
  16   10   33 1
  17   11   24 1
  18   11   34 1
  19   11   35 1
  20   12   23 ar
  21   12   15 ar
  22   12   36 1
  23   13   14 ar
  24   13   23 ar
  25   14   27 ar
  26   14   37 1
  27   15   16 1
  28   15   27 ar
  29   16   17 1
  30   17   18 ar
  31   17   22 ar
  32   18   19 ar
  33   18   38 1
  34   19   20 ar
  35   19   29 1
  36   20   21 ar
  37   21   22 ar
  38   21   39 1
  39   22   40 1
  40   23   28 1
  41   24   25 1
  42   24   26 1
  43   24   41 1
  44   25   26 1
  45   25   42 1
  46   25   43 1
  47   26   44 1
  48   26   45 1
  49   27   46 1
  50   29   47 1
  51   29   48 1
  52   29   49 1

#	End of record

