#	Name: ASD01440045
#	Creating user name:	WinNT
#	Creation time:	15. 06. 2019 19:20

#	Modifying user name:	WinNT
#	Modification time:	15. 06. 2019 19:20

#	Program:	/corina/corina34_cracker 3.40 0067  02.08.2006

@<TRIPOS>MOLECULE
ASD01440045
  94   99    0    0    0
SMALL
NO_CHARGES


@<TRIPOS>ATOM
   1 N1             0.0097     1.3384    -0.0064 N.ar    
   2 C2             0.0199     0.0159    -0.0131 C.ar    
   3 C3             1.2206    -0.6826    -0.0231 C.ar    
   4 C4             2.4105     0.0238    -0.0261 C.ar    
   5 C5             2.3569     1.4111    -0.0189 C.ar    
   6 C6             1.1278     2.0394    -0.0090 C.ar    
   7 C7             1.2273    -2.1896    -0.0301 C.3     
   8 C8             0.4966    -2.7292     1.1810 C.2     
   9 C9             0.4322    -2.7176    -1.2025 C.ar    
  10 N10            2.6016    -2.6956    -0.0684 N.am    
  11 C11           -0.6132    -3.4613    -0.6622 C.ar    
  12 C12            0.5761    -2.5848    -2.5608 C.ar    
  13 C13           -0.3382    -3.2035    -3.4204 C.ar    
  14 C14           -1.3898    -3.9515    -2.8840 C.ar    
  15 C15           -1.5251    -4.0774    -1.5211 C.ar    
  16 C16           -0.1976    -3.0709    -4.8393 C.1     
  17 N17           -0.5449    -3.4466     0.7281 N.am    
  18 C18           -2.9304    -3.0911     2.0538 C.ar    
  19 C19           -2.6731    -1.9362     2.7785 C.ar    
  20 C20           -4.2079    -3.3500     1.5948 C.ar    
  21 C21           -5.2318    -2.4599     1.8557 C.ar    
  22 C22           -4.9795    -1.3032     2.5802 C.ar    
  23 C23           -3.6991    -1.0415     3.0421 C.ar    
  24 O24           -5.9872    -0.4283     2.8369 O.3     
  25 O25           -1.4167    -1.6823     3.2300 O.3     
  26 O26            0.7959    -2.5483     2.3423 O.2     
  27 C27            3.4659    -2.3736     0.9144 C.2     
  28 O28            3.1308    -1.5977     1.7885 O.2     
  29 N29            4.7014    -2.9118     0.9283 N.am    
  30 C30            5.0823    -3.9374    -0.0524 C.3     
  31 C31            5.6240    -5.1589     0.6967 C.3     
  32 C32            6.7613    -4.7215     1.6226 C.3     
  33 C33            6.2281    -3.7215     2.6511 C.3     
  34 C34            5.6951    -2.4796     1.9206 C.3     
  35 N35            7.3053    -5.8956     2.3180 N.3     
  36 C36            8.4772    -5.5324     3.1269 C.3     
  37 C37            8.9646    -6.7630     3.8953 C.3     
  38 N38            9.2963    -7.8322     2.9432 N.3     
  39 C39            8.1244    -8.1953     2.1343 C.3     
  40 C40            7.6371    -6.9647     1.3658 C.3     
  41 C41            9.8403    -9.0063     3.6386 C.3     
  42 O42           -1.1536    -0.6650    -0.0096 O.3     
  43 C43           -2.3537     0.1106     0.0012 C.3     
  44 C44           -3.5651    -0.8241     0.0036 C.3     
  45 N45           -0.0861    -2.9658    -5.9649 N.1     
  46 C46           -1.2246    -0.4745     3.9691 C.3     
  47 C47           -7.2811    -0.7623     2.3309 C.3     
  48 C48            9.9394   -10.1781     2.6599 C.3     
  49 S49           -1.6256    -4.2249     1.7122 S.o2    
  50 O50           -2.1951    -5.2699     0.9357 O.2     
  51 O51           -0.9559    -4.4493     2.9453 O.2     
  52 H52            3.3592    -0.4922    -0.0335 H       
  53 H53            3.2671     1.9924    -0.0206 H       
  54 H54            1.0805     3.1184    -0.0038 H       
  55 H55            2.8896    -3.2623    -0.8011 H       
  56 H56            1.3921    -2.0042    -2.9649 H       
  57 H57           -2.0990    -4.4317    -3.5419 H       
  58 H58           -2.3403    -4.6567    -1.1133 H       
  59 H59           -4.4062    -4.2495     1.0309 H       
  60 H60           -6.2292    -2.6641     1.4953 H       
  61 H61           -3.5009    -0.1422     3.6063 H       
  62 H62            4.2091    -4.2253    -0.6378 H       
  63 H63            5.8538    -3.5423    -0.7134 H       
  64 H64            4.8253    -5.6067     1.2880 H       
  65 H65            5.9992    -5.8887    -0.0207 H       
  66 H66            7.5488    -4.2514     1.0335 H       
  67 H67            5.4237    -4.1828     3.2240 H       
  68 H68            7.0333    -3.4282     3.3247 H       
  69 H69            6.5181    -1.9674     1.4222 H       
  70 H70            5.2246    -1.8074     2.6382 H       
  71 H71            9.2726    -5.1729     2.4740 H       
  72 H72            8.2032    -4.7481     3.8325 H       
  73 H73            9.8512    -6.5031     4.4736 H       
  74 H74            8.1788    -7.1063     4.5683 H       
  75 H75            8.3985    -8.9796     1.4287 H       
  76 H76            7.3291    -8.5548     2.7872 H       
  77 H77            6.7504    -7.2246     0.7875 H       
  78 H78            8.4228    -6.6215     0.6929 H       
  79 H79           10.8317    -8.7719     4.0263 H       
  80 H80            9.1820    -9.2770     4.4641 H       
  81 H81           -2.3748     0.7349     0.8945 H       
  82 H82           -2.3852     0.7438    -0.8854 H       
  83 H83           -3.5440    -1.4484    -0.8896 H       
  84 H84           -3.5336    -1.4572     0.8903 H       
  85 H85           -4.4805    -0.2324     0.0119 H       
  86 H86           -1.4898     0.3792     3.3454 H       
  87 H87           -1.8577    -0.4869     4.8563 H       
  88 H88           -0.1799    -0.3945     4.2694 H       
  89 H89           -7.2360    -0.8466     1.2451 H       
  90 H90           -7.6032    -1.7129     2.7560 H       
  91 H91           -7.9912     0.0177     2.6055 H       
  92 H92            8.9480   -10.4125     2.2722 H       
  93 H93           10.5977    -9.9074     1.8344 H       
  94 H94           10.3430   -11.0493     3.1759 H       
@<TRIPOS>BOND
   1    1    2 ar
   2    1    6 ar
   3    2    3 ar
   4    2   42 1
   5    3    4 ar
   6    3    7 1
   7    4    5 ar
   8    4   52 1
   9    5    6 ar
  10    5   53 1
  11    6   54 1
  12    7    8 1
  13    7    9 1
  14    7   10 1
  15    8   17 am
  16    8   26 2
  17    9   11 ar
  18    9   12 ar
  19   10   27 am
  20   10   55 1
  21   11   17 1
  22   11   15 ar
  23   12   13 ar
  24   12   56 1
  25   13   14 ar
  26   13   16 1
  27   14   15 ar
  28   14   57 1
  29   15   58 1
  30   16   45 3
  31   17   49 am
  32   18   19 ar
  33   18   20 ar
  34   18   49 1
  35   19   25 1
  36   19   23 ar
  37   20   21 ar
  38   20   59 1
  39   21   22 ar
  40   21   60 1
  41   22   23 ar
  42   22   24 1
  43   23   61 1
  44   24   47 1
  45   25   46 1
  46   27   28 2
  47   27   29 am
  48   29   30 1
  49   29   34 1
  50   30   31 1
  51   30   62 1
  52   30   63 1
  53   31   32 1
  54   31   64 1
  55   31   65 1
  56   32   33 1
  57   32   35 1
  58   32   66 1
  59   33   34 1
  60   33   67 1
  61   33   68 1
  62   34   69 1
  63   34   70 1
  64   35   36 1
  65   35   40 1
  66   36   37 1
  67   36   71 1
  68   36   72 1
  69   37   38 1
  70   37   73 1
  71   37   74 1
  72   38   39 1
  73   38   41 1
  74   39   40 1
  75   39   75 1
  76   39   76 1
  77   40   77 1
  78   40   78 1
  79   41   48 1
  80   41   79 1
  81   41   80 1
  82   42   43 1
  83   43   44 1
  84   43   81 1
  85   43   82 1
  86   44   83 1
  87   44   84 1
  88   44   85 1
  89   46   86 1
  90   46   87 1
  91   46   88 1
  92   47   89 1
  93   47   90 1
  94   47   91 1
  95   48   92 1
  96   48   93 1
  97   48   94 1
  98   49   50 2
  99   49   51 2

#	End of record

