#	Name: ASD01813691
#	Creating user name:	WinNT
#	Creation time:	15. 06. 2019 19:30

#	Modifying user name:	WinNT
#	Modification time:	15. 06. 2019 19:30

#	Program:	/corina/corina34_cracker 3.40 0067  02.08.2006

@<TRIPOS>MOLECULE
ASD01813691
  43   46    0    0    0
SMALL
NO_CHARGES


@<TRIPOS>ATOM
   1 C1             0.0968     1.4746     0.3437 C.ar    
   2 C2             0.0787     0.0883     0.3358 C.ar    
   3 C3             1.2492    -0.6318     0.2097 C.ar    
   4 C4             2.4673     0.0343     0.0881 C.ar    
   5 C5             2.4841     1.4395     0.0958 C.ar    
   6 C6             1.2915     2.1559     0.2245 C.ar    
   7 N7             3.6437    -0.6744    -0.0375 N.pl3   
   8 C8             4.8384    -0.0816    -0.1562 C.2     
   9 C9             4.9808     1.2913    -0.1612 C.2     
  10 C10            3.7787     2.1315    -0.0336 C.2     
  11 O11            3.8513     3.3480    -0.0331 O.2     
  12 C12            6.3100     1.9040    -0.2926 C.2     
  13 O13            6.4362     3.2462    -0.2962 O.3     
  14 O14            7.2958     1.2006    -0.3981 O.2     
  15 C15            3.5837    -2.1382    -0.0406 C.3     
  16 C16            3.4403    -2.6321    -1.4571 C.ar    
  17 C17            4.5500    -2.7825    -2.2693 C.ar    
  18 C18            4.3772    -3.2418    -3.5738 C.ar    
  19 N19            3.1662    -3.5310    -4.0317 N.ar    
  20 C20            2.0926    -3.3965    -3.2787 C.ar    
  21 C21            2.1921    -2.9516    -1.9743 C.ar    
  22 F22            1.2142    -1.9823     0.2047 F       
  23 F23            1.3073     3.5067     0.2315 F       
  24 C24            5.5568    -3.4081    -4.4575 C.2     
  25 C25            5.5413    -3.8460    -5.7505 C.2     
  26 N26            6.8134    -3.8529    -6.1937 N.pl3   
  27 N27            7.6418    -3.4099    -5.1556 N.2     
  28 C28            6.8972    -3.1372    -4.1174 C.2     
  29 C29            7.2542    -4.2548    -7.5318 C.3     
  30 H30           -0.8282     2.0239     0.4390 H       
  31 H31           -0.8620    -0.4339     0.4297 H       
  32 H32            5.7200    -0.6982    -0.2508 H       
  33 H33            7.3306     3.6028    -0.3850 H       
  34 H34            4.4991    -2.5403     0.3935 H       
  35 H35            2.7273    -2.4680     0.5476 H       
  36 H36            5.5364    -2.5471    -1.8978 H       
  37 H37            1.1226    -3.6416    -3.6854 H       
  38 H38            1.3063    -2.8448    -1.3657 H       
  39 H39            4.6675    -4.1349    -6.3156 H       
  40 H40            7.2485    -2.7743    -3.1628 H       
  41 H41            7.2550    -3.3862    -8.1902 H       
  42 H42            8.2613    -4.6677    -7.4738 H       
  43 H43            6.5742    -5.0096    -7.9269 H       
@<TRIPOS>BOND
   1    1    2 ar
   2    1    6 ar
   3    1   30 1
   4    2    3 ar
   5    2   31 1
   6    3    4 ar
   7    3   22 1
   8    4    5 ar
   9    4    7 1
  10    5    6 ar
  11    5   10 1
  12    6   23 1
  13    7    8 1
  14    7   15 1
  15    8    9 2
  16    8   32 1
  17    9   10 1
  18    9   12 1
  19   10   11 2
  20   12   13 1
  21   12   14 2
  22   13   33 1
  23   15   16 1
  24   15   34 1
  25   15   35 1
  26   16   17 ar
  27   16   21 ar
  28   17   18 ar
  29   17   36 1
  30   18   19 ar
  31   18   24 1
  32   19   20 ar
  33   20   21 ar
  34   20   37 1
  35   21   38 1
  36   24   25 2
  37   24   28 1
  38   25   26 1
  39   25   39 1
  40   26   27 1
  41   26   29 1
  42   27   28 2
  43   28   40 1
  44   29   41 1
  45   29   42 1
  46   29   43 1

#	End of record

