#	Name: ASD01948005
#	Creating user name:	WinNT
#	Creation time:	15. 06. 2019 20:13

#	Modifying user name:	WinNT
#	Modification time:	15. 06. 2019 20:13

#	Program:	/corina/corina34_cracker 3.40 0067  02.08.2006

@<TRIPOS>MOLECULE
ASD01948005
  51   53    0    0    0
SMALL
NO_CHARGES


@<TRIPOS>ATOM
   1 C1            -0.5201     0.7108    -0.9869 C.3     
   2 C2             0.0297    -0.6936    -1.2440 C.3     
   3 C3             0.9701     0.4250    -0.7910 C.3     
   4 S4            -1.0008     1.6994    -2.4299 S.o2    
   5 O5             0.1424     2.0486    -3.1983 O.2     
   6 O6            -2.1584     1.1521    -3.0461 O.2     
   7 N7            -1.5188     3.1371    -1.7919 N.am    
   8 C8            -1.3707     0.9177     0.2680 C.3     
   9 C9            -1.2662     2.3755     0.7203 C.3     
  10 C10           -1.9825     2.5460     2.0615 C.3     
  11 O11           -1.9861     3.9273     2.4274 O.3     
  12 O12            0.1100     2.7315     0.8667 O.3     
  13 C13           -0.6072     3.9872    -1.1447 C.ar    
  14 C14           -1.0621     5.1273    -0.4870 C.ar    
  15 C15           -0.1567     5.9650     0.1521 C.ar    
  16 C16            1.1960     5.6659     0.1348 C.ar    
  17 C17            1.6495     4.5329    -0.5191 C.ar    
  18 C18            0.7509     3.6893    -1.1542 C.ar    
  19 O19            1.1984     2.5734    -1.7910 O.3     
  20 C20            2.6138     2.4218    -1.9167 C.3     
  21 N21           -2.4308     5.4294    -0.4704 N.pl3   
  22 C22           -2.8583     6.7188    -0.1384 C.ar    
  23 C23           -2.5621     7.7892    -0.9766 C.ar    
  24 C24           -2.9865     9.0621    -0.6447 C.ar    
  25 C25           -3.7048     9.2714     0.5196 C.ar    
  26 C26           -4.0002     8.2090     1.3540 C.ar    
  27 C27           -3.5840     6.9330     1.0255 C.ar    
  28 I28           -4.3455    11.2024     1.0193 I       
  29 F29           -1.8605     7.5847    -2.1129 F       
  30 F30            2.0746     6.4820     0.7571 F       
  31 F31           -0.5954     7.0719     0.7905 F       
  32 H32           -0.2145    -1.4702    -0.5193 H       
  33 H33            0.1026    -1.0236    -2.2803 H       
  34 H34            1.6617     0.8309    -1.5293 H       
  35 H35            1.3446     0.3843     0.2318 H       
  36 H36           -2.4518     3.3921    -1.8652 H       
  37 H37           -2.4108     0.6800     0.0452 H       
  38 H38           -1.0108     0.2640     1.0626 H       
  39 H39           -1.7313     3.0213    -0.0246 H       
  40 H40           -3.0092     2.1909     1.9728 H       
  41 H41           -1.4633     1.9688     2.8266 H       
  42 H42           -2.4250     4.1100     3.2695 H       
  43 H43            0.5877     2.1966     1.5153 H       
  44 H44            2.7048     4.3034    -0.5306 H       
  45 H45            3.0343     3.3116    -2.3853 H       
  46 H46            3.0542     2.2889    -0.9286 H       
  47 H47            2.8325     1.5493    -2.5323 H       
  48 H48           -3.0814     4.7440    -0.6893 H       
  49 H49           -2.7570     9.8940    -1.2941 H       
  50 H50           -4.5606     8.3763     2.2620 H       
  51 H51           -3.8197     6.1035     1.6758 H       
@<TRIPOS>BOND
   1    1    2 1
   2    1    3 1
   3    1    4 1
   4    1    8 1
   5    2    3 1
   6    2   32 1
   7    2   33 1
   8    3   34 1
   9    3   35 1
  10    4    5 2
  11    4    6 2
  12    4    7 am
  13    7   13 1
  14    7   36 1
  15    8    9 1
  16    8   37 1
  17    8   38 1
  18    9   10 1
  19    9   12 1
  20    9   39 1
  21   10   11 1
  22   10   40 1
  23   10   41 1
  24   11   42 1
  25   12   43 1
  26   13   14 ar
  27   13   18 ar
  28   14   15 ar
  29   14   21 1
  30   15   16 ar
  31   15   31 1
  32   16   17 ar
  33   16   30 1
  34   17   18 ar
  35   17   44 1
  36   18   19 1
  37   19   20 1
  38   20   45 1
  39   20   46 1
  40   20   47 1
  41   21   22 1
  42   21   48 1
  43   22   23 ar
  44   22   27 ar
  45   23   24 ar
  46   23   29 1
  47   24   25 ar
  48   24   49 1
  49   25   26 ar
  50   25   28 1
  51   26   27 ar
  52   26   50 1
  53   27   51 1

#	End of record

