#	Name: ASD01328023
#	Creating user name:	WinNT
#	Creation time:	15. 06. 2019 19:16

#	Modifying user name:	WinNT
#	Modification time:	15. 06. 2019 19:16

#	Program:	/corina/corina34_cracker 3.40 0067  02.08.2006

@<TRIPOS>MOLECULE
ASD01328023
  29   31    0    0    0
SMALL
NO_CHARGES


@<TRIPOS>ATOM
   1 C1            -0.0164     1.3547     0.0095 C.2     
   2 C2             0.0021    -0.0041     0.0020 C.2     
   3 C3             1.2437    -0.6855    -0.0136 C.2     
   4 C4             2.4664     0.1350    -0.0209 C.ar    
   5 C5             3.7374    -0.4534    -0.0368 C.ar    
   6 C6             4.8606     0.3525    -0.0437 C.ar    
   7 C7             4.7274     1.7369    -0.0345 C.ar    
   8 C8             3.4727     2.3259    -0.0183 C.ar    
   9 C9             2.3346     1.5344    -0.0121 C.ar    
  10 O10            1.1054     2.0918     0.0027 O.3     
  11 O11            1.2981    -1.9045    -0.0202 O.2     
  12 C12           -1.3208     2.0470     0.0194 C.ar    
  13 C13           -1.3743     3.4424     0.0272 C.ar    
  14 C14           -2.5961     4.0825     0.0364 C.ar    
  15 C15           -3.7670     3.3452     0.0384 C.ar    
  16 C16           -3.7214     1.9623     0.0311 C.ar    
  17 C17           -2.5065     1.3092     0.0151 C.ar    
  18 O18            5.8369     2.5190    -0.0409 O.3     
  19 O19            3.8653    -1.8045    -0.0450 O.3     
  20 H20           -0.9235    -0.5605     0.0083 H       
  21 H21            5.8439    -0.0940    -0.0560 H       
  22 H22            3.3817     3.4020    -0.0105 H       
  23 H23           -0.4611     4.0191     0.0264 H       
  24 H24           -2.6389     5.1617     0.0425 H       
  25 H25           -4.7210     3.8515     0.0460 H       
  26 H26           -4.6392     1.3929     0.0334 H       
  27 H27           -2.4724     0.2298     0.0046 H       
  28 H28            6.1497     2.7507    -0.9261 H       
  29 H29            3.8934    -2.1916    -0.9307 H       
@<TRIPOS>BOND
   1    1    2 2
   2    1   10 1
   3    1   12 1
   4    2    3 1
   5    2   20 1
   6    3    4 1
   7    3   11 2
   8    4    5 ar
   9    4    9 ar
  10    5    6 ar
  11    5   19 1
  12    6    7 ar
  13    6   21 1
  14    7    8 ar
  15    7   18 1
  16    8    9 ar
  17    8   22 1
  18    9   10 1
  19   12   13 ar
  20   12   17 ar
  21   13   14 ar
  22   13   23 1
  23   14   15 ar
  24   14   24 1
  25   15   16 ar
  26   15   25 1
  27   16   17 ar
  28   16   26 1
  29   17   27 1
  30   18   28 1
  31   19   29 1

#	End of record

