#	Name: ASD07300302
#	Creating user name:	WinNT
#	Creation time:	15. 06. 2019 21:09

#	Modifying user name:	WinNT
#	Modification time:	15. 06. 2019 21:09

#	Program:	/corina/corina34_cracker 3.40 0067  02.08.2006

@<TRIPOS>MOLECULE
ASD07300302
  48   51    0    0    0
SMALL
NO_CHARGES


@<TRIPOS>ATOM
   1 C1            -0.0169     1.3941     0.0097 C.ar    
   2 C2             0.0021    -0.0041     0.0020 C.ar    
   3 C3             1.2197    -0.6677    -0.0125 C.ar    
   4 C4             2.3815     0.0923    -0.0188 C.ar    
   5 C5             2.2879     1.4724    -0.0106 C.ar    
   6 N6             1.1157     2.0771     0.0026 N.ar    
   7 C7            -2.1141     0.6619     0.0347 C.2     
   8 N8            -1.3548     1.7733     0.0301 N.am    
   9 N9            -1.3234    -0.4280     0.0124 N.am    
  10 O10           -3.3306     0.6447     0.0519 O.2     
  11 C11           -1.7798    -1.8201     0.0085 C.3     
  12 C12           -2.6119    -2.0875     1.2643 C.3     
  13 C13           -2.6362    -2.0726    -1.2340 C.3     
  14 Cl14           3.9355    -0.6813    -0.0364 Cl      
  15 C15           -1.8326     3.0923     0.0444 C.ar    
  16 C16           -3.1992     3.3356     0.0644 C.ar    
  17 C17           -3.6689     4.6340     0.0784 C.ar    
  18 C18           -2.7755     5.6953     0.0720 C.ar    
  19 C19           -1.4098     5.4527     0.0516 C.ar    
  20 C20           -0.9388     4.1546     0.0443 C.ar    
  21 O21           -3.2385     6.9736     0.0854 O.3     
  22 C22           -2.2625     8.0172     0.0778 C.3     
  23 C23           -2.9569     9.3546     0.0946 C.ar    
  24 C24           -3.2591     9.9614     1.2994 C.ar    
  25 C25           -3.8961    11.1881     1.3148 C.ar    
  26 C26           -4.2306    11.8082     0.1255 C.ar    
  27 C27           -3.9276    11.2019    -1.0792 C.ar    
  28 C28           -3.2867     9.9772    -1.0947 C.ar    
  29 H29            1.2631    -1.7468    -0.0183 H       
  30 H30            3.1906     2.0653    -0.0155 H       
  31 H31           -0.9166    -2.4855    -0.0039 H       
  32 H32           -3.4751    -1.4222     1.2767 H       
  33 H33           -2.9515    -3.1233     1.2614 H       
  34 H34           -2.0018    -1.9076     2.1495 H       
  35 H35           -2.0434    -1.8821    -2.1287 H       
  36 H36           -2.9758    -3.1083    -1.2369 H       
  37 H37           -3.4995    -1.4072    -1.2216 H       
  38 H38           -3.8948     2.5095     0.0686 H       
  39 H39           -4.7320     4.8234     0.0940 H       
  40 H40           -0.7146     6.2792     0.0459 H       
  41 H41            0.1245     3.9658     0.0336 H       
  42 H42           -1.6269     7.9268     0.9587 H       
  43 H43           -1.6512     7.9365    -0.8211 H       
  44 H44           -2.9977     9.4769     2.2285 H       
  45 H45           -4.1328    11.6618     2.2561 H       
  46 H46           -4.7289    12.7663     0.1376 H       
  47 H47           -4.1892    11.6862    -2.0084 H       
  48 H48           -3.0467     9.5051    -2.0360 H       
@<TRIPOS>BOND
   1    1    2 ar
   2    1    6 ar
   3    1    8 1
   4    2    3 ar
   5    2    9 1
   6    3    4 ar
   7    3   29 1
   8    4    5 ar
   9    4   14 1
  10    5    6 ar
  11    5   30 1
  12    7    8 am
  13    7    9 am
  14    7   10 2
  15    8   15 1
  16    9   11 1
  17   11   12 1
  18   11   13 1
  19   11   31 1
  20   12   32 1
  21   12   33 1
  22   12   34 1
  23   13   35 1
  24   13   36 1
  25   13   37 1
  26   15   16 ar
  27   15   20 ar
  28   16   17 ar
  29   16   38 1
  30   17   18 ar
  31   17   39 1
  32   18   19 ar
  33   18   21 1
  34   19   20 ar
  35   19   40 1
  36   20   41 1
  37   21   22 1
  38   22   23 1
  39   22   42 1
  40   22   43 1
  41   23   24 ar
  42   23   28 ar
  43   24   25 ar
  44   24   44 1
  45   25   26 ar
  46   25   45 1
  47   26   27 ar
  48   26   46 1
  49   27   28 ar
  50   27   47 1
  51   28   48 1

#	End of record

