#	Name: ASD01911847
#	Creating user name:	WinNT
#	Creation time:	15. 06. 2019 19:58

#	Modifying user name:	WinNT
#	Modification time:	15. 06. 2019 19:58

#	Program:	/corina/corina34_cracker 3.40 0067  02.08.2006

@<TRIPOS>MOLECULE
ASD01911847
  35   37    0    0    0
SMALL
NO_CHARGES


@<TRIPOS>ATOM
   1 C1            -1.0603    -0.5027    -2.0838 C.ar    
   2 C2            -1.0559     0.0557    -0.8091 C.ar    
   3 C3            -1.0046     1.4359    -0.6785 C.ar    
   4 N4            -0.9610     2.2112    -1.7438 N.ar    
   5 C5            -0.9638     1.7142    -2.9651 C.ar    
   6 C6            -1.0130     0.3486    -3.1756 C.ar    
   7 O7            -1.1016    -0.7396     0.2919 O.3     
   8 C8            -1.1522    -2.0846     0.1057 C.ar    
   9 C9            -0.0017    -2.7822    -0.2369 C.ar    
  10 C10           -0.0516    -4.1498    -0.4271 C.ar    
  11 C11           -1.2461    -4.8277    -0.2767 C.ar    
  12 C12           -2.4004    -4.1352     0.0664 C.ar    
  13 C13           -2.3512    -2.7620     0.2631 C.ar    
  14 N14           -3.6093    -4.8213     0.2186 N.am    
  15 C15           -4.7716    -4.2168    -0.0974 C.2     
  16 C16           -6.0567    -4.9033     0.1610 C.ar    
  17 C17           -7.2574    -4.2725    -0.1684 C.ar    
  18 C18           -8.4550    -4.9317     0.0807 C.ar    
  19 C19           -8.4080    -6.1938     0.6482 C.ar    
  20 N20           -6.0588    -6.1174     0.6995 N.ar    
  21 O21           -4.7643    -3.1078    -0.5947 O.2     
  22 C22           -7.1781    -6.7594     0.9494 C.ar    
  23 F23           -7.2553    -3.0394    -0.7205 F       
  24 H24           -1.0952    -1.5737    -2.2185 H       
  25 H25           -1.0008     1.8797     0.3061 H       
  26 H26           -0.9275     2.3828    -3.8124 H       
  27 H27           -1.0145    -0.0497    -4.1794 H       
  28 H28            0.9335    -2.2550    -0.3552 H       
  29 H29            0.8447    -4.6898    -0.6942 H       
  30 H30           -1.2824    -5.8967    -0.4263 H       
  31 H31           -3.2471    -2.2211     0.5299 H       
  32 H32           -3.6113    -5.7324     0.5517 H       
  33 H33           -9.4006    -4.4702    -0.1625 H       
  34 H34           -9.3208    -6.7327     0.8547 H       
  35 H35           -7.1394    -7.7435     1.3924 H       
@<TRIPOS>BOND
   1    1    2 ar
   2    1    6 ar
   3    1   24 1
   4    2    3 ar
   5    2    7 1
   6    3    4 ar
   7    3   25 1
   8    4    5 ar
   9    5    6 ar
  10    5   26 1
  11    6   27 1
  12    7    8 1
  13    8    9 ar
  14    8   13 ar
  15    9   10 ar
  16    9   28 1
  17   10   11 ar
  18   10   29 1
  19   11   12 ar
  20   11   30 1
  21   12   13 ar
  22   12   14 1
  23   13   31 1
  24   14   15 am
  25   14   32 1
  26   15   16 1
  27   15   21 2
  28   16   17 ar
  29   16   20 ar
  30   17   18 ar
  31   17   23 1
  32   18   19 ar
  33   18   33 1
  34   19   22 ar
  35   19   34 1
  36   20   22 ar
  37   22   35 1

#	End of record

