#	Name: ASD03092348
#	Creating user name:	WinNT
#	Creation time:	15. 06. 2019 20:32

#	Modifying user name:	WinNT
#	Modification time:	15. 06. 2019 20:32

#	Program:	/corina/corina34_cracker 3.40 0067  02.08.2006

@<TRIPOS>MOLECULE
ASD03092348
  71   74    0    0    0
SMALL
NO_CHARGES


@<TRIPOS>ATOM
   1 N1             1.6722     0.9339     0.6082 N.pl3   
   2 N2             0.8180     0.0108     0.8691 N.2     
   3 C3            -0.4036     0.4779     0.8234 C.2     
   4 C4            -0.3316     1.8351     0.5016 C.2     
   5 C5             1.0185     2.1088     0.3671 C.2     
   6 C6             1.6276     3.4058     0.0319 C.2     
   7 O7             2.8379     3.5269     0.0300 O.2     
   8 N8             0.8445     4.4595    -0.2730 N.am    
   9 C9             3.1260     0.7554     0.5799 C.3     
  10 C10            1.4438     5.7777    -0.4949 C.3     
  11 S11           -1.2760     8.2921    -2.0044 S.3     
  12 C12           -1.2445     8.2319    -0.2963 C.2     
  13 N13           -0.3371     7.3949     0.1086 N.2     
  14 C14            0.3604     6.7742    -0.8179 C.2     
  15 C15            0.0237     7.1053    -2.0820 C.2     
  16 C16            1.5813     6.8729    -5.4914 C.ar    
  17 C17            1.0122     7.4179    -4.3609 C.ar    
  18 C18            0.6359     6.5676    -3.3126 C.ar    
  19 C19            0.8577     5.1924    -3.4653 C.ar    
  20 C20            1.4324     4.7341    -4.6310 C.ar    
  21 N21            1.7724     5.5706    -5.5940 N.ar    
  22 C22            1.6766     3.2576    -4.8086 C.3     
  23 C23            1.9849     7.7750    -6.6290 C.3     
  24 N24           -2.0671     8.9693     0.5358 N.3     
  25 C25           -2.9802     9.8182    -0.2434 C.3     
  26 C26           -3.8288    10.6589     0.7142 C.3     
  27 O27           -4.5284     9.7911     1.6102 O.3     
  28 C28           -3.6697     8.9504     2.3855 C.3     
  29 C29           -2.8194     8.0924     1.4448 C.3     
  30 C30           -4.5157     8.0425     3.2804 C.3     
  31 C31           -4.8363    11.4854    -0.0875 C.3     
  32 C32           -1.6643    -0.3091     1.0731 C.3     
  33 C33           -2.3648    -0.5860    -0.2587 C.3     
  34 C34           -1.3121    -1.6354     1.7495 C.3     
  35 C35           -2.5960     0.4953     1.9818 C.3     
  36 H36           -1.1544     2.5244     0.3825 H       
  37 H37           -0.1160     4.3450    -0.3455 H       
  38 H38            3.4400     0.4917    -0.4300 H       
  39 H39            3.6119     1.6835     0.8809 H       
  40 H40            3.4076    -0.0419     1.2678 H       
  41 H41            1.9711     6.0933     0.4054 H       
  42 H42            2.1461     5.7222    -1.3267 H       
  43 H43            0.8592     8.4843    -4.2838 H       
  44 H44            0.5827     4.5023    -2.6814 H       
  45 H45            0.8029     2.7978    -5.2704 H       
  46 H46            2.5467     3.1076    -5.4477 H       
  47 H47            1.8569     2.7996    -3.8360 H       
  48 H48            3.0151     8.1013    -6.4861 H       
  49 H49            1.9032     7.2316    -7.5704 H       
  50 H50            1.3285     8.6448    -6.6535 H       
  51 H51           -2.4013    10.4770    -0.8907 H       
  52 H52           -3.6315     9.1901    -0.8511 H       
  53 H53           -3.1818    11.3256     1.2842 H       
  54 H54           -3.0180     9.5674     3.0041 H       
  55 H55           -3.4682     7.4367     0.8641 H       
  56 H56           -2.1232     7.4914     2.0299 H       
  57 H57           -5.1654     7.4247     2.6606 H       
  58 H58           -3.8606     7.4020     3.8711 H       
  59 H59           -5.1236     8.6540     3.9472 H       
  60 H60           -5.4839    10.8175    -0.6555 H       
  61 H61           -5.4402    12.0837     0.5948 H       
  62 H62           -4.3026    12.1438    -0.7729 H       
  63 H63           -1.7011    -1.1590    -0.9061 H       
  64 H64           -3.2767    -1.1552    -0.0781 H       
  65 H65           -2.6158     0.3589    -0.7406 H       
  66 H66           -0.8130    -1.4381     2.6983 H       
  67 H67           -2.2239    -2.2046     1.9301 H       
  68 H68           -0.6483    -2.2084     1.1021 H       
  69 H69           -2.8470     1.4402     1.4999 H       
  70 H70           -3.5079    -0.0739     2.1624 H       
  71 H71           -2.0970     0.6926     2.9306 H       
@<TRIPOS>BOND
   1    1    2 1
   2    1    5 1
   3    1    9 1
   4    2    3 2
   5    3    4 1
   6    3   32 1
   7    4    5 2
   8    4   36 1
   9    5    6 1
  10    6    7 2
  11    6    8 am
  12    8   10 1
  13    8   37 1
  14    9   38 1
  15    9   39 1
  16    9   40 1
  17   10   14 1
  18   10   41 1
  19   10   42 1
  20   11   12 1
  21   11   15 1
  22   12   13 2
  23   12   24 1
  24   13   14 1
  25   14   15 2
  26   15   18 1
  27   16   17 ar
  28   16   21 ar
  29   16   23 1
  30   17   18 ar
  31   17   43 1
  32   18   19 ar
  33   19   20 ar
  34   19   44 1
  35   20   21 ar
  36   20   22 1
  37   22   45 1
  38   22   46 1
  39   22   47 1
  40   23   48 1
  41   23   49 1
  42   23   50 1
  43   24   25 1
  44   24   29 1
  45   25   26 1
  46   25   51 1
  47   25   52 1
  48   26   27 1
  49   26   31 1
  50   26   53 1
  51   27   28 1
  52   28   29 1
  53   28   30 1
  54   28   54 1
  55   29   55 1
  56   29   56 1
  57   30   57 1
  58   30   58 1
  59   30   59 1
  60   31   60 1
  61   31   61 1
  62   31   62 1
  63   32   33 1
  64   32   34 1
  65   32   35 1
  66   33   63 1
  67   33   64 1
  68   33   65 1
  69   34   66 1
  70   34   67 1
  71   34   68 1
  72   35   69 1
  73   35   70 1
  74   35   71 1

#	End of record

