#	Name: ASD01911708
#	Creating user name:	WinNT
#	Creation time:	15. 06. 2019 19:58

#	Modifying user name:	WinNT
#	Modification time:	15. 06. 2019 19:58

#	Program:	/corina/corina34_cracker 3.40 0067  02.08.2006

@<TRIPOS>MOLECULE
ASD01911708
  41   43    0    0    0
SMALL
NO_CHARGES


@<TRIPOS>ATOM
   1 N1            -0.0141     1.3433     0.0316 N.am    
   2 C2             0.0021    -0.0041     0.0020 C.2     
   3 C3             1.2747    -0.7187    -0.1251 C.2     
   4 C4             1.4470    -2.0747    -0.0506 C.2     
   5 S5             2.8517     0.0159    -0.4085 S.3     
   6 C6             3.5962    -1.5802    -0.3925 C.2     
   7 N7             2.6739    -2.4890    -0.1939 N.2     
   8 C8             4.9921    -1.8438    -0.5733 C.1     
   9 C9             6.1364    -2.0599    -0.7215 C.1     
  10 C10            7.5323    -2.3234    -0.9023 C.ar    
  11 C11            8.0093    -3.6374    -0.8695 C.ar    
  12 C12            9.3548    -3.8832    -1.0449 C.ar    
  13 C13           10.2324    -2.8333    -1.2524 C.ar    
  14 C14            9.7679    -1.5301    -1.2862 C.ar    
  15 C15            8.4244    -1.2686    -1.1182 C.ar    
  16 O16           -1.0406    -0.6271     0.0809 O.2     
  17 C17           -1.2190     2.1857     0.0395 C.3     
  18 C18            1.1733     2.2162     0.0678 C.3     
  19 C19            0.6745     3.5381     0.7032 C.3     
  20 C20           -0.7506     3.6547     0.1043 C.3     
  21 C21           -2.0254     1.9526    -1.2397 C.3     
  22 O22           -2.5381     0.6187    -1.2431 O.3     
  23 C23           -3.3108     0.2961    -2.4011 C.3     
  24 H24            0.6236    -2.7534     0.1157 H       
  25 H25            7.3258    -4.4576    -0.7069 H       
  26 H26            9.7247    -4.8975    -1.0199 H       
  27 H27           11.2852    -3.0321    -1.3885 H       
  28 H28           10.4588    -0.7160    -1.4482 H       
  29 H29            8.0633    -0.2511    -1.1447 H       
  30 H30           -1.8302     1.9504     0.9108 H       
  31 H31            1.9537     1.7699     0.6842 H       
  32 H32            1.5427     2.3963    -0.9418 H       
  33 H33            0.6343     3.4586     1.7895 H       
  34 H34            1.2979     4.3782     0.3973 H       
  35 H35           -0.7151     4.0932    -0.8930 H       
  36 H36           -1.3980     4.2370     0.7600 H       
  37 H37           -2.8534     2.6602    -1.2813 H       
  38 H38           -1.3807     2.0963    -2.1068 H       
  39 H39           -4.1654     0.9693    -2.4668 H       
  40 H40           -2.6928     0.4054    -3.2923 H       
  41 H41           -3.6634    -0.7327    -2.3275 H       
@<TRIPOS>BOND
   1    1    2 am
   2    1   18 1
   3    1   17 1
   4    2    3 1
   5    2   16 2
   6    3    4 2
   7    3    5 1
   8    4    7 1
   9    4   24 1
  10    5    6 1
  11    6    7 2
  12    6    8 1
  13    8    9 3
  14    9   10 1
  15   10   11 ar
  16   10   15 ar
  17   11   12 ar
  18   11   25 1
  19   12   13 ar
  20   12   26 1
  21   13   14 ar
  22   13   27 1
  23   14   15 ar
  24   14   28 1
  25   15   29 1
  26   17   21 1
  27   17   20 1
  28   17   30 1
  29   18   19 1
  30   18   31 1
  31   18   32 1
  32   19   20 1
  33   19   33 1
  34   19   34 1
  35   20   35 1
  36   20   36 1
  37   21   22 1
  38   21   37 1
  39   21   38 1
  40   22   23 1
  41   23   39 1
  42   23   40 1
  43   23   41 1

#	End of record

