#	Name: ASD01880882
#	Creating user name:	WinNT
#	Creation time:	15. 06. 2019 19:41

#	Modifying user name:	WinNT
#	Modification time:	15. 06. 2019 19:41

#	Program:	/corina/corina34_cracker 3.40 0067  02.08.2006

@<TRIPOS>MOLECULE
ASD01880882
  55   58    0    0    0
SMALL
NO_CHARGES


@<TRIPOS>ATOM
   1 N1             0.0006     1.3179    -0.2012 N.ar    
   2 C2             0.0234    -0.0044    -0.2231 C.ar    
   3 N3             1.1426    -0.6835    -0.0307 N.ar    
   4 C4             2.2895    -0.0583     0.1920 C.ar    
   5 C5             2.3110     1.3224     0.2227 C.ar    
   6 C6             1.1140     2.0111     0.0167 C.ar    
   7 C7             3.5963     2.0681     0.4737 C.3     
   8 O8             4.6358     1.1363     0.7792 O.3     
   9 C9             5.8668     1.6480     1.0331 C.ar    
  10 C10            6.9243     0.7963     1.3375 C.ar    
  11 C11            8.1691     1.3151     1.5937 C.ar    
  12 C12            8.3826     2.6969     1.5509 C.ar    
  13 C13            7.3171     3.5478     1.2443 C.ar    
  14 C14            6.0714     3.0217     0.9833 C.ar    
  15 C15            9.4960     0.6901     1.9458 C.3     
  16 N16           10.4451     1.7994     2.0933 N.am    
  17 C17            9.7986     2.9553     1.8646 C.2     
  18 O18           10.3098     4.0575     1.9097 O.2     
  19 C19            7.5320     5.0386     1.1951 C.3     
  20 N20            1.0871     3.3960     0.0381 N.3     
  21 C21           -0.1582     3.8894     0.6440 C.3     
  22 C22           -0.1201     5.4189     0.7019 C.3     
  23 O23            0.0827     5.9359    -0.6161 O.3     
  24 C24            1.2868     5.4762    -1.2359 C.3     
  25 C25            1.2630     3.9473    -1.3134 C.3     
  26 O26           -1.1286    -0.6806    -0.4478 O.3     
  27 C27           -1.0511    -2.1074    -0.4616 C.3     
  28 C28           12.6859     1.5286     1.1513 C.3     
  29 C29           11.8639     1.6686     2.4342 C.3     
  30 H30            3.1973    -0.6221     0.3482 H       
  31 H31            3.8671     2.6354    -0.4168 H       
  32 H32            3.4623     2.7509     1.3127 H       
  33 H33            6.7658    -0.2714     1.3724 H       
  34 H34            5.2486     3.6798     0.7461 H       
  35 H35            9.4141     0.1400     2.8833 H       
  36 H36            9.8201     0.0235     1.1466 H       
  37 H37            7.8179     5.3314     0.1848 H       
  38 H38            6.6096     5.5481     1.4737 H       
  39 H39            8.3241     5.3147     1.8912 H       
  40 H40           -1.0081     3.5691     0.0414 H       
  41 H41           -0.2553     3.4893     1.6532 H       
  42 H42           -1.0648     5.7917     1.0977 H       
  43 H43            0.6975     5.7384     1.3480 H       
  44 H44            1.3596     5.8905    -2.2414 H       
  45 H45            2.1453     5.7974    -0.6461 H       
  46 H46            2.2032     3.5895    -1.7329 H       
  47 H47            0.4358     3.6279    -1.9473 H       
  48 H48           -0.6873    -2.4609     0.5031 H       
  49 H49           -2.0407    -2.5232    -0.6514 H       
  50 H50           -0.3662    -2.4265    -1.2473 H       
  51 H51           13.7415     1.4313     1.4050 H       
  52 H52           12.3601     0.6430     0.6059 H       
  53 H53           12.5416     2.4120     0.5292 H       
  54 H54           12.1897     2.5543     2.9796 H       
  55 H55           12.0082     0.7853     3.0563 H       
@<TRIPOS>BOND
   1    1    2 ar
   2    1    6 ar
   3    2    3 ar
   4    2   26 1
   5    3    4 ar
   6    4    5 ar
   7    4   30 1
   8    5    6 ar
   9    5    7 1
  10    6   20 1
  11    7    8 1
  12    7   31 1
  13    7   32 1
  14    8    9 1
  15    9   10 ar
  16    9   14 ar
  17   10   11 ar
  18   10   33 1
  19   11   12 ar
  20   11   15 1
  21   12   13 ar
  22   12   17 1
  23   13   14 ar
  24   13   19 1
  25   14   34 1
  26   15   16 1
  27   15   35 1
  28   15   36 1
  29   16   17 am
  30   16   29 1
  31   17   18 2
  32   19   37 1
  33   19   38 1
  34   19   39 1
  35   20   21 1
  36   20   25 1
  37   21   22 1
  38   21   40 1
  39   21   41 1
  40   22   23 1
  41   22   42 1
  42   22   43 1
  43   23   24 1
  44   24   25 1
  45   24   44 1
  46   24   45 1
  47   25   46 1
  48   25   47 1
  49   26   27 1
  50   27   48 1
  51   27   49 1
  52   27   50 1
  53   28   29 1
  54   28   51 1
  55   28   52 1
  56   28   53 1
  57   29   54 1
  58   29   55 1

#	End of record

