#	Name: ASD01150987
#	Creating user name:	WinNT
#	Creation time:	15. 06. 2019 19:05

#	Modifying user name:	WinNT
#	Modification time:	15. 06. 2019 19:05

#	Program:	/corina/corina34_cracker 3.40 0067  02.08.2006

@<TRIPOS>MOLECULE
ASD01150987
  50   53    0    0    0
SMALL
NO_CHARGES


@<TRIPOS>ATOM
   1 C1            -0.0155     1.2933     0.0092 C.2     
   2 N2             0.0021    -0.0041     0.0020 N.2     
   3 C3            -1.2836    -0.4574     0.0118 C.2     
   4 C4            -2.1000     0.6603     0.0256 C.2     
   5 O5            -1.2849     1.7299     0.0294 O.3     
   6 C6             1.2052     2.1769     0.0022 C.3     
   7 N7            -3.4820     0.6743     0.0385 N.am    
   8 C8            -1.7174    -1.8572     0.0080 C.2     
   9 O9            -2.9035    -2.1264     0.0175 O.2     
  10 O10           -0.8012    -2.8471    -0.0060 O.3     
  11 C11           -1.3030    -4.2096    -0.0089 C.3     
  12 C12           -0.1257    -5.1866    -0.0253 C.3     
  13 C13           -4.1439     1.8482     0.0511 C.2     
  14 C14           -5.6508     1.8635     0.0651 C.3     
  15 O15           -3.5270     2.8922     0.0513 O.2     
  16 C16            2.0682     1.8933     1.2442 C.3     
  17 C17            3.4394     1.4111     0.7273 C.3     
  18 C18            3.5334     1.9969    -0.7034 C.3     
  19 C19            2.0821     1.8572    -1.2261 C.3     
  20 C20           -6.1625     1.2508     1.3759 C.3     
  21 O21           -7.5935     1.2929     1.3616 O.3     
  22 C22           -8.1672     2.4647     0.9737 C.ar    
  23 C23           -7.4324     3.4228     0.2856 C.ar    
  24 O24           -6.1208     3.2137    -0.0119 O.3     
  25 C25           -9.5013     2.7007     1.2705 C.ar    
  26 C26          -10.0984     3.8846     0.8811 C.ar    
  27 C27           -9.3681     4.8366     0.1942 C.ar    
  28 C28           -8.0380     4.6084    -0.1033 C.ar    
  29 H29            0.9069     3.2252    -0.0137 H       
  30 H30           -3.9755    -0.1608     0.0383 H       
  31 H31           -1.9025    -4.3780     0.8857 H       
  32 H32           -1.9189    -4.3681    -0.8942 H       
  33 H33            0.4903    -5.0282     0.8599 H       
  34 H34           -0.5023    -6.2095    -0.0275 H       
  35 H35            0.4738    -5.0183    -0.9199 H       
  36 H36           -6.0320     1.2920    -0.7812 H       
  37 H37            2.1895     2.8041     1.8305 H       
  38 H38            1.6041     1.1165     1.8519 H       
  39 H39            4.2419     1.8018     1.3530 H       
  40 H40            3.4741     0.3221     0.6966 H       
  41 H41            3.8338     3.0443    -0.6730 H       
  42 H42            4.2220     1.4140    -1.3151 H       
  43 H43            1.8975     0.8402    -1.5722 H       
  44 H44            1.8940     2.5734    -2.0259 H       
  45 H45           -5.8259     0.2171     1.4546 H       
  46 H46           -5.7862     1.8259     2.2220 H       
  47 H47          -10.0743     1.9583     1.8063 H       
  48 H48          -11.1373     4.0663     1.1135 H       
  49 H49           -9.8379     5.7602    -0.1102 H       
  50 H50           -7.4698     5.3537    -0.6401 H       
@<TRIPOS>BOND
   1    1    2 2
   2    1    6 1
   3    1    5 1
   4    2    3 1
   5    3    4 2
   6    3    8 1
   7    4    5 1
   8    4    7 1
   9    6   16 1
  10    6   19 1
  11    6   29 1
  12    7   13 am
  13    7   30 1
  14    8    9 2
  15    8   10 1
  16   10   11 1
  17   11   12 1
  18   11   31 1
  19   11   32 1
  20   12   33 1
  21   12   34 1
  22   12   35 1
  23   13   14 1
  24   13   15 2
  25   14   20 1
  26   14   24 1
  27   14   36 1
  28   16   17 1
  29   16   37 1
  30   16   38 1
  31   17   18 1
  32   17   39 1
  33   17   40 1
  34   18   19 1
  35   18   41 1
  36   18   42 1
  37   19   43 1
  38   19   44 1
  39   20   21 1
  40   20   45 1
  41   20   46 1
  42   21   22 1
  43   22   23 ar
  44   22   25 ar
  45   23   24 1
  46   23   28 ar
  47   25   26 ar
  48   25   47 1
  49   26   27 ar
  50   26   48 1
  51   27   28 ar
  52   27   49 1
  53   28   50 1

#	End of record

