#	Name: ASD04560023
#	Creating user name:	WinNT
#	Creation time:	15. 06. 2019 20:49

#	Modifying user name:	WinNT
#	Modification time:	15. 06. 2019 20:49

#	Program:	/corina/corina34_cracker 3.40 0067  02.08.2006

@<TRIPOS>MOLECULE
ASD04560023
  46   48    0    0    0
SMALL
NO_CHARGES


@<TRIPOS>ATOM
   1 C1             0.0570     1.3495    -0.4208 C.ar    
   2 C2             0.0733    -0.0207    -0.3807 C.ar    
   3 C3             1.2848    -0.7017    -0.2853 C.ar    
   4 C4             2.4828     0.0069    -0.2298 C.ar    
   5 C5             2.4727     1.3772    -0.2695 C.ar    
   6 C6             1.2581     2.0636    -0.3657 C.ar    
   7 C7             1.2439     3.5374    -0.4091 C.2     
   8 O8             2.2892     4.1572    -0.3612 O.2     
   9 N9             0.0726     4.1976    -0.5019 N.am    
  10 C10            0.0496     5.5952    -0.4320 C.ar    
  11 C11           -0.8753     6.3136    -1.1783 C.ar    
  12 C12            0.9236     7.6445     0.4554 C.ar    
  13 C13            0.9480     6.2653     0.3879 C.ar    
  14 F14           -0.0179     9.7084    -0.2265 F       
  15 S15            1.3018    -2.4629    -0.2341 S.3     
  16 C16           -0.8963     7.6927    -1.1079 C.ar    
  17 C17            0.0042     8.3592    -0.2939 C.ar    
  18 C18            3.2536    -4.3453    -0.0579 C.ar    
  19 C19            3.2534    -5.0934    -1.2366 C.ar    
  20 C20            3.4302    -6.4774    -1.1778 C.ar    
  21 C21            3.6038    -7.0960     0.0426 C.ar    
  22 C22            3.6030    -6.3484     1.2072 C.ar    
  23 C23            3.4283    -4.9769     1.1562 C.ar    
  24 C24            3.0697    -2.8505    -0.1120 C.3     
  25 C25            3.0664    -4.4240    -2.5402 C.2     
  26 O26            2.9775    -5.1568    -3.6671 O.3     
  27 O27            2.9928    -3.2128    -2.5960 O.2     
  28 C28            2.7943    -4.4322    -4.9119 C.3     
  29 H29           -0.8823     1.8768    -0.4993 H       
  30 H30           -0.8540    -0.5728    -0.4229 H       
  31 H31            3.4205    -0.5237    -0.1551 H       
  32 H32            3.4018     1.9261    -0.2261 H       
  33 H33           -0.7545     3.7041    -0.6171 H       
  34 H34           -1.5776     5.7942    -1.8135 H       
  35 H35            1.6222     8.1660     1.0930 H       
  36 H36            1.6650     5.7082     0.9728 H       
  37 H37           -1.6152     8.2518    -1.6883 H       
  38 H38            3.4307    -7.0620    -2.0859 H       
  39 H39            3.7403    -8.1663     0.0896 H       
  40 H40            3.7390    -6.8378     2.1603 H       
  41 H41            3.4288    -4.3994     2.0688 H       
  42 H42            3.5900    -2.4517    -0.9828 H       
  43 H43            3.4786    -2.4011     0.7929 H       
  44 H44            1.8706    -3.8555    -4.8640 H       
  45 H45            3.6362    -3.7575    -5.0669 H       
  46 H46            2.7384    -5.1396    -5.7393 H       
@<TRIPOS>BOND
   1    1    2 ar
   2    1    6 ar
   3    1   29 1
   4    2    3 ar
   5    2   30 1
   6    3    4 ar
   7    3   15 1
   8    4    5 ar
   9    4   31 1
  10    5    6 ar
  11    5   32 1
  12    6    7 1
  13    7    8 2
  14    7    9 am
  15    9   10 1
  16    9   33 1
  17   10   11 ar
  18   10   13 ar
  19   11   16 ar
  20   11   34 1
  21   12   13 ar
  22   12   17 ar
  23   12   35 1
  24   13   36 1
  25   14   17 1
  26   15   24 1
  27   16   17 ar
  28   16   37 1
  29   18   19 ar
  30   18   23 ar
  31   18   24 1
  32   19   25 1
  33   19   20 ar
  34   20   21 ar
  35   20   38 1
  36   21   22 ar
  37   21   39 1
  38   22   23 ar
  39   22   40 1
  40   23   41 1
  41   24   42 1
  42   24   43 1
  43   25   26 1
  44   25   27 2
  45   26   28 1
  46   28   44 1
  47   28   45 1
  48   28   46 1

#	End of record

