#	Name: ASD01910481
#	Creating user name:	WinNT
#	Creation time:	15. 06. 2019 19:55

#	Modifying user name:	WinNT
#	Modification time:	15. 06. 2019 19:55

#	Program:	/corina/corina34_cracker 3.40 0067  02.08.2006

@<TRIPOS>MOLECULE
ASD01910481
  52   55    0    0    0
SMALL
NO_CHARGES


@<TRIPOS>ATOM
   1 C1            -0.8517     1.9322     1.0571 C.ar    
   2 C2            -0.8684     0.4951     0.6908 C.2     
   3 N3            -1.8822    -0.3752     0.9002 N.2     
   4 C4            -1.4658    -1.5217     0.4234 C.2     
   5 O5            -0.2333    -1.3250    -0.0551 O.3     
   6 N6             0.0926    -0.1669     0.0995 N.2     
   7 C7            -2.2320    -2.8193     0.4162 C.3     
   8 C8            -2.4164    -3.2957    -1.0264 C.3     
   9 C9            -3.2227    -4.5964    -1.0369 C.3     
  10 C10           -2.4548    -5.6748    -0.2660 C.3     
  11 N11           -2.1467    -5.1666     1.0777 N.am    
  12 C12           -1.4529    -3.8776     1.2035 C.3     
  13 C13           -2.4938    -5.8695     2.1740 C.2     
  14 C14           -3.2644    -7.1221     2.0349 C.ar    
  15 O15           -2.1728    -5.4726     3.2774 O.2     
  16 C16            0.2705     2.7109     0.7773 C.ar    
  17 C17            0.2839     4.0462     1.1180 C.ar    
  18 C18           -0.8207     4.6168     1.7409 C.ar    
  19 C19           -1.9409     3.8419     2.0208 C.ar    
  20 C20           -1.9604     2.5076     1.6765 C.ar    
  21 C21           -2.8381    -8.1121     1.1470 C.ar    
  22 C22           -3.5606    -9.2792     1.0215 C.ar    
  23 C23           -4.7086    -9.4713     1.7749 C.ar    
  24 C24           -5.1366    -8.4914     2.6576 C.ar    
  25 C25           -4.4184    -7.3230     2.7952 C.ar    
  26 F26           -5.4131   -10.6171     1.6480 F       
  27 N27           -0.8048     5.9678     2.0857 N.pl3   
  28 C28            0.3750     6.7850     1.7917 C.3     
  29 C29           -1.9680     6.5700     2.7419 C.3     
  30 H30           -3.2082    -2.6680     0.8769 H       
  31 H31           -2.9491    -2.5337    -1.5953 H       
  32 H32           -1.4401    -3.4701    -1.4788 H       
  33 H33           -4.1896    -4.4289    -0.5623 H       
  34 H34           -3.3736    -4.9227    -2.0659 H       
  35 H35           -3.0676    -6.5726    -0.1854 H       
  36 H36           -1.5279    -5.9083    -0.7898 H       
  37 H37           -0.4443    -3.9645     0.7996 H       
  38 H38           -1.4046    -3.5896     2.2537 H       
  39 H39            1.1289     2.2679     0.2942 H       
  40 H40            1.1529     4.6497     0.9015 H       
  41 H41           -2.7978     4.2870     2.5046 H       
  42 H42           -2.8308     1.9062     1.8938 H       
  43 H43           -1.9442    -7.9634     0.5594 H       
  44 H44           -3.2320   -10.0454     0.3348 H       
  45 H45           -6.0317    -8.6459     3.2418 H       
  46 H46           -4.7524    -6.5605     3.4833 H       
  47 H47            0.2732     7.2267     0.8004 H       
  48 H48            0.4627     7.5772     2.5352 H       
  49 H49            1.2669     6.1591     1.8207 H       
  50 H50           -1.8621     6.4803     3.8230 H       
  51 H51           -2.0340     7.6233     2.4694 H       
  52 H52           -2.8733     6.0544     2.4215 H       
@<TRIPOS>BOND
   1    1    2 1
   2    1   16 ar
   3    1   20 ar
   4    2    3 1
   5    2    6 2
   6    3    4 2
   7    4    5 1
   8    4    7 1
   9    5    6 1
  10    7    8 1
  11    7   12 1
  12    7   30 1
  13    8    9 1
  14    8   31 1
  15    8   32 1
  16    9   10 1
  17    9   33 1
  18    9   34 1
  19   10   11 1
  20   10   35 1
  21   10   36 1
  22   11   12 1
  23   11   13 am
  24   12   37 1
  25   12   38 1
  26   13   14 1
  27   13   15 2
  28   14   21 ar
  29   14   25 ar
  30   16   17 ar
  31   16   39 1
  32   17   18 ar
  33   17   40 1
  34   18   19 ar
  35   18   27 1
  36   19   20 ar
  37   19   41 1
  38   20   42 1
  39   21   22 ar
  40   21   43 1
  41   22   23 ar
  42   22   44 1
  43   23   24 ar
  44   23   26 1
  45   24   25 ar
  46   24   45 1
  47   25   46 1
  48   27   28 1
  49   27   29 1
  50   28   47 1
  51   28   48 1
  52   28   49 1
  53   29   50 1
  54   29   51 1
  55   29   52 1

#	End of record

