#	Name: ASD00170276
#	Creating user name:	WinNT
#	Creation time:	15. 06. 2019 18:31

#	Modifying user name:	WinNT
#	Modification time:	15. 06. 2019 18:31

#	Program:	/corina/corina34_cracker 3.40 0067  02.08.2006

@<TRIPOS>MOLECULE
ASD00170276
  42   45    0    0    0
SMALL
NO_CHARGES


@<TRIPOS>ATOM
   1 C1            -0.1569     1.2773    -0.0964 C.2     
   2 C2            -0.0464    -0.0857     0.0010 C.2     
   3 C3            -1.3248    -0.7537     0.1464 C.2     
   4 C4            -2.3531     0.1038     0.1551 C.2     
   5 S5            -1.7885     1.7568    -0.0071 S.3     
   6 C6             1.2349    -0.7959    -0.0385 C.2     
   7 C7             1.7729    -1.2687    -1.3200 C.2     
   8 O8             1.1860    -1.1280    -2.5262 O.3     
   9 C9             1.9642    -1.6803    -3.4667 C.2     
  10 C10            3.0683    -2.1866    -2.8749 C.2     
  11 C11            2.9579    -1.9227    -1.5003 C.2     
  12 O12            1.8539    -0.9942     0.9928 O.2     
  13 N13            0.9095     2.1434    -0.2411 N.pl3   
  14 C14           -1.5110    -2.2573     0.2780 C.3     
  15 C15           -2.9222    -2.5189     0.8141 C.3     
  16 N16           -3.8952    -1.7626     0.0129 N.3     
  17 C17           -3.8016    -0.3222     0.2928 C.3     
  18 C18           -5.2603    -2.2555     0.2397 C.3     
  19 C19           -6.2474    -1.3118    -0.3975 C.ar    
  20 C20           -6.6428    -1.5063    -1.7078 C.ar    
  21 C21           -7.5482    -0.6406    -2.2923 C.ar    
  22 C22           -8.0586     0.4193    -1.5664 C.ar    
  23 C23           -7.6640     0.6133    -0.2559 C.ar    
  24 C24           -6.7618    -0.2549     0.3300 C.ar    
  25 H25            1.7451    -1.7152    -4.5237 H       
  26 H26            3.8841    -2.6951    -3.3671 H       
  27 H27            3.6691    -2.1913    -0.7332 H       
  28 H28            1.8178     1.8055    -0.1995 H       
  29 H29            0.7500     3.0894    -0.3843 H       
  30 H30           -1.3949    -2.7292    -0.6977 H       
  31 H31           -0.7733    -2.6600     0.9721 H       
  32 H32           -3.1451    -3.5838     0.7470 H       
  33 H33           -2.9810    -2.1994     1.8545 H       
  34 H34           -4.1463    -0.1234     1.3076 H       
  35 H35           -4.4150     0.2296    -0.4195 H       
  36 H36           -5.3671    -3.2460    -0.2025 H       
  37 H37           -5.4524    -2.3132     1.3111 H       
  38 H38           -6.2440    -2.3344    -2.2748 H       
  39 H39           -7.8566    -0.7922    -3.3162 H       
  40 H40           -8.7655     1.0961    -2.0234 H       
  41 H41           -8.0625     1.4417     0.3111 H       
  42 H42           -6.4535    -0.1033     1.3539 H       
@<TRIPOS>BOND
   1    1    2 2
   2    1   13 1
   3    1    5 1
   4    2    3 1
   5    2    6 1
   6    3    4 2
   7    3   14 1
   8    4    5 1
   9    4   17 1
  10    6    7 1
  11    6   12 2
  12    7    8 1
  13    7   11 2
  14    8    9 1
  15    9   10 2
  16    9   25 1
  17   10   11 1
  18   10   26 1
  19   11   27 1
  20   13   28 1
  21   13   29 1
  22   14   15 1
  23   14   30 1
  24   14   31 1
  25   15   16 1
  26   15   32 1
  27   15   33 1
  28   16   17 1
  29   16   18 1
  30   17   34 1
  31   17   35 1
  32   18   19 1
  33   18   36 1
  34   18   37 1
  35   19   20 ar
  36   19   24 ar
  37   20   21 ar
  38   20   38 1
  39   21   22 ar
  40   21   39 1
  41   22   23 ar
  42   22   40 1
  43   23   24 ar
  44   23   41 1
  45   24   42 1

#	End of record

