#	Name: ASD08170147
#	Creating user name:	WinNT
#	Creation time:	15. 06. 2019 21:17

#	Modifying user name:	WinNT
#	Modification time:	15. 06. 2019 21:17

#	Program:	/corina/corina34_cracker 3.40 0067  02.08.2006

@<TRIPOS>MOLECULE
ASD08170147
  86   87    0    0    0
SMALL
NO_CHARGES


@<TRIPOS>ATOM
   1 Cl1            0.0000     0.0000     0.0000 Cl      
   2 H2             0.0000     1.3700     0.0000 H       
   3 Cl3            5.0000     6.3700     5.0000 Cl      
   4 H4             5.0000     7.7400     5.0000 H       
   5 C5            11.9999    25.8899    11.7951 C.3     
   6 C6            13.4146    27.9493    11.7926 C.3     
   7 C7            14.8500    28.4789    11.7818 C.3     
   8 C8            14.8295    29.9857    11.7901 C.2     
   9 C9            12.0204    24.3831    11.7868 C.2     
  10 S10           14.8018    31.0337    10.3714 S.3     
  11 C11           14.7924    32.3999    11.4048 C.2     
  12 N12           14.8095    31.9899    12.6372 N.2     
  13 N13           14.8235    30.7439    12.8402 N.2     
  14 S14           12.0209    23.3504    10.3567 S.3     
  15 N15           12.0464    23.6137    12.8284 N.2     
  16 N16           12.0606    22.3700    12.6118 N.2     
  17 C17           12.0499    21.9731    11.3750 C.2     
  18 N18           12.0622    20.6496    10.9483 N.am    
  19 C19           12.0877    19.6502    11.8523 C.2     
  20 O20           12.1000    19.9052    13.0379 O.2     
  21 N21           14.7705    33.7280    10.9926 N.am    
  22 C22           14.7651    34.7176    11.9076 C.2     
  23 C23           14.7414    36.1567    11.4609 C.3     
  24 O24           14.7794    34.4499    13.0904 O.2     
  25 C25           12.1009    18.2160    11.3898 C.3     
  26 C26           12.1292    17.3022    12.5878 C.ar    
  27 C27           13.4353    26.4195    11.7842 C.3     
  28 C28           14.7399    37.0577    12.6690 C.ar    
  29 C29           10.9453    16.8669    13.1532 C.ar    
  30 C30           15.9361    37.4873    13.2123 C.ar    
  31 C31           10.9712    16.0287    14.2521 C.ar    
  32 C32           12.1811    15.6254    14.7854 C.ar    
  33 C33           13.3651    16.0600    14.2194 C.ar    
  34 C34           13.3392    16.8947    13.1179 C.ar    
  35 C35           15.9347    38.3137    14.3204 C.ar    
  36 C36           14.7371    38.7108    14.8849 C.ar    
  37 C37           13.5407    38.2819    14.3411 C.ar    
  38 C38           13.5421    37.4590    13.2303 C.ar    
  39 C39           12.2094    14.7124    15.9840 C.3     
  40 C40           11.5003    13.4004    15.6425 C.3     
  41 C41           13.6612    14.4221    16.3698 C.3     
  42 C42           11.4954    15.3879    17.1565 C.3     
  43 C43           14.7355    39.6109    16.0936 C.3     
  44 C44           15.4367    40.9268    15.7504 C.3     
  45 C45           13.2927    39.8967    16.5149 C.3     
  46 C46           15.4757    38.9232    17.2426 C.3     
  47 H47           11.4728    26.2510    10.9120 H       
  48 H48           11.4898    26.2414    12.6919 H       
  49 H49           12.9044    28.3008    12.6894 H       
  50 H50           12.8874    28.3104    10.9096 H       
  51 H51           15.3771    28.1178    12.6648 H       
  52 H52           15.3602    28.1274    10.8850 H       
  53 H53           12.0523    20.4456    10.0000 H       
  54 H54           14.7591    33.9421    10.0466 H       
  55 H55           15.6232    36.3635    10.8546 H       
  56 H56           13.8435    36.3391    10.8705 H       
  57 H57           11.2057    18.0158    10.8012 H       
  58 H58           12.9853    18.0398    10.7775 H       
  59 H59           13.9625    26.0584    12.6673 H       
  60 H60           13.9455    26.0680    10.8874 H       
  61 H61           10.0000    17.1819    12.7365 H       
  62 H62           16.8719    37.1770    12.7712 H       
  63 H63           10.0462    15.6891    14.6942 H       
  64 H64           14.3104    15.7452    14.6363 H       
  65 H65           14.2642    17.2342    12.6757 H       
  66 H66           16.8694    38.6488    14.7453 H       
  67 H67           12.6050    38.5920    14.7823 H       
  68 H68           12.6074    37.1240    12.8054 H       
  69 H69           12.0090    12.9192    14.8072 H       
  70 H70           11.5208    12.7400    16.5095 H       
  71 H71           10.4660    13.6072    15.3677 H       
  72 H72           14.1664    15.3568    16.6130 H       
  73 H73           13.6817    13.7617    17.2367 H       
  74 H74           14.1699    13.9409    15.5344 H       
  75 H75           10.4611    15.5947    16.8817 H       
  76 H76           11.5159    14.7275    18.0235 H       
  77 H77           12.0006    16.3226    17.3998 H       
  78 H78           14.9094    41.4167    14.9318 H       
  79 H79           15.4356    41.5778    16.6246 H       
  80 H80           16.4646    40.7232    15.4502 H       
  81 H81           12.7932    38.9592    16.7594 H       
  82 H82           13.2916    40.5477    17.3891 H       
  83 H83           12.7654    40.3866    15.6963 H       
  84 H84           16.5036    38.7197    16.9424 H       
  85 H85           15.4746    39.5743    18.1168 H       
  86 H86           14.9761    37.9858    17.4871 H       
@<TRIPOS>BOND
   1    1    2 1
   2    3    4 1
   3    5    9 1
   4    5   27 1
   5    5   47 1
   6    5   48 1
   7    6    7 1
   8    6   27 1
   9    6   49 1
  10    6   50 1
  11    7    8 1
  12    7   51 1
  13    7   52 1
  14    8   10 1
  15    8   13 2
  16    9   14 1
  17    9   15 2
  18   10   11 1
  19   11   12 2
  20   11   21 1
  21   12   13 1
  22   14   17 1
  23   15   16 1
  24   16   17 2
  25   17   18 1
  26   18   19 am
  27   18   53 1
  28   19   20 2
  29   19   25 1
  30   21   22 am
  31   21   54 1
  32   22   23 1
  33   22   24 2
  34   23   28 1
  35   23   55 1
  36   23   56 1
  37   25   26 1
  38   25   57 1
  39   25   58 1
  40   26   29 ar
  41   26   34 ar
  42   27   59 1
  43   27   60 1
  44   28   30 ar
  45   28   38 ar
  46   29   31 ar
  47   29   61 1
  48   30   35 ar
  49   30   62 1
  50   31   32 ar
  51   31   63 1
  52   32   33 ar
  53   32   39 1
  54   33   34 ar
  55   33   64 1
  56   34   65 1
  57   35   36 ar
  58   35   66 1
  59   36   37 ar
  60   36   43 1
  61   37   38 ar
  62   37   67 1
  63   38   68 1
  64   39   40 1
  65   39   41 1
  66   39   42 1
  67   40   69 1
  68   40   70 1
  69   40   71 1
  70   41   72 1
  71   41   73 1
  72   41   74 1
  73   42   75 1
  74   42   76 1
  75   42   77 1
  76   43   44 1
  77   43   45 1
  78   43   46 1
  79   44   78 1
  80   44   79 1
  81   44   80 1
  82   45   81 1
  83   45   82 1
  84   45   83 1
  85   46   84 1
  86   46   85 1
  87   46   86 1

#	End of record

