#	Name: ASD01150069
#	Creating user name:	WinNT
#	Creation time:	15. 06. 2019 19:03

#	Modifying user name:	WinNT
#	Modification time:	15. 06. 2019 19:03

#	Program:	/corina/corina34_cracker 3.40 0067  02.08.2006

@<TRIPOS>MOLECULE
ASD01150069
  39   40    0    0    0
SMALL
NO_CHARGES


@<TRIPOS>ATOM
   1 C1             0.0088     1.4272     0.1925 C.2     
   2 C2             0.0788     0.0433     0.0938 C.2     
   3 N3            -1.1631    -0.4021    -0.1130 N.2     
   4 C4            -1.9958     0.6068    -0.1493 C.2     
   5 N5            -1.3227     1.7585     0.0397 N.pl3   
   6 C6            -1.8939     3.1073     0.0680 C.3     
   7 C7            -3.4833     0.4966    -0.3639 C.3     
   8 C8            -4.1743     0.2392     0.9767 C.3     
   9 C9             1.1936     2.1618     0.4141 C.2     
  10 N10            2.3660     1.5032     0.5248 N.am    
  11 C11            2.4194     0.1637     0.4268 C.2     
  12 N12            1.3130    -0.5742     0.2167 N.am    
  13 O13            3.4940    -0.3958     0.5310 O.2     
  14 O14            1.1581     3.3759     0.5039 O.2     
  15 C15            1.4145    -2.0322     0.1161 C.3     
  16 C16            1.2540    -2.6518     1.5058 C.3     
  17 C17            1.3600    -4.1745     1.4007 C.3     
  18 C18           -1.6028     3.7560     1.4228 C.3     
  19 C19           -1.2686     3.9496    -1.0457 C.3     
  20 H20           -2.9719     3.0485    -0.0825 H       
  21 H21           -3.8582     1.4255    -0.7935 H       
  22 H22           -3.6920    -0.3288    -1.0446 H       
  23 H23           -3.7381    -0.6420     1.4471 H       
  24 H24           -4.0385     1.1032     1.6272 H       
  25 H25           -5.2388     0.0731     0.8108 H       
  26 H26            3.1827     2.0040     0.6771 H       
  27 H27            0.6299    -2.4066    -0.5414 H       
  28 H28            2.3891    -2.3013    -0.2913 H       
  29 H29            2.0386    -2.2774     2.1633 H       
  30 H30            0.2795    -2.3827     1.9132 H       
  31 H31            0.5754    -4.5488     0.7432 H       
  32 H32            2.3346    -4.4436     0.9933 H       
  33 H33            1.2457    -4.6159     2.3908 H       
  34 H34           -2.1353     3.2164     2.2059 H       
  35 H35           -0.5315     3.7196     1.6203 H       
  36 H36           -1.9343     4.7943     1.4071 H       
  37 H37           -1.5659     3.5488    -2.0148 H       
  38 H38           -1.6119     4.9804    -0.9580 H       
  39 H39           -0.1826     3.9195    -0.9578 H       
@<TRIPOS>BOND
   1    1    2 2
   2    1    9 1
   3    1    5 1
   4    2    3 1
   5    2   12 1
   6    3    4 2
   7    4    5 1
   8    4    7 1
   9    5    6 1
  10    6   18 1
  11    6   19 1
  12    6   20 1
  13    7    8 1
  14    7   21 1
  15    7   22 1
  16    8   23 1
  17    8   24 1
  18    8   25 1
  19    9   10 am
  20    9   14 2
  21   10   11 am
  22   10   26 1
  23   11   12 am
  24   11   13 2
  25   12   15 1
  26   15   16 1
  27   15   27 1
  28   15   28 1
  29   16   17 1
  30   16   29 1
  31   16   30 1
  32   17   31 1
  33   17   32 1
  34   17   33 1
  35   18   34 1
  36   18   35 1
  37   18   36 1
  38   19   37 1
  39   19   38 1
  40   19   39 1

#	End of record

