#	Name: ASD01140162
#	Creating user name:	WinNT
#	Creation time:	15. 06. 2019 19:00

#	Modifying user name:	WinNT
#	Modification time:	15. 06. 2019 19:00

#	Program:	/corina/corina34_cracker 3.40 0067  02.08.2006

@<TRIPOS>MOLECULE
ASD01140162
  46   49    0    0    0
SMALL
NO_CHARGES


@<TRIPOS>ATOM
   1 C1            -0.0169     1.3931     0.0097 C.ar    
   2 C2             0.0021    -0.0041     0.0020 C.ar    
   3 C3             1.2150    -0.6813    -0.0011 C.ar    
   4 C4             2.4238     0.0272     0.0038 C.ar    
   5 C5             2.3885     1.4241    -0.0124 C.ar    
   6 C6             1.1680     2.0938     0.0022 C.ar    
   7 C7             3.6699    -0.7453     0.0574 C.2     
   8 N8             4.7611    -0.5273    -0.5864 N.2     
   9 C9             4.8893     0.5845    -1.5356 C.3     
  10 C10            4.6746     1.8658    -0.7723 C.2     
  11 N11            3.5560     2.1895    -0.0767 N.pl3   
  12 C12            3.7736     3.3975     0.5109 C.2     
  13 C13            5.5445     2.9042    -0.6402 C.2     
  14 N14            4.9538     3.8276     0.1648 N.2     
  15 C15            3.6709    -1.9190     0.9639 C.ar    
  16 N16            2.5820    -2.2106     1.6641 N.ar    
  17 C17            4.8129    -2.7093     1.0691 C.ar    
  18 C18            4.7989    -3.8025     1.9201 C.ar    
  19 C19            3.6423    -4.0678     2.6372 C.ar    
  20 C20            2.5414    -3.2427     2.4794 C.ar    
  21 C21           -1.2280    -0.7373    -0.0022 C.1     
  22 C22           -2.2364    -1.3384    -0.0056 C.1     
  23 C23            6.8776     3.0085    -1.2548 C.2     
  24 O24            7.2944     2.1093    -1.9584 O.2     
  25 O25            7.6363     4.1012    -1.0375 O.3     
  26 C26            8.9401     4.1359    -1.6755 C.3     
  27 C27            8.8151     4.7829    -3.0563 C.3     
  28 C28            9.9072     4.9521    -0.8155 C.3     
  29 H29           -0.9586     1.9218     0.0170 H       
  30 H30            1.2264    -1.7613    -0.0070 H       
  31 H31            1.1507     3.1737     0.0075 H       
  32 H32            5.8858     0.5801    -1.9773 H       
  33 H33            4.1369     0.4904    -2.3186 H       
  34 H34            3.0811     3.9152     1.1581 H       
  35 H35            5.6968    -2.4735     0.4950 H       
  36 H36            5.6691    -4.4340     2.0223 H       
  37 H37            3.5988    -4.9125     3.3088 H       
  38 H38            1.6390    -3.4462     3.0367 H       
  39 H39           -3.1383    -1.8760    -0.0087 H       
  40 H40            9.3190     3.1196    -1.7835 H       
  41 H41            8.4362     5.7993    -2.9484 H       
  42 H42            9.7939     4.8090    -3.5353 H       
  43 H43            8.1262     4.2015    -3.6690 H       
  44 H44            9.9962     4.4911     0.1682 H       
  45 H45           10.8859     4.9782    -1.2945 H       
  46 H46            9.5283     5.9684    -0.7076 H       
@<TRIPOS>BOND
   1    1    2 ar
   2    1    6 ar
   3    1   29 1
   4    2    3 ar
   5    2   21 1
   6    3    4 ar
   7    3   30 1
   8    4    5 ar
   9    4    7 1
  10    5    6 ar
  11    5   11 1
  12    6   31 1
  13    7    8 2
  14    7   15 1
  15    8    9 1
  16    9   10 1
  17    9   32 1
  18    9   33 1
  19   10   11 1
  20   10   13 2
  21   11   12 1
  22   12   14 2
  23   12   34 1
  24   13   14 1
  25   13   23 1
  26   15   16 ar
  27   15   17 ar
  28   16   20 ar
  29   17   18 ar
  30   17   35 1
  31   18   19 ar
  32   18   36 1
  33   19   20 ar
  34   19   37 1
  35   20   38 1
  36   21   22 3
  37   22   39 1
  38   23   24 2
  39   23   25 1
  40   25   26 1
  41   26   27 1
  42   26   28 1
  43   26   40 1
  44   27   41 1
  45   27   42 1
  46   27   43 1
  47   28   44 1
  48   28   45 1
  49   28   46 1

#	End of record

