#	Name: ASD01410610
#	Creating user name:	WinNT
#	Creation time:	15. 06. 2019 19:18

#	Modifying user name:	WinNT
#	Modification time:	15. 06. 2019 19:18

#	Program:	/corina/corina34_cracker 3.40 0067  02.08.2006

@<TRIPOS>MOLECULE
ASD01410610
  67   69    0    0    0
SMALL
NO_CHARGES


@<TRIPOS>ATOM
   1 C1             2.5571    -6.9918     2.3353 C.ar    
   2 C2             3.3673    -6.7926     3.4444 C.ar    
   3 C3             4.5164    -6.0377     3.3148 C.ar    
   4 N4             4.8497    -5.5072     2.1538 N.ar    
   5 C5             4.1034    -5.6747     1.0743 C.ar    
   6 C6             2.9340    -6.4221     1.1315 C.ar    
   7 O7             4.4839    -5.1111    -0.0996 O.3     
   8 C8             5.5829    -4.3106    -0.0968 C.ar    
   9 C9             6.8434    -4.8654     0.0893 C.ar    
  10 C10            7.9656    -4.0619     0.0940 C.ar    
  11 C11            7.8421    -2.6914    -0.0871 C.ar    
  12 C12            6.5722    -2.1250    -0.2756 C.ar    
  13 C13            5.4432    -2.9476    -0.2847 C.ar    
  14 N14            8.9759    -1.8803    -0.0814 N.am    
  15 C15            9.5688    -1.5427    -1.2437 C.2     
  16 C16            9.5229    -1.3948     1.1880 C.3     
  17 O17           10.6210    -0.9396    -1.2350 O.2     
  18 C18            8.9244    -1.9147    -2.5542 C.3     
  19 C19            9.9557    -2.5992    -3.4536 C.3     
  20 C20            9.3014    -2.9768    -4.7841 C.3     
  21 C21            8.7819    -1.7136    -5.4736 C.3     
  22 C22            7.7506    -1.0291    -4.5743 C.3     
  23 C23            8.4049    -0.6515    -3.2438 C.3     
  24 C24            8.1277    -2.0912    -6.8041 C.3     
  25 C25           11.0500    -1.3550     1.1033 C.3     
  26 C26           11.5656    -2.6888     0.5590 C.3     
  27 C27            8.9908     0.0121     1.4678 C.3     
  28 O28            7.5874    -0.0527     1.7295 O.3     
  29 C29            6.9883     1.2151     2.0046 C.3     
  30 C30            2.0870    -6.6102    -0.1007 C.3     
  31 F31            0.9726    -7.3949     0.2148 F       
  32 F32            1.6614    -5.3625    -0.5690 F       
  33 F33            2.8409    -7.2479    -1.0919 F       
  34 C34            6.4309    -0.6705    -0.4682 C.2     
  35 O35            7.4180     0.0376    -0.4945 O.2     
  36 O36            5.2070    -0.1261    -0.6152 O.3     
  37 H37            1.6554    -7.5817     2.4089 H       
  38 H38            3.1017    -7.2229     4.3987 H       
  39 H39            5.1502    -5.8794     4.1749 H       
  40 H40            6.9454    -5.9312     0.2315 H       
  41 H41            8.9418    -4.5005     0.2392 H       
  42 H42            4.4625    -2.5189    -0.4292 H       
  43 H43            9.2210    -2.0643     1.9934 H       
  44 H44            8.0937    -2.5959    -2.3702 H       
  45 H45           10.7864    -1.9179    -3.6376 H       
  46 H46           10.3258    -3.4991    -2.9623 H       
  47 H47           10.0361    -3.4645    -5.4248 H       
  48 H48            8.4707    -3.6581    -4.6000 H       
  49 H49            9.6127    -1.0324    -5.6576 H       
  50 H50            7.3806    -0.1292    -5.0655 H       
  51 H51            6.9199    -1.7104    -4.3902 H       
  52 H52            7.6702    -0.1638    -2.6031 H       
  53 H53            9.2357     0.0298    -3.4278 H       
  54 H54            7.2969    -2.7725    -6.6200 H       
  55 H55            7.7576    -1.1913    -7.2953 H       
  56 H56            8.8624    -2.5789    -7.4448 H       
  57 H57           11.3561    -0.5482     0.4374 H       
  58 H58           11.4646    -1.1833     2.0966 H       
  59 H59           12.6554    -2.6770     0.5411 H       
  60 H60           11.2215    -3.5003     1.2003 H       
  61 H61           11.1871    -2.8392    -0.4520 H       
  62 H62            9.5032     0.4286     2.3349 H       
  63 H63            9.1696     0.6474     0.6003 H       
  64 H64            5.9231     1.0805     2.1925 H       
  65 H65            7.4593     1.6566     2.8830 H       
  66 H66            7.1256     1.8754     1.1483 H       
  67 H67            5.1647     0.8320    -0.7389 H       
@<TRIPOS>BOND
   1    1    2 ar
   2    1    6 ar
   3    1   37 1
   4    2    3 ar
   5    2   38 1
   6    3    4 ar
   7    3   39 1
   8    4    5 ar
   9    5    6 ar
  10    5    7 1
  11    6   30 1
  12    7    8 1
  13    8    9 ar
  14    8   13 ar
  15    9   10 ar
  16    9   40 1
  17   10   11 ar
  18   10   41 1
  19   11   12 ar
  20   11   14 1
  21   12   13 ar
  22   12   34 1
  23   13   42 1
  24   14   15 am
  25   14   16 1
  26   15   17 2
  27   15   18 1
  28   16   25 1
  29   16   27 1
  30   16   43 1
  31   18   19 1
  32   18   23 1
  33   18   44 1
  34   19   20 1
  35   19   45 1
  36   19   46 1
  37   20   21 1
  38   20   47 1
  39   20   48 1
  40   21   22 1
  41   21   24 1
  42   21   49 1
  43   22   23 1
  44   22   50 1
  45   22   51 1
  46   23   52 1
  47   23   53 1
  48   24   54 1
  49   24   55 1
  50   24   56 1
  51   25   26 1
  52   25   57 1
  53   25   58 1
  54   26   59 1
  55   26   60 1
  56   26   61 1
  57   27   28 1
  58   27   62 1
  59   27   63 1
  60   28   29 1
  61   29   64 1
  62   29   65 1
  63   29   66 1
  64   30   31 1
  65   30   32 1
  66   30   33 1
  67   34   35 2
  68   34   36 1
  69   36   67 1

#	End of record

