#	Name: ASD00960155
#	Creating user name:	WinNT
#	Creation time:	15. 06. 2019 18:53

#	Modifying user name:	WinNT
#	Modification time:	15. 06. 2019 18:53

#	Program:	/corina/corina34_cracker 3.40 0067  02.08.2006

@<TRIPOS>MOLECULE
ASD00960155
  42   45    0    0    0
SMALL
NO_CHARGES


@<TRIPOS>ATOM
   1 C1            -0.7624     2.8022     1.3649 C.3     
   2 C2            -2.0363     2.6424     2.2241 C.3     
   3 O3            -3.0994     2.4250     1.2710 O.3     
   4 C4            -2.8243     3.3316     0.1809 C.3     
   5 C5            -3.5399     2.8692    -1.0899 C.3     
   6 C6            -1.9041     1.4548     3.1424 C.2     
   7 C7            -1.3072     1.4688     4.3577 C.2     
   8 N8            -2.3689     0.2096     2.8825 N.pl3   
   9 C9            -2.0641    -0.6083     3.9480 C.2     
  10 C10           -1.3915     0.1677     4.8942 C.2     
  11 N11           -3.0566    -0.3462     1.7937 N.2     
  12 C12           -3.3910    -1.6081     1.8073 C.2     
  13 N13           -3.1025    -2.4078     2.8310 N.2     
  14 C14           -2.4557    -1.9622     3.8962 C.2     
  15 N15           -2.1679    -2.8132     4.9454 N.pl3   
  16 C16           -1.2896     3.2679    -0.0108 C.3     
  17 O17           -0.7719     4.5589    -0.3386 O.3     
  18 C18           -0.0325     1.4639     1.2342 C.3     
  19 O19           -4.9530     2.9779    -0.9073 O.3     
  20 O20            0.1022     3.7896     1.9302 O.3     
  21 C21           -0.8719    -0.2845     6.1976 C.2     
  22 N22           -0.1039     0.4432     7.0523 N.pl3   
  23 N23            0.1483    -0.3882     8.1557 N.2     
  24 C24           -0.4523    -1.5260     7.9245 C.2     
  25 N25           -1.0725    -1.4671     6.7490 N.2     
  26 H26           -2.2221     3.5493     2.7995 H       
  27 H27           -3.1310     4.3442     0.4430 H       
  28 H28           -3.2327     3.4948    -1.9280 H       
  29 H29           -3.2790     1.8313    -1.2966 H       
  30 H30           -0.8481     2.3239     4.8314 H       
  31 H31           -3.9201    -2.0166     0.9590 H       
  32 H32           -2.8161    -3.4803     5.2205 H       
  33 H33           -1.3177    -2.7438     5.4070 H       
  34 H34           -1.0310     2.5441    -0.7837 H       
  35 H35           -1.1196     4.9241    -1.1637 H       
  36 H36            0.2806     1.1230     2.2211 H       
  37 H37           -0.7017     0.7268     0.7906 H       
  38 H38            0.8437     1.5886     0.5980 H       
  39 H39           -5.4713     2.7008    -1.6752 H       
  40 H40            0.9043     3.9514     1.4149 H       
  41 H41            0.2074     1.3531     6.9252 H       
  42 H42           -0.4490    -2.3793     8.5865 H       
@<TRIPOS>BOND
   1    1   18 1
   2    1   20 1
   3    1    2 1
   4    1   16 1
   5    2    3 1
   6    2    6 1
   7    2   26 1
   8    3    4 1
   9    4   16 1
  10    4    5 1
  11    4   27 1
  12    5   19 1
  13    5   28 1
  14    5   29 1
  15    6    7 2
  16    6    8 1
  17    7   10 1
  18    7   30 1
  19    8    9 1
  20    8   11 1
  21    9   10 2
  22    9   14 1
  23   10   21 1
  24   11   12 2
  25   12   13 1
  26   12   31 1
  27   13   14 2
  28   14   15 1
  29   15   32 1
  30   15   33 1
  31   16   17 1
  32   16   34 1
  33   17   35 1
  34   18   36 1
  35   18   37 1
  36   18   38 1
  37   19   39 1
  38   20   40 1
  39   21   22 1
  40   21   25 2
  41   22   23 1
  42   22   41 1
  43   23   24 2
  44   24   25 1
  45   24   42 1

#	End of record

