#	Name: ASD03331715
#	Creating user name:	WinNT
#	Creation time:	15. 06. 2019 20:39

#	Modifying user name:	WinNT
#	Modification time:	15. 06. 2019 20:39

#	Program:	/corina/corina34_cracker 3.40 0067  02.08.2006

@<TRIPOS>MOLECULE
ASD03331715
  57   60    0    0    0
SMALL
NO_CHARGES


@<TRIPOS>ATOM
   1 C1            -0.0164     1.3615     0.0095 C.ar    
   2 C2             0.0021    -0.0041     0.0020 C.ar    
   3 C3             1.2080    -0.6950    -0.0127 C.ar    
   4 C4             2.4059    -0.0158    -0.0201 C.ar    
   5 C5             1.1892     2.0745     0.0018 C.ar    
   6 C6             1.5022     3.4554     0.0058 C.2     
   7 C7             2.4125     1.3760    -0.0131 C.ar    
   8 N8             3.4200     2.3121    -0.0179 N.pl3   
   9 C9             2.8557     3.5730    -0.0067 C.2     
  10 C10            3.6012     4.8406    -0.0080 C.2     
  11 N11            4.9488     4.8298    -0.0211 N.am    
  12 O12            3.0015     5.8989     0.0028 O.2     
  13 C13            5.6915     6.0926    -0.0223 C.3     
  14 C14            7.1934     5.8010    -0.0382 C.3     
  15 C15            7.9573     7.1000    -0.0395 C.ar    
  16 C16            8.9919     8.8959    -1.2383 C.ar    
  17 C17            8.2912     7.7043    -1.2371 C.ar    
  18 C18            8.3193     7.6902     1.1570 C.ar    
  19 C19            9.0201     8.8817     1.1558 C.ar    
  20 C20            9.3593     9.4829    -0.0418 C.ar    
  21 C21            0.5116     4.5910     0.0208 C.3     
  22 C22            0.1899     4.9681     1.4682 C.3     
  23 Cl23          -1.4939    -0.8847     0.0116 Cl      
  24 C24           -0.8158     6.1210     1.4834 C.3     
  25 C25           -1.1375     6.4981     2.9309 C.3     
  26 C26           -2.1432     7.6511     2.9461 C.3     
  27 C27           10.1232    10.7819    -0.0431 C.3     
  28 N28            9.5537    11.9294    -0.7537 N.2     
  29 N29            9.4669    11.9817     0.4821 N.2     
  30 C30           11.6452    10.6711     0.0675 C.3     
  31 F31           12.1387     9.9324    -1.0133 F       
  32 F32           12.2083    11.9516     0.0530 F       
  33 F33           11.9802    10.0278     1.2638 F       
  34 H34           -0.9582     1.8902     0.0169 H       
  35 H35            1.2056    -1.7750    -0.0182 H       
  36 H36            3.3377    -0.5617    -0.0308 H       
  37 H37            4.3705     2.1188    -0.0269 H       
  38 H38            5.4270     3.9859    -0.0297 H       
  39 H39            5.4242     6.6705    -0.9070 H       
  40 H40            5.4414     6.6621     0.8728 H       
  41 H41            7.4607     5.2232     0.8465 H       
  42 H42            7.4434     5.2316    -0.9334 H       
  43 H43            9.2531     9.3679    -2.1739 H       
  44 H44            8.0048     7.2454    -2.1718 H       
  45 H45            8.0542     7.2205     2.0927 H       
  46 H46            9.3023     9.3431     2.0906 H       
  47 H47            0.9387     5.4524    -0.4928 H       
  48 H48           -0.4027     4.2823    -0.4861 H       
  49 H49           -0.2371     4.1067     1.9818 H       
  50 H50            1.1042     5.2768     1.9751 H       
  51 H51           -0.3887     6.9824     0.9699 H       
  52 H52           -1.7301     5.8124     0.9766 H       
  53 H53           -1.5645     5.6367     3.4444 H       
  54 H54           -0.2232     6.8068     3.4377 H       
  55 H55           -1.7161     8.5125     2.4325 H       
  56 H56           -3.0575     7.3424     2.4392 H       
  57 H57           -2.3724     7.9197     3.9773 H       
@<TRIPOS>BOND
   1    1    2 ar
   2    1    5 ar
   3    1   34 1
   4    2    3 ar
   5    2   23 1
   6    3    4 ar
   7    3   35 1
   8    4    7 ar
   9    4   36 1
  10    5    7 ar
  11    5    6 1
  12    6    9 2
  13    6   21 1
  14    7    8 1
  15    8    9 1
  16    8   37 1
  17    9   10 1
  18   10   11 am
  19   10   12 2
  20   11   13 1
  21   11   38 1
  22   13   14 1
  23   13   39 1
  24   13   40 1
  25   14   15 1
  26   14   41 1
  27   14   42 1
  28   15   18 ar
  29   15   17 ar
  30   16   17 ar
  31   16   20 ar
  32   16   43 1
  33   17   44 1
  34   18   19 ar
  35   18   45 1
  36   19   20 ar
  37   19   46 1
  38   20   27 1
  39   21   22 1
  40   21   47 1
  41   21   48 1
  42   22   24 1
  43   22   49 1
  44   22   50 1
  45   24   25 1
  46   24   51 1
  47   24   52 1
  48   25   26 1
  49   25   53 1
  50   25   54 1
  51   26   55 1
  52   26   56 1
  53   26   57 1
  54   27   28 1
  55   27   29 1
  56   27   30 1
  57   28   29 2
  58   30   31 1
  59   30   32 1
  60   30   33 1

#	End of record

