#	Name: ASD08151006
#	Creating user name:	WinNT
#	Creation time:	15. 06. 2019 21:16

#	Modifying user name:	WinNT
#	Modification time:	15. 06. 2019 21:16

#	Program:	/corina/corina34_cracker 3.40 0067  02.08.2006

@<TRIPOS>MOLECULE
ASD08151006
  29   30    0    0    0
SMALL
NO_CHARGES


@<TRIPOS>ATOM
   1 N1             0.3455     1.2183     0.5477 N.ar    
   2 C2             0.4409    -0.0768     0.7242 C.ar    
   3 C3             1.6704    -0.6978     0.9367 C.ar    
   4 C4             2.8143     0.0480     0.9647 C.ar    
   5 C5             2.7067     1.4388     0.7746 C.ar    
   6 C6             3.8454     2.2647     0.7922 C.ar    
   7 C7             3.7202     3.6031     0.6078 C.ar    
   8 C8             2.4578     4.1865     0.3968 C.ar    
   9 C9             1.3112     3.3979     0.3736 C.ar    
  10 C10            1.4259     2.0038     0.5636 C.ar    
  11 C11            2.3483     5.6435     0.1994 C.2     
  12 O12            1.3967     6.2489     0.6540 O.2     
  13 N13            3.3030     6.3044    -0.4849 N.am    
  14 C14            3.1397     7.7304    -0.7781 C.3     
  15 O15            4.4639     5.6204    -0.9204 O.3     
  16 C16            4.3867     5.1424    -2.2649 C.3     
  17 O17            0.0966     3.9627     0.1702 O.3     
  18 H18           -0.4560    -0.6780     0.7048 H       
  19 H19            1.7184    -1.7672     1.0795 H       
  20 H20            3.7754    -0.4167     1.1285 H       
  21 H21            4.8218     1.8323     0.9533 H       
  22 H22            4.6007     4.2283     0.6235 H       
  23 H23            3.5692     8.3195     0.0323 H       
  24 H24            3.6494     7.9702    -1.7113 H       
  25 H25            2.0790     7.9627    -0.8734 H       
  26 H26            5.3140     4.6306    -2.5223 H       
  27 H27            3.5512     4.4485    -2.3564 H       
  28 H28            4.2362     5.9836    -2.9415 H       
  29 H29           -0.1618     4.0155    -0.7601 H       
@<TRIPOS>BOND
   1    1    2 ar
   2    1   10 ar
   3    2    3 ar
   4    2   18 1
   5    3    4 ar
   6    3   19 1
   7    4    5 ar
   8    4   20 1
   9    5    6 ar
  10    5   10 ar
  11    6    7 ar
  12    6   21 1
  13    7    8 ar
  14    7   22 1
  15    8    9 ar
  16    8   11 1
  17    9   10 ar
  18    9   17 1
  19   11   12 2
  20   11   13 am
  21   13   14 1
  22   13   15 1
  23   14   23 1
  24   14   24 1
  25   14   25 1
  26   15   16 1
  27   16   26 1
  28   16   27 1
  29   16   28 1
  30   17   29 1

#	End of record

