#	Name: ASD02030533
#	Creating user name:	WinNT
#	Creation time:	15. 06. 2019 20:15

#	Modifying user name:	WinNT
#	Modification time:	15. 06. 2019 20:15

#	Program:	/corina/corina34_cracker 3.40 0067  02.08.2006

@<TRIPOS>MOLECULE
ASD02030533
  67   71    0    0    0
SMALL
NO_CHARGES


@<TRIPOS>ATOM
   1 N1            -0.1355     1.5232    -0.8109 N.am    
   2 C2            -0.1016     0.0570    -0.7163 C.3     
   3 C3            -0.8592    -0.3703     0.5469 C.3     
   4 N4            -2.1613     0.3108     0.5665 N.am    
   5 C5            -2.1952     1.7770     0.4719 C.3     
   6 C6            -1.4373     2.2046    -0.7856 C.3     
   7 C7             1.0072     2.2305    -0.9132 C.2     
   8 C8             2.3127     1.5479    -0.7902 C.2     
   9 N9             3.4899     2.1329    -0.7382 N.2     
  10 N10            2.5059     0.2188    -0.7059 N.2     
  11 C11            3.7956     0.0186    -0.6092 C.2     
  12 N12            4.3981     1.2253    -0.6306 N.pl3   
  13 O13            0.9643     3.4299    -1.1067 O.2     
  14 C14           -3.3040    -0.3966     0.6689 C.2     
  15 C15           -3.2618    -1.8752     0.6599 C.ar    
  16 O16           -4.3691     0.1805     0.7685 O.2     
  17 C17           -1.2252     3.7198    -0.7670 C.3     
  18 C18           -2.2392     1.8101    -2.0275 C.3     
  19 C19            5.7786     1.4532    -0.5500 C.ar    
  20 C20            6.2723     2.7500    -0.5834 C.ar    
  21 C21            7.6346     2.9715    -0.5032 C.ar    
  22 C22            8.5049     1.9016    -0.3903 C.ar    
  23 C23            8.0149     0.6089    -0.3569 C.ar    
  24 C24            6.6547     0.3822    -0.4309 C.ar    
  25 N25           -2.1504    -2.4992     1.0626 N.ar    
  26 C26           -2.0416    -3.8084     1.0816 C.ar    
  27 C27           -3.1249    -4.6158     0.6661 C.ar    
  28 C28           -4.3195    -3.9859     0.2326 C.ar    
  29 C29           -4.3749    -2.5801     0.2406 C.ar    
  30 O30           -0.8892    -4.3855     1.4998 O.3     
  31 C31            0.1649    -3.5100     1.9052 C.3     
  32 Cl32           8.2538     4.5928    -0.5447 Cl      
  33 C33           -3.0489    -6.0141     0.6709 C.ar    
  34 C34           -4.1221    -6.7482     0.2599 C.ar    
  35 C35           -5.2950    -6.1298    -0.1656 C.ar    
  36 C36           -5.4045    -4.7712    -0.1831 C.ar    
  37 C37            1.3758    -4.3373     2.3411 C.3     
  38 C38            2.5044    -3.3999     2.7751 C.3     
  39 H39           -0.5798    -0.3774    -1.5942 H       
  40 H40            0.9326    -0.2818    -0.6548 H       
  41 H41           -1.0110    -1.4496     0.5349 H       
  42 H42           -0.2858    -0.0889     1.4301 H       
  43 H43           -3.2294     2.1158     0.4104 H       
  44 H44           -1.7170     2.2113     1.3498 H       
  45 H45            4.2880    -0.9388    -0.5243 H       
  46 H46           -0.4240     3.9659    -0.0702 H       
  47 H47           -0.9553     4.0611    -1.7664 H       
  48 H48           -2.1452     4.2116    -0.4512 H       
  49 H49           -3.2107     2.3039    -2.0047 H       
  50 H50           -1.6971     2.1159    -2.9223 H       
  51 H51           -2.3811     0.7295    -2.0402 H       
  52 H52            5.5931     3.5850    -0.6722 H       
  53 H53            9.5689     2.0765    -0.3285 H       
  54 H54            8.6966    -0.2242    -0.2691 H       
  55 H55            6.2730    -0.6278    -0.4044 H       
  56 H56           -5.2660    -2.0620    -0.0818 H       
  57 H57            0.4451    -2.8678     1.0703 H       
  58 H58           -0.1740    -2.8949     2.7389 H       
  59 H59           -2.1459    -6.5081     0.9978 H       
  60 H60           -4.0613    -7.8265     0.2640 H       
  61 H61           -6.1299    -6.7353    -0.4860 H       
  62 H62           -6.3195    -4.3032    -0.5150 H       
  63 H63            1.0956    -4.9796     3.1760 H       
  64 H64            1.7147    -4.9524     1.5074 H       
  65 H65            3.3671    -3.9894     3.0856 H       
  66 H66            2.7847    -2.7577     1.9402 H       
  67 H67            2.1655    -2.7849     3.6088 H       
@<TRIPOS>BOND
   1    1    2 1
   2    1    7 am
   3    1    6 1
   4    2    3 1
   5    2   39 1
   6    2   40 1
   7    3    4 1
   8    3   41 1
   9    3   42 1
  10    4    5 1
  11    4   14 am
  12    5    6 1
  13    5   43 1
  14    5   44 1
  15    6   17 1
  16    6   18 1
  17    7    8 1
  18    7   13 2
  19    8    9 2
  20    8   10 1
  21    9   12 1
  22   10   11 2
  23   11   12 1
  24   11   45 1
  25   12   19 1
  26   14   15 1
  27   14   16 2
  28   15   25 ar
  29   15   29 ar
  30   17   46 1
  31   17   47 1
  32   17   48 1
  33   18   49 1
  34   18   50 1
  35   18   51 1
  36   19   20 ar
  37   19   24 ar
  38   20   21 ar
  39   20   52 1
  40   21   22 ar
  41   21   32 1
  42   22   23 ar
  43   22   53 1
  44   23   24 ar
  45   23   54 1
  46   24   55 1
  47   25   26 ar
  48   26   27 ar
  49   26   30 1
  50   27   28 ar
  51   27   33 ar
  52   28   29 ar
  53   28   36 ar
  54   29   56 1
  55   30   31 1
  56   31   37 1
  57   31   57 1
  58   31   58 1
  59   33   34 ar
  60   33   59 1
  61   34   35 ar
  62   34   60 1
  63   35   36 ar
  64   35   61 1
  65   36   62 1
  66   37   38 1
  67   37   63 1
  68   37   64 1
  69   38   65 1
  70   38   66 1
  71   38   67 1

#	End of record

