#	Name: ASD03082345
#	Creating user name:	WinNT
#	Creation time:	15. 06. 2019 20:27

#	Modifying user name:	WinNT
#	Modification time:	15. 06. 2019 20:27

#	Program:	/corina/corina34_cracker 3.40 0067  02.08.2006

@<TRIPOS>MOLECULE
ASD03082345
  37   39    0    0    0
SMALL
NO_CHARGES


@<TRIPOS>ATOM
   1 C1            -3.5597    -0.6521    -0.4885 C.ar    
   2 C2            -2.4200    -0.0395     0.0155 C.ar    
   3 C3            -2.4947     1.2505     0.5254 C.ar    
   4 C4            -3.7016     1.9221     0.5306 C.ar    
   5 C5            -4.8377     1.3110     0.0286 C.ar    
   6 C6            -4.7666     0.0236    -0.4816 C.ar    
   7 F7            -5.8764    -0.5710    -0.9716 F       
   8 F8            -6.0172     1.9698     0.0357 F       
   9 N9            -1.1987    -0.7205     0.0101 N.pl3   
  10 C10           -1.1755    -2.1157     0.1080 C.2     
  11 C11           -0.0345    -2.9301     0.0062 C.2     
  12 N12           -2.2145    -2.8899     0.3163 N.2     
  13 N13           -1.7712    -4.2184     0.3478 N.pl3   
  14 C14           -0.4263    -4.2153     0.1546 C.2     
  15 C15           -2.5708    -5.3478     0.5476 C.ar    
  16 C16           -2.2877    -6.5478    -0.1015 C.ar    
  17 C17           -3.6683    -5.3039     1.4057 C.ar    
  18 C18           -4.4323    -6.4400     1.5756 C.ar    
  19 N19           -4.1349    -7.5568     0.9384 N.ar    
  20 C20           -3.1014    -7.6397     0.1225 C.ar    
  21 C21           -5.6212    -6.4055     2.5011 C.3     
  22 H22           -2.8925    -8.5724    -0.3802 H       
  23 C23            0.4681    -5.4274     0.1127 C.3     
  24 O24            1.8182    -5.0157    -0.1105 O.3     
  25 H25           -3.5029    -1.6533    -0.8895 H       
  26 H26           -1.6092     1.7282     0.9181 H       
  27 H27           -3.7591     2.9251     0.9272 H       
  28 H28           -0.3677    -0.2254    -0.0615 H       
  29 H29            0.9766    -2.5893    -0.1613 H       
  30 H30           -1.4434    -6.6223    -0.7709 H       
  31 H31           -3.9170    -4.3934     1.9305 H       
  32 H32           -6.5087    -6.1102     1.9415 H       
  33 H33           -5.7755    -7.3950     2.9314 H       
  34 H34           -5.4392    -5.6864     3.2997 H       
  35 H35            0.4028    -5.9601     1.0614 H       
  36 H36            0.1506    -6.0855    -0.6961 H       
  37 H37            2.4508    -5.7460    -0.1492 H       
@<TRIPOS>BOND
   1    1    2 ar
   2    1    6 ar
   3    1   25 1
   4    2    3 ar
   5    2    9 1
   6    3    4 ar
   7    3   26 1
   8    4    5 ar
   9    4   27 1
  10    5    6 ar
  11    5    8 1
  12    6    7 1
  13    9   10 1
  14    9   28 1
  15   10   11 1
  16   10   12 2
  17   11   14 2
  18   11   29 1
  19   12   13 1
  20   13   14 1
  21   13   15 1
  22   14   23 1
  23   15   16 ar
  24   15   17 ar
  25   16   20 ar
  26   16   30 1
  27   17   18 ar
  28   17   31 1
  29   18   19 ar
  30   18   21 1
  31   19   20 ar
  32   20   22 1
  33   21   32 1
  34   21   33 1
  35   21   34 1
  36   23   24 1
  37   23   35 1
  38   23   36 1
  39   24   37 1

#	End of record

