#	Name: ASD01816003
#	Creating user name:	WinNT
#	Creation time:	15. 06. 2019 19:34

#	Modifying user name:	WinNT
#	Modification time:	15. 06. 2019 19:34

#	Program:	/corina/corina34_cracker 3.40 0067  02.08.2006

@<TRIPOS>MOLECULE
ASD01816003
  41   45    0    0    0
SMALL
NO_CHARGES


@<TRIPOS>ATOM
   1 C1             0.3075     1.3823    -1.5319 C.ar    
   2 C2             0.3228    -0.0030    -1.5209 C.ar    
   3 C3             1.4121    -0.6901    -1.0264 C.ar    
   4 C4             2.5094     0.0063    -0.5330 C.ar    
   5 C5             2.4912     1.4109    -0.5459 C.ar    
   6 C6             1.3867     2.0923    -1.0467 C.ar    
   7 N7             3.6066    -0.6779    -0.0345 N.pl3   
   8 C8             4.6945    -0.0575     0.4554 C.2     
   9 C9             4.7885     1.3114     0.4934 C.2     
  10 C10            3.6659     2.1304    -0.0176 C.2     
  11 C11            5.7892     2.2750     0.9423 C.2     
  12 N12            5.2685     3.4977     0.7020 N.am    
  13 N13            3.9998     3.3806     0.1286 N.2     
  14 C14            5.9087     4.7103     0.9877 C.ar    
  15 O15            6.8772     2.0258     1.4354 O.2     
  16 C16            3.5812    -2.0767    -0.0408 C.ar    
  17 C17            6.8032     5.2565     0.0770 C.ar    
  18 C18            7.4330     6.4524     0.3615 C.ar    
  19 C19            7.1746     7.1067     1.5521 C.ar    
  20 C20            6.2850     6.5669     2.4626 C.ar    
  21 C21            5.6456     5.3731     2.1817 C.ar    
  22 F22            4.7763     4.8454     3.0712 F       
  23 C23            4.0664    -2.7765    -1.1378 C.ar    
  24 C24            3.0757    -2.7687     1.0528 C.ar    
  25 C25            3.0522    -4.1493     1.0441 C.ar    
  26 C26            3.5312    -4.8439    -0.0517 C.ar    
  27 C27            4.0402    -4.1583    -1.1405 C.ar    
  28 Br28           4.6933    -5.1127    -2.6367 Br      
  29 H29           -0.5498     1.9082    -1.9255 H       
  30 H30           -0.5264    -0.5503    -1.9027 H       
  31 H31            1.4123    -1.7701    -1.0224 H       
  32 H32            1.3742     3.1722    -1.0563 H       
  33 H33            5.5153    -0.6517     0.8291 H       
  34 H34            7.0066     4.7464    -0.8530 H       
  35 H35            8.1288     6.8771    -0.3470 H       
  36 H36            7.6692     8.0414     1.7715 H       
  37 H37            6.0857     7.0802     3.3917 H       
  38 H38            4.4634    -2.2415    -1.9879 H       
  39 H39            2.7018    -2.2272     1.9092 H       
  40 H40            2.6597    -4.6874     1.8942 H       
  41 H41            3.5120    -5.9237    -0.0558 H       
@<TRIPOS>BOND
   1    1    2 ar
   2    1    6 ar
   3    1   29 1
   4    2    3 ar
   5    2   30 1
   6    3    4 ar
   7    3   31 1
   8    4    5 ar
   9    4    7 1
  10    5    6 ar
  11    5   10 1
  12    6   32 1
  13    7    8 1
  14    7   16 1
  15    8    9 2
  16    8   33 1
  17    9   10 1
  18    9   11 1
  19   10   13 2
  20   11   12 am
  21   11   15 2
  22   12   13 1
  23   12   14 1
  24   14   17 ar
  25   14   21 ar
  26   16   23 ar
  27   16   24 ar
  28   17   18 ar
  29   17   34 1
  30   18   19 ar
  31   18   35 1
  32   19   20 ar
  33   19   36 1
  34   20   21 ar
  35   20   37 1
  36   21   22 1
  37   23   27 ar
  38   23   38 1
  39   24   25 ar
  40   24   39 1
  41   25   26 ar
  42   25   40 1
  43   26   27 ar
  44   26   41 1
  45   27   28 1

#	End of record

