#	Name: ASD01820093
#	Creating user name:	WinNT
#	Creation time:	15. 06. 2019 19:36

#	Modifying user name:	WinNT
#	Modification time:	15. 06. 2019 19:36

#	Program:	/corina/corina34_cracker 3.40 0067  02.08.2006

@<TRIPOS>MOLECULE
ASD01820093
  40   42    0    0    0
SMALL
NO_CHARGES


@<TRIPOS>ATOM
   1 C1            -0.0162     1.3422     0.0094 C.2     
   2 N2             0.0021    -0.0041     0.0020 N.am    
   3 C3             1.2122    -0.6816    -0.0132 C.2     
   4 C4             2.3251     1.4582    -0.0127 C.2     
   5 N5             1.1189     2.0621     0.0024 N.am    
   6 N6             1.5434    -1.9736    -0.0237 N.2     
   7 C7             2.8554    -2.1017    -0.0371 C.2     
   8 N8             3.4292    -0.8677    -0.0357 N.pl3   
   9 C9             2.3922     0.0550    -0.0204 C.2     
  10 C10           -1.2567    -0.7535     0.0105 C.3     
  11 O11           -1.0856     1.9210     0.0176 O.2     
  12 C12            1.0451     3.5252     0.0110 C.3     
  13 S13            3.7597     2.3925    -0.0214 S.2     
  14 S14            3.7294    -3.6316    -0.0543 S.3     
  15 C15            2.3376    -4.7888    -0.0481 C.3     
  16 C16            2.8676    -6.2240    -0.0614 C.3     
  17 N17            1.7380    -7.1631    -0.0564 N.3     
  18 C18            2.1960    -8.5419    -0.3078 C.3     
  19 C19            1.7241    -9.4045     0.8816 C.3     
  20 C20            0.5399    -8.5854     1.4592 C.3     
  21 C21            1.0287    -7.1318     1.2404 C.3     
  22 H22            4.3790    -0.6709    -0.0438 H       
  23 H23           -2.0945    -0.0564     0.0225 H       
  24 H24           -1.3149    -1.3761    -0.8823 H       
  25 H25           -1.2972    -1.3856     0.8975 H       
  26 H26            1.0365     3.8826     1.0407 H       
  27 H27            1.9106     3.9358    -0.5089 H       
  28 H28            0.1330     3.8459    -0.4925 H       
  29 H29            1.7380    -4.6312     0.8485 H       
  30 H30            1.7214    -4.6207    -0.9314 H       
  31 H31            3.4671    -6.3816    -0.9580 H       
  32 H32            3.4837    -6.3920     0.8219 H       
  33 H33            1.7580    -8.9152    -1.2335 H       
  34 H34            3.2838    -8.5650    -0.3740 H       
  35 H35            1.3854   -10.3820     0.5383 H       
  36 H36            2.5179    -9.5084     1.6213 H       
  37 H37           -0.3766    -8.7773     0.9012 H       
  38 H38            0.4006    -8.7950     2.5197 H       
  39 H39            1.7098    -6.8364     2.0385 H       
  40 H40            0.1802    -6.4493     1.1925 H       
@<TRIPOS>BOND
   1    1    2 am
   2    1    5 am
   3    1   11 2
   4    2    3 1
   5    2   10 1
   6    3    6 1
   7    3    9 2
   8    4    5 am
   9    4   13 2
  10    4    9 1
  11    5   12 1
  12    6    7 2
  13    7    8 1
  14    7   14 1
  15    8    9 1
  16    8   22 1
  17   10   23 1
  18   10   24 1
  19   10   25 1
  20   12   26 1
  21   12   27 1
  22   12   28 1
  23   14   15 1
  24   15   16 1
  25   15   29 1
  26   15   30 1
  27   16   17 1
  28   16   31 1
  29   16   32 1
  30   17   18 1
  31   17   21 1
  32   18   19 1
  33   18   33 1
  34   18   34 1
  35   19   20 1
  36   19   35 1
  37   19   36 1
  38   20   21 1
  39   20   37 1
  40   20   38 1
  41   21   39 1
  42   21   40 1

#	End of record

