#	Name: ASD01900485
#	Creating user name:	WinNT
#	Creation time:	15. 06. 2019 19:52

#	Modifying user name:	WinNT
#	Modification time:	15. 06. 2019 19:52

#	Program:	/corina/corina34_cracker 3.40 0067  02.08.2006

@<TRIPOS>MOLECULE
ASD01900485
  36   39    0    0    0
SMALL
NO_CHARGES


@<TRIPOS>ATOM
   1 C1            -0.1954     1.4985     0.1850 C.ar    
   2 C2             0.1262     0.1530     0.0492 C.ar    
   3 C3             1.4377    -0.2599     0.1803 C.ar    
   4 C4             2.4349     0.6698     0.4477 C.ar    
   5 C5             2.1128     2.0139     0.5836 C.ar    
   6 C6             0.8014     2.4268     0.4521 C.ar    
   7 N7            -1.5251     1.9185     0.0464 N.pl3   
   8 N8             3.7637     0.2519     0.5805 N.pl3   
   9 C9            -1.8050     3.1698    -0.4766 C.ar    
  10 N10           -3.0589     3.5978    -0.4942 N.ar    
  11 C11           -3.3603     4.7878    -0.9867 C.ar    
  12 C12           -2.3461     5.5890    -1.4876 C.ar    
  13 C13           -1.0456     5.1104    -1.4537 C.ar    
  14 N14           -0.8118     3.9131    -0.9426 N.ar    
  15 C15            6.0875     0.7324     1.5212 C.ar    
  16 C16            6.5708     1.7269     2.3928 C.ar    
  17 C17            7.9245     1.7339     2.7276 C.ar    
  18 C18            8.7368     0.7577     2.1852 C.ar    
  19 C19            8.1921    -0.1930     1.3318 C.ar    
  20 N20            6.9144    -0.1858     1.0268 N.ar    
  21 N21            4.3574     2.0377     2.0889 N.2     
  22 N22            5.5039     2.5165     2.7313 N.pl3   
  23 C23            4.6549     0.9933     1.3623 C.2     
  24 Cl24          -1.1204    -1.0082    -0.2844 Cl      
  25 H25            1.6880    -1.3052     0.0752 H       
  26 H26            2.8880     2.7364     0.7922 H       
  27 H27            0.5515     3.4722     0.5572 H       
  28 H28           -2.2494     1.3328     0.3167 H       
  29 H29            4.0665    -0.5522     0.1303 H       
  30 H30           -4.3843     5.1310    -0.9986 H       
  31 H31           -2.5644     6.5647    -1.8958 H       
  32 H32           -0.2325     5.7097    -1.8360 H       
  33 H33            8.3270     2.4832     3.3932 H       
  34 H34            9.7900     0.7339     2.4230 H       
  35 H35            8.8321    -0.9539     0.9103 H       
  36 H36            5.5379     3.2849     3.3224 H       
@<TRIPOS>BOND
   1    1    2 ar
   2    1    6 ar
   3    1    7 1
   4    2    3 ar
   5    2   24 1
   6    3    4 ar
   7    3   25 1
   8    4    5 ar
   9    4    8 1
  10    5    6 ar
  11    5   26 1
  12    6   27 1
  13    7    9 1
  14    7   28 1
  15    8   23 1
  16    8   29 1
  17    9   10 ar
  18    9   14 ar
  19   10   11 ar
  20   11   12 ar
  21   11   30 1
  22   12   13 ar
  23   12   31 1
  24   13   14 ar
  25   13   32 1
  26   15   16 ar
  27   15   20 ar
  28   15   23 1
  29   16   17 ar
  30   16   22 1
  31   17   18 ar
  32   17   33 1
  33   18   19 ar
  34   18   34 1
  35   19   20 ar
  36   19   35 1
  37   21   22 1
  38   21   23 2
  39   22   36 1

#	End of record

