#	Name: ASD09890011
#	Creating user name:	WinNT
#	Creation time:	15. 06. 2019 21:24

#	Modifying user name:	WinNT
#	Modification time:	15. 06. 2019 21:24

#	Program:	/corina/corina34_cracker 3.40 0067  02.08.2006

@<TRIPOS>MOLECULE
ASD09890011
  42   45    0    0    0
SMALL
NO_CHARGES


@<TRIPOS>ATOM
   1 C1            -0.3768     1.5469    -0.3150 C.ar    
   2 C2            -0.5166     0.1760    -0.4087 C.ar    
   3 C3             0.5980    -0.6400    -0.3458 C.ar    
   4 C4             1.8555    -0.0865    -0.1890 C.ar    
   5 C5             2.0016     1.2837    -0.0947 C.ar    
   6 C6             0.8843     2.1055    -0.1575 C.ar    
   7 N7             1.0294     3.4965    -0.0621 N.pl3   
   8 C8             1.6118     4.3275    -0.9723 C.2     
   9 C9             0.6096     4.3040     0.9631 C.2     
  10 N10            0.9467     5.5343     0.6447 N.2     
  11 N11            1.5370     5.5418    -0.4969 N.2     
  12 C12            2.2291     3.9200    -2.2853 C.3     
  13 O13            1.2346     3.9563    -3.3108 O.3     
  14 C14            1.6292     3.6138    -4.5653 C.ar    
  15 C15            0.7154     3.6271    -5.6091 C.ar    
  16 C16            1.1191     3.2785    -6.8834 C.ar    
  17 C17            2.4325     2.9165    -7.1191 C.ar    
  18 C18            3.3451     2.9020    -6.0804 C.ar    
  19 C19            2.9479     3.2557    -4.8055 C.ar    
  20 C20           -0.0898     3.8732     2.1930 C.ar    
  21 C21           -0.0605     2.5338     2.5831 C.ar    
  22 C22           -0.7770     4.8055     2.9713 C.ar    
  23 C23           -1.4226     4.3982     4.1205 C.ar    
  24 C24           -1.3898     3.0687     4.5018 C.ar    
  25 C25           -0.7102     2.1394     3.7346 C.ar    
  26 H26           -1.2473     2.1839    -0.3687 H       
  27 H27           -1.4975    -0.2592    -0.5309 H       
  28 H28            0.4862    -1.7117    -0.4190 H       
  29 H29            2.7242    -0.7263    -0.1398 H       
  30 H30            2.9839     1.7154     0.0281 H       
  31 H31            3.0357     4.6086    -2.5368 H       
  32 H32            2.6275     2.9089    -2.2012 H       
  33 H33           -0.3107     3.9095    -5.4255 H       
  34 H34            0.4080     3.2884    -7.6963 H       
  35 H35            2.7461     2.6443    -8.1161 H       
  36 H36            4.3703     2.6182    -6.2669 H       
  37 H37            3.6610     3.2442    -3.9945 H       
  38 H38            0.4694     1.8074     1.9848 H       
  39 H39           -0.8031     5.8437     2.6749 H       
  40 H40           -1.9546     5.1188     4.7240 H       
  41 H41           -1.8968     2.7549     5.4023 H       
  42 H42           -0.6883     1.1030     4.0376 H       
@<TRIPOS>BOND
   1    1    2 ar
   2    1    6 ar
   3    1   26 1
   4    2    3 ar
   5    2   27 1
   6    3    4 ar
   7    3   28 1
   8    4    5 ar
   9    4   29 1
  10    5    6 ar
  11    5   30 1
  12    6    7 1
  13    7    8 1
  14    7    9 1
  15    8   12 1
  16    8   11 2
  17    9   10 2
  18    9   20 1
  19   10   11 1
  20   12   13 1
  21   12   31 1
  22   12   32 1
  23   13   14 1
  24   14   15 ar
  25   14   19 ar
  26   15   16 ar
  27   15   33 1
  28   16   17 ar
  29   16   34 1
  30   17   18 ar
  31   17   35 1
  32   18   19 ar
  33   18   36 1
  34   19   37 1
  35   20   21 ar
  36   20   22 ar
  37   21   25 ar
  38   21   38 1
  39   22   23 ar
  40   22   39 1
  41   23   24 ar
  42   23   40 1
  43   24   25 ar
  44   24   41 1
  45   25   42 1

#	End of record

