#	Name: ASD01410394
#	Creating user name:	WinNT
#	Creation time:	15. 06. 2019 19:17

#	Modifying user name:	WinNT
#	Modification time:	15. 06. 2019 19:17

#	Program:	/corina/corina34_cracker 3.40 0067  02.08.2006

@<TRIPOS>MOLECULE
ASD01410394
  90   96    0    0    0
SMALL
NO_CHARGES


@<TRIPOS>ATOM
   1 C1             0.0683     0.8354    -1.5801 C.3     
   2 O2             0.6839    -0.3178    -1.0028 O.3     
   3 C3             1.4748    -1.0667    -1.8152 C.ar    
   4 C4             1.6797    -0.7321    -3.1470 C.ar    
   5 C5             2.4852    -1.4924    -3.9786 C.ar    
   6 C6             3.1351    -2.6331    -3.5377 C.ar    
   7 C7             2.9429    -2.9902    -2.2042 C.ar    
   8 C8             2.1329    -2.2168    -1.3509 C.ar    
   9 C9             2.1788    -2.8798    -0.0714 C.2     
  10 C10            2.9834    -3.9937    -0.1928 C.2     
  11 N11            3.4282    -4.0564    -1.4714 N.pl3   
  12 C12            4.2810    -5.0532    -2.1521 C.3     
  13 C13            5.2616    -5.6075    -1.1540 C.2     
  14 C14            6.3421    -6.1825    -0.6047 C.2     
  15 C15            5.3559    -5.6992     0.3401 C.2     
  16 C16            4.5252    -5.3055     1.3743 C.2     
  17 C17            3.1664    -4.7936     1.0594 C.3     
  18 C18            2.6155    -3.9966     2.2490 C.3     
  19 C19            2.7302    -4.8436     3.5186 C.3     
  20 C20            4.1764    -5.2021     3.7424 C.2     
  21 C21            4.9878    -5.4071     2.7049 C.2     
  22 C22            3.4112    -2.7278     2.4167 C.2     
  23 O23            4.5226    -2.6414     1.9391 O.2     
  24 N24            2.8876    -1.6890     3.0973 N.am    
  25 C25            3.6842    -0.4816     3.3673 C.3     
  26 C26            2.8689     0.7423     2.9342 C.3     
  27 C27            3.5870     2.0180     3.3787 C.3     
  28 O28            1.5761     0.6856     3.5417 O.3     
  29 C29            0.7934    -0.4441     3.1481 C.3     
  30 C30            1.5005    -1.7264     3.5872 C.3     
  31 C31           -0.5845    -0.3663     3.8086 C.3     
  32 C32            7.6444    -6.8509    -0.8173 C.2     
  33 O33            8.0574    -7.0323    -1.9464 O.2     
  34 N34            8.3731    -7.2590     0.2405 N.am    
  35 S35            9.8311    -8.0073     0.0024 S.o2    
  36 O36           10.3584    -8.2786     1.2937 O.2     
  37 O37            9.6099    -9.0154    -0.9744 O.2     
  38 N38           10.8442    -6.8970    -0.6927 N.am    
  39 C39           11.6724    -6.0319     0.1511 C.3     
  40 C40           10.9124    -6.7799    -2.1514 C.3     
  41 C41            4.0078    -3.4494    -4.4559 C.3     
  42 C42            3.5184    -3.2930    -5.8971 C.3     
  43 C43            4.4045    -4.1218    -6.8293 C.3     
  44 C44            5.8507    -3.6335    -6.7259 C.3     
  45 C45            6.3401    -3.7899    -5.2847 C.3     
  46 C46            5.4540    -2.9611    -4.3525 C.3     
  47 H47            0.8389     1.5141    -1.9454 H       
  48 H48           -0.5697     0.5299    -2.4095 H       
  49 H49           -0.5340     1.3417    -0.8258 H       
  50 H50            1.1963     0.1471    -3.5466 H       
  51 H51            2.6105    -1.1852    -5.0064 H       
  52 H52            1.6714    -2.5595     0.8266 H       
  53 H53            3.6607    -5.8599    -2.5425 H       
  54 H54            4.8213    -4.5753    -2.9694 H       
  55 H55            2.5187    -5.6650     0.9626 H       
  56 H56            1.5691    -3.7501     2.0689 H       
  57 H57            2.3596    -4.2746     4.3711 H       
  58 H58            2.1425    -5.7544     3.4034 H       
  59 H59            4.5574    -5.2897     4.7491 H       
  60 H60            6.0213    -5.6638     2.8847 H       
  61 H61            3.9043    -0.4176     4.4329 H       
  62 H62            4.6149    -0.5217     2.8014 H       
  63 H63            2.7625     0.7435     1.8494 H       
  64 H64            4.5744     2.0583     2.9187 H       
  65 H65            3.0068     2.8878     3.0704 H       
  66 H66            3.6915     2.0169     4.4637 H       
  67 H67            0.6786    -0.4476     2.0641 H       
  68 H68            0.9852    -2.5913     3.1695 H       
  69 H69            1.5029    -1.7901     4.6754 H       
  70 H70           -1.0862     0.5495     3.4960 H       
  71 H71           -1.1807    -1.2279     3.5080 H       
  72 H72           -0.4683    -0.3652     4.8924 H       
  73 H73            8.0436    -7.1143     1.1412 H       
  74 H74           12.6301    -6.5171     0.3394 H       
  75 H75           11.8398    -5.0819    -0.3564 H       
  76 H76           11.1633    -5.8531     1.0982 H       
  77 H77           10.2309    -7.4990    -2.6059 H       
  78 H78           10.6269    -5.7708    -2.4486 H       
  79 H79           11.9301    -6.9827    -2.4851 H       
  80 H80            3.9572    -4.4992    -4.1669 H       
  81 H81            2.4881    -3.6409    -5.9707 H       
  82 H82            3.5690    -2.2433    -6.1861 H       
  83 H83            4.3539    -5.1716    -6.5403 H       
  84 H84            4.0559    -4.0104    -7.8560 H       
  85 H85            6.4819    -4.2239    -7.3900 H       
  86 H86            5.9013    -2.5837    -7.0149 H       
  87 H87            6.2895    -4.8397    -4.9958 H       
  88 H88            7.3704    -3.4420    -5.2111 H       
  89 H89            5.5046    -1.9113    -4.6415 H       
  90 H90            5.8026    -3.0725    -3.3258 H       
@<TRIPOS>BOND
   1    1    2 1
   2    1   47 1
   3    1   48 1
   4    1   49 1
   5    2    3 1
   6    3    4 ar
   7    3    8 ar
   8    4    5 ar
   9    4   50 1
  10    5    6 ar
  11    5   51 1
  12    6    7 ar
  13    6   41 1
  14    7    8 ar
  15    7   11 1
  16    8    9 1
  17    9   10 2
  18    9   52 1
  19   10   11 1
  20   10   17 1
  21   11   12 1
  22   12   13 1
  23   12   53 1
  24   12   54 1
  25   13   14 2
  26   13   15 1
  27   14   15 1
  28   14   32 1
  29   15   16 2
  30   16   17 1
  31   16   21 1
  32   17   18 1
  33   17   55 1
  34   18   19 1
  35   18   22 1
  36   18   56 1
  37   19   20 1
  38   19   57 1
  39   19   58 1
  40   20   21 2
  41   20   59 1
  42   21   60 1
  43   22   23 2
  44   22   24 am
  45   24   25 1
  46   24   30 1
  47   25   26 1
  48   25   61 1
  49   25   62 1
  50   26   27 1
  51   26   28 1
  52   26   63 1
  53   27   64 1
  54   27   65 1
  55   27   66 1
  56   28   29 1
  57   29   30 1
  58   29   31 1
  59   29   67 1
  60   30   68 1
  61   30   69 1
  62   31   70 1
  63   31   71 1
  64   31   72 1
  65   32   33 2
  66   32   34 am
  67   34   35 am
  68   34   73 1
  69   35   36 2
  70   35   37 2
  71   35   38 am
  72   38   39 1
  73   38   40 1
  74   39   74 1
  75   39   75 1
  76   39   76 1
  77   40   77 1
  78   40   78 1
  79   40   79 1
  80   41   42 1
  81   41   46 1
  82   41   80 1
  83   42   43 1
  84   42   81 1
  85   42   82 1
  86   43   44 1
  87   43   83 1
  88   43   84 1
  89   44   45 1
  90   44   85 1
  91   44   86 1
  92   45   46 1
  93   45   87 1
  94   45   88 1
  95   46   89 1
  96   46   90 1

#	End of record

