#	Name: ASD01912533
#	Creating user name:	WinNT
#	Creation time:	15. 06. 2019 19:59

#	Modifying user name:	WinNT
#	Modification time:	15. 06. 2019 19:59

#	Program:	/corina/corina34_cracker 3.40 0067  02.08.2006

@<TRIPOS>MOLECULE
ASD01912533
  34   35    0    0    0
SMALL
NO_CHARGES


@<TRIPOS>ATOM
   1 C1            -0.0167     1.3798     0.0096 C.ar    
   2 C2             0.0021    -0.0041     0.0020 C.ar    
   3 C3             1.2058    -0.6870    -0.0131 C.ar    
   4 C4             2.3968     0.0078    -0.0203 C.ar    
   5 C5             2.3862     1.4062    -0.0127 C.ar    
   6 C6             1.1658     2.0890     0.0021 C.ar    
   7 C7             3.6529     2.1555    -0.0202 C.2     
   8 C8             3.6370     3.6624    -0.0120 C.3     
   9 O9             4.7092     1.5604    -0.0331 O.2     
  10 C10            5.0524     4.1797    -0.0222 C.2     
  11 C11            5.3067     5.6331    -0.0167 C.ar    
  12 O12            5.9819     3.4018    -0.0348 O.2     
  13 C13            6.6192     6.1061    -0.0261 C.ar    
  14 C14            6.8414     7.4742    -0.0208 C.ar    
  15 C15            5.7453     8.3222    -0.0062 C.ar    
  16 C16            4.4675     7.7828     0.0026 C.ar    
  17 N17            4.2836     6.4816    -0.0082 N.ar    
  18 C18            3.2732     8.7017     0.0184 C.3     
  19 C19            5.9399     9.8166     0.0005 C.3     
  20 H20           -0.9600     1.9056     0.0169 H       
  21 H21           -0.9275    -0.5539     0.0083 H       
  22 H22            1.2122    -1.7670    -0.0190 H       
  23 H23            3.3353    -0.5266    -0.0314 H       
  24 H24            1.1495     3.1689     0.0077 H       
  25 H25            3.1113     4.0250    -0.8953 H       
  26 H26            3.1276     4.0155     0.8846 H       
  27 H27            7.4500     5.4162    -0.0371 H       
  28 H28            7.8460     7.8705    -0.0275 H       
  29 H29            2.9759     8.9288    -1.0054 H       
  30 H30            2.4472     8.2152     0.5372 H       
  31 H31            3.5327     9.6259     0.5349 H       
  32 H32            5.9777    10.1827    -1.0255 H       
  33 H33            5.1089    10.2889     0.5245 H       
  34 H34            6.8739    10.0590     0.5074 H       
@<TRIPOS>BOND
   1    1    2 ar
   2    1    6 ar
   3    1   20 1
   4    2    3 ar
   5    2   21 1
   6    3    4 ar
   7    3   22 1
   8    4    5 ar
   9    4   23 1
  10    5    6 ar
  11    5    7 1
  12    6   24 1
  13    7    8 1
  14    7    9 2
  15    8   10 1
  16    8   25 1
  17    8   26 1
  18   10   11 1
  19   10   12 2
  20   11   13 ar
  21   11   17 ar
  22   13   14 ar
  23   13   27 1
  24   14   15 ar
  25   14   28 1
  26   15   16 ar
  27   15   19 1
  28   16   17 ar
  29   16   18 1
  30   18   29 1
  31   18   30 1
  32   18   31 1
  33   19   32 1
  34   19   33 1
  35   19   34 1

#	End of record

