#	Name: ASD05790035
#	Creating user name:	WinNT
#	Creation time:	15. 06. 2019 21:03

#	Modifying user name:	WinNT
#	Modification time:	15. 06. 2019 21:03

#	Program:	/corina/corina34_cracker 3.40 0067  02.08.2006

@<TRIPOS>MOLECULE
ASD05790035
  42   45    0    0    0
SMALL
NO_CHARGES


@<TRIPOS>ATOM
   1 C1            -0.1752     1.4733    -0.5691 C.2     
   2 C2            -0.1530    -0.0033    -0.5728 C.ar    
   3 C3             0.8995    -0.6880    -1.1872 C.ar    
   4 C4             0.9136    -2.0684    -1.1868 C.ar    
   5 C5            -0.1118    -2.7736    -0.5797 C.ar    
   6 C6            -1.1575    -2.1001     0.0302 C.ar    
   7 C7            -1.1805    -0.7215     0.0424 C.ar    
   8 O8             0.7233     2.0961    -1.1012 O.2     
   9 N9            -1.1942     2.1305     0.0193 N.am    
  10 C10           -1.1619     3.5247     0.1193 C.ar    
  11 C11           -2.3401     4.2550     0.0193 C.ar    
  12 C12           -2.3106     5.6300     0.1176 C.ar    
  13 C13           -1.0979     6.2875     0.3174 C.ar    
  14 C14            0.0826     5.5531     0.4173 C.ar    
  15 C15            0.0476     4.1778     0.3241 C.ar    
  16 O16           -0.3675     9.8159     0.6509 O.3     
  17 C17           -1.7010     9.8303     0.4826 C.2     
  18 N18           -2.1241     8.5972     0.3449 N.2     
  19 C19           -1.0636     7.7673     0.4230 C.2     
  20 C20            0.0408     8.5326     0.6153 C.2     
  21 C21           -2.5515    11.0392     0.4570 C.ar    
  22 C22           -1.9791    12.3023     0.6152 C.ar    
  23 C23           -2.7785    13.4265     0.5904 C.ar    
  24 C24           -4.1447    13.3037     0.4096 C.ar    
  25 C25           -4.7184    12.0545     0.2526 C.ar    
  26 C26           -3.9295    10.9228     0.2688 C.ar    
  27 Cl27          -0.0871    -4.5094    -0.5833 Cl      
  28 Cl28           2.1851     0.1952    -1.9491 Cl      
  29 H29            1.7256    -2.5993    -1.6613 H       
  30 H30           -1.9545    -2.6562     0.5014 H       
  31 H31           -1.9939    -0.1982     0.5229 H       
  32 H32           -1.9500     1.6362     0.3734 H       
  33 H33           -3.2794     3.7452    -0.1358 H       
  34 H34           -3.2263     6.1972     0.0396 H       
  35 H35            1.0233     6.0606     0.5717 H       
  36 H36            0.9615     3.6081     0.4059 H       
  37 H37            1.0560     8.1793     0.7198 H       
  38 H38           -0.9129    12.3994     0.7571 H       
  39 H39           -2.3369    14.4044     0.7127 H       
  40 H40           -4.7661    14.1868     0.3913 H       
  41 H41           -5.7855    11.9655     0.1123 H       
  42 H42           -4.3779     9.9486     0.1414 H       
@<TRIPOS>BOND
   1    1    2 1
   2    1    8 2
   3    1    9 am
   4    2    3 ar
   5    2    7 ar
   6    3    4 ar
   7    3   28 1
   8    4    5 ar
   9    4   29 1
  10    5    6 ar
  11    5   27 1
  12    6    7 ar
  13    6   30 1
  14    7   31 1
  15    9   10 1
  16    9   32 1
  17   10   11 ar
  18   10   15 ar
  19   11   12 ar
  20   11   33 1
  21   12   13 ar
  22   12   34 1
  23   13   14 ar
  24   13   19 1
  25   14   15 ar
  26   14   35 1
  27   15   36 1
  28   16   17 1
  29   16   20 1
  30   17   18 2
  31   17   21 1
  32   18   19 1
  33   19   20 2
  34   20   37 1
  35   21   22 ar
  36   21   26 ar
  37   22   23 ar
  38   22   38 1
  39   23   24 ar
  40   23   39 1
  41   24   25 ar
  42   24   40 1
  43   25   26 ar
  44   25   41 1
  45   26   42 1

#	End of record

