#	Name: ASD01148181
#	Creating user name:	WinNT
#	Creation time:	15. 06. 2019 19:02

#	Modifying user name:	WinNT
#	Modification time:	15. 06. 2019 19:02

#	Program:	/corina/corina34_cracker 3.40 0067  02.08.2006

@<TRIPOS>MOLECULE
ASD01148181
  43   45    0    0    0
SMALL
NO_CHARGES


@<TRIPOS>ATOM
   1 C1            -0.0167     1.3793     0.0096 C.ar    
   2 C2             0.0021    -0.0041     0.0020 C.ar    
   3 C3             1.2098    -0.6789    -0.0131 C.ar    
   4 C4             2.3967     0.0292    -0.0207 C.ar    
   5 C5             2.3773     1.4115    -0.0131 C.ar    
   6 C6             1.1709     2.0863     0.0021 C.ar    
   7 C7             3.6719     2.1830    -0.0208 C.3     
   8 O8             4.6968     1.4643    -0.7367 O.3     
   9 C9             3.5429     3.4728    -0.8657 C.3     
  10 C10            4.0465     3.0278    -2.2256 C.2     
  11 N11            4.6717     1.9079    -2.0789 N.2     
  12 C12            3.8547     3.7510    -3.4980 C.ar    
  13 C13            4.3734     3.2266    -4.6847 C.ar    
  14 C14            3.1496     4.9572    -3.5166 C.ar    
  15 C15            2.9703     5.6314    -4.7031 C.ar    
  16 C16            3.4939     5.1098    -5.8890 C.ar    
  17 C17            4.1950     3.9012    -5.8712 C.ar    
  18 C18            3.3016     5.8333    -7.1624 C.2     
  19 O19            2.6880     6.8821    -7.1786 O.2     
  20 N20            3.8067     5.3302    -8.3062 N.am    
  21 C21            4.1230     2.5044     1.4054 C.3     
  22 F22            4.2976     1.3138     2.1188 F       
  23 F23            5.3330     3.2055     1.3649 F       
  24 F24            3.1509     3.2880     2.0366 F       
  25 Cl25          -1.4892    -0.8928     0.0121 Cl      
  26 C26            3.6312     5.9904    -9.4680 C.2     
  27 O27            4.1356     5.4880   -10.6103 O.3     
  28 C28            3.9082     6.2525   -11.8237 C.3     
  29 O29            3.0179     7.0387    -9.4843 O.2     
  30 H30           -0.9592     1.9066     0.0170 H       
  31 H31            1.2250    -1.7588    -0.0187 H       
  32 H32            3.3395    -0.4974    -0.0321 H       
  33 H33            1.1564     3.1662     0.0080 H       
  34 H34            2.5031     3.7945    -0.9245 H       
  35 H35            4.1719     4.2654    -0.4605 H       
  36 H36            4.9146     2.2921    -4.6710 H       
  37 H37            2.7448     5.3603    -2.6000 H       
  38 H38            2.4247     6.5633    -4.7176 H       
  39 H39            4.6000     3.4982    -6.7877 H       
  40 H40            4.2964     4.4931    -8.2932 H       
  41 H41            2.8364     6.3513   -11.9953 H       
  42 H42            4.3521     7.2424   -11.7180 H       
  43 H43            4.3655     5.7376   -12.6686 H       
@<TRIPOS>BOND
   1    1    2 ar
   2    1    6 ar
   3    1   30 1
   4    2    3 ar
   5    2   25 1
   6    3    4 ar
   7    3   31 1
   8    4    5 ar
   9    4   32 1
  10    5    6 ar
  11    5    7 1
  12    6   33 1
  13    7    8 1
  14    7    9 1
  15    7   21 1
  16    8   11 1
  17    9   10 1
  18    9   34 1
  19    9   35 1
  20   10   11 2
  21   10   12 1
  22   12   13 ar
  23   12   14 ar
  24   13   17 ar
  25   13   36 1
  26   14   15 ar
  27   14   37 1
  28   15   16 ar
  29   15   38 1
  30   16   17 ar
  31   16   18 1
  32   17   39 1
  33   18   19 2
  34   18   20 am
  35   20   26 am
  36   20   40 1
  37   21   22 1
  38   21   23 1
  39   21   24 1
  40   26   27 1
  41   26   29 2
  42   27   28 1
  43   28   41 1
  44   28   42 1
  45   28   43 1

#	End of record

