#	Name: ASD01150610
#	Creating user name:	WinNT
#	Creation time:	15. 06. 2019 19:04

#	Modifying user name:	WinNT
#	Modification time:	15. 06. 2019 19:04

#	Program:	/corina/corina34_cracker 3.40 0067  02.08.2006

@<TRIPOS>MOLECULE
ASD01150610
  45   47    0    0    0
SMALL
NO_CHARGES


@<TRIPOS>ATOM
   1 C1             0.4940     1.3928    -0.9444 C.ar    
   2 C2             0.4600     0.0122    -0.9191 C.ar    
   3 C3             1.9461     0.0072     0.9680 C.ar    
   4 C4             1.9822     1.3938     0.9444 C.ar    
   5 C5             1.2553     2.0879    -0.0126 C.ar    
   6 N6             1.2894     3.4867    -0.0395 N.am    
   7 C7             0.1379     4.1763    -0.1206 C.2     
   8 N8             0.1338     5.5220    -0.1486 N.am    
   9 C9             1.2975     6.2026    -0.0946 C.2     
  10 C10            2.5605     5.4544    -0.0053 C.2     
  11 N11            2.5215     4.1482     0.0243 N.2     
  12 O12            1.3021     7.4193    -0.1198 O.2     
  13 C13           -1.1353     6.2483    -0.2382 C.3     
  14 O14           -0.9175     3.5740    -0.1699 O.2     
  15 C15           -1.6539     6.5266     1.1491 C.ar    
  16 O16            3.7486     6.1106     0.0507 O.3     
  17 C17            4.9288     5.3094     0.1362 C.3     
  18 C18            1.1830    -0.6826     0.0331 C.ar    
  19 N19            2.6782    -0.6966     1.9314 N.am    
  20 C20            2.9412    -0.1290     3.1252 C.2     
  21 O21            2.6194     1.0217     3.3337 O.2     
  22 C22            3.6350    -0.9242     4.2011 C.3     
  23 C23           -1.5652     7.8004     1.6772 C.ar    
  24 C24           -2.0411     8.0567     2.9496 C.ar    
  25 C25           -2.6068     7.0381     3.6956 C.ar    
  26 C26           -2.6964     5.7623     3.1684 C.ar    
  27 C27           -2.2246     5.5069     1.8924 C.ar    
  28 Cl28           1.1373    -2.4178     0.0611 Cl      
  29 F29           -2.3120     4.2615     1.3762 F       
  30 Cl30          -3.2036     7.3609     5.2935 Cl      
  31 H31           -0.0682     1.9326    -1.6921 H       
  32 H32           -0.1328    -0.5257    -1.6441 H       
  33 H33            2.5746     1.9320     1.6695 H       
  34 H34           -0.9784     7.1906    -0.7633 H       
  35 H35           -1.8614     5.6452    -0.7834 H       
  36 H36            4.9927     4.6620    -0.7384 H       
  37 H37            5.8052     5.9564     0.1741 H       
  38 H38            4.8888     4.6986     1.0381 H       
  39 H39            2.9963    -1.5927     1.7398 H       
  40 H40            3.8438    -1.9286     3.8329 H       
  41 H41            4.5706    -0.4336     4.4692 H       
  42 H42            2.9922    -0.9854     5.0793 H       
  43 H43           -1.1235     8.5962     1.0958 H       
  44 H44           -1.9710     9.0525     3.3617 H       
  45 H45           -3.1379     4.9669     3.7505 H       
@<TRIPOS>BOND
   1    1    2 ar
   2    1    5 ar
   3    1   31 1
   4    2   18 ar
   5    2   32 1
   6    3    4 ar
   7    3   19 1
   8    3   18 ar
   9    4    5 ar
  10    4   33 1
  11    5    6 1
  12    6    7 am
  13    6   11 1
  14    7    8 am
  15    7   14 2
  16    8    9 am
  17    8   13 1
  18    9   10 1
  19    9   12 2
  20   10   11 2
  21   10   16 1
  22   13   15 1
  23   13   34 1
  24   13   35 1
  25   15   23 ar
  26   15   27 ar
  27   16   17 1
  28   17   36 1
  29   17   37 1
  30   17   38 1
  31   18   28 1
  32   19   20 am
  33   19   39 1
  34   20   21 2
  35   20   22 1
  36   22   40 1
  37   22   41 1
  38   22   42 1
  39   23   24 ar
  40   23   43 1
  41   24   25 ar
  42   24   44 1
  43   25   26 ar
  44   25   30 1
  45   26   27 ar
  46   26   45 1
  47   27   29 1

#	End of record

