#	Name: ASD01912445
#	Creating user name:	WinNT
#	Creation time:	15. 06. 2019 19:59

#	Modifying user name:	WinNT
#	Modification time:	15. 06. 2019 19:59

#	Program:	/corina/corina34_cracker 3.40 0067  02.08.2006

@<TRIPOS>MOLECULE
ASD01912445
  62   66    0    0    0
SMALL
NO_CHARGES


@<TRIPOS>ATOM
   1 C1             0.0120     1.3535     0.5045 C.ar    
   2 C2             0.0396    -0.0259     0.4560 C.ar    
   3 C3             1.2010    -0.6832     0.0569 C.ar    
   4 C4             2.3294     0.0564    -0.2913 C.ar    
   5 C5             2.2910     1.4349    -0.2392 C.ar    
   6 C6             1.1349     2.0826     0.1579 C.ar    
   7 C7             1.2367    -2.1661     0.0033 C.2     
   8 N8             2.2944    -2.9028    -0.2655 N.2     
   9 C9             0.1489    -3.0243     0.2368 C.2     
  10 C10            0.5916    -4.3065     0.0927 C.2     
  11 N11            1.9181    -4.2510    -0.2186 N.pl3   
  12 C12           -0.2195    -5.5345     0.2491 C.ar    
  13 C13            2.7951    -5.3993    -0.4607 C.3     
  14 C14            2.8540    -5.6835    -1.9395 C.2     
  15 N15            3.6053    -6.7031    -2.4004 N.am    
  16 O16            2.2252    -4.9947    -2.7148 O.2     
  17 C17            3.6768    -6.9977    -3.8396 C.3     
  18 C18            4.3803    -7.5468    -1.4780 C.3     
  19 C19            5.8261    -7.6171    -1.9809 C.3     
  20 N20            5.8330    -8.0593    -3.3817 N.3     
  21 C21            5.1517    -7.0907    -4.2447 C.3     
  22 C22            7.1244    -8.2908    -3.8225 C.ar    
  23 N23            7.3195    -8.6976    -5.0682 N.ar    
  24 N24            8.1366    -8.0950    -2.9903 N.ar    
  25 C25            9.3829    -8.3065    -3.3799 C.ar    
  26 C26            9.6224    -8.7376    -4.6752 C.ar    
  27 C27            8.5409    -8.9274    -5.5210 C.ar    
  28 C28           -1.3886    -5.5095     1.0095 C.ar    
  29 C29            0.1790    -6.7203    -0.3682 C.ar    
  30 C30           -0.5817    -7.8617    -0.2190 C.ar    
  31 C31           -1.7374    -7.8318     0.5409 C.ar    
  32 C32           -2.1407    -6.6576     1.1512 C.ar    
  33 C33            1.0989     3.5882     0.2128 C.3     
  34 C34            3.5106     2.2361    -0.6155 C.3     
  35 H35           -0.8894     1.8642     0.8094 H       
  36 H36           -0.8377    -0.5943     0.7273 H       
  37 H37            3.2326    -0.4483    -0.6010 H       
  38 H38           -0.8576    -2.7227     0.4864 H       
  39 H39            3.7967    -5.1752    -0.0936 H       
  40 H40            2.4035    -6.2721     0.0618 H       
  41 H41            3.1803    -7.9463    -4.0442 H       
  42 H42            3.1924    -6.1990    -4.4013 H       
  43 H43            4.3609    -7.1110    -0.4791 H       
  44 H44            3.9527    -8.5491    -1.4516 H       
  45 H45            6.2847    -6.6309    -1.9086 H       
  46 H46            6.3887    -8.3256    -1.3730 H       
  47 H47            5.2196    -7.4173    -5.2825 H       
  48 H48            5.6238    -6.1140    -4.1387 H       
  49 H49           10.2039    -8.1449    -2.6971 H       
  50 H50           10.6302    -8.9176    -5.0193 H       
  51 H51            8.6933    -9.2627    -6.5363 H       
  52 H52           -1.7043    -4.5935     1.4867 H       
  53 H53            1.0809    -6.7448    -0.9619 H       
  54 H54           -0.2745    -8.7804    -0.6966 H       
  55 H55           -2.3297    -8.7278     0.6544 H       
  56 H56           -3.0437    -6.6406     1.7434 H       
  57 H57            0.7705     3.9791    -0.7503 H       
  58 H58            0.4044     3.9069     0.9901 H       
  59 H59            2.0956     3.9675     0.4382 H       
  60 H60            3.4851     2.4572    -1.6825 H       
  61 H61            3.5210     3.1687    -0.0513 H       
  62 H62            4.4079     1.6619    -0.3848 H       
@<TRIPOS>BOND
   1    1    2 ar
   2    1    6 ar
   3    1   35 1
   4    2    3 ar
   5    2   36 1
   6    3    4 ar
   7    3    7 1
   8    4    5 ar
   9    4   37 1
  10    5    6 ar
  11    5   34 1
  12    6   33 1
  13    7    8 2
  14    7    9 1
  15    8   11 1
  16    9   10 2
  17    9   38 1
  18   10   11 1
  19   10   12 1
  20   11   13 1
  21   12   28 ar
  22   12   29 ar
  23   13   14 1
  24   13   39 1
  25   13   40 1
  26   14   15 am
  27   14   16 2
  28   15   17 1
  29   15   18 1
  30   17   21 1
  31   17   41 1
  32   17   42 1
  33   18   19 1
  34   18   43 1
  35   18   44 1
  36   19   20 1
  37   19   45 1
  38   19   46 1
  39   20   21 1
  40   20   22 1
  41   21   47 1
  42   21   48 1
  43   22   23 ar
  44   22   24 ar
  45   23   27 ar
  46   24   25 ar
  47   25   26 ar
  48   25   49 1
  49   26   27 ar
  50   26   50 1
  51   27   51 1
  52   28   32 ar
  53   28   52 1
  54   29   30 ar
  55   29   53 1
  56   30   31 ar
  57   30   54 1
  58   31   32 ar
  59   31   55 1
  60   32   56 1
  61   33   57 1
  62   33   58 1
  63   33   59 1
  64   34   60 1
  65   34   61 1
  66   34   62 1

#	End of record

