#	Name: ASD01813272
#	Creating user name:	WinNT
#	Creation time:	15. 06. 2019 19:30

#	Modifying user name:	WinNT
#	Modification time:	15. 06. 2019 19:30

#	Program:	/corina/corina34_cracker 3.40 0067  02.08.2006

@<TRIPOS>MOLECULE
ASD01813272
  61   65    0    0    0
SMALL
NO_CHARGES


@<TRIPOS>ATOM
   1 O1            -0.0173     1.4248     0.0099 O.3     
   2 C2             0.0021    -0.0041     0.0020 C.3     
   3 H3             0.5123    -0.3556    -0.8948 H       
   4 C4             0.7421    -0.5109     1.2415 C.3     
   5 C5             0.7628    -2.0407     1.2331 C.3     
   6 C6            -0.6726    -2.5703     1.2440 C.3     
   7 C7            -1.4126    -2.0635     0.0045 C.3     
   8 C8            -1.4333    -0.5336     0.0129 C.3     
   9 H9            -1.9435    -0.1821     0.9097 H       
  10 N10           -2.1419    -0.0483    -1.1740 N.am    
  11 C11           -3.4850     0.0621    -1.1588 C.2     
  12 O12           -4.1091    -0.2413    -0.1593 O.2     
  13 C13           -4.1956     0.5488    -2.3490 C.2     
  14 C14           -3.6389     0.9191    -3.5373 C.2     
  15 N15           -4.6110     1.3113    -4.3962 N.pl3   
  16 C16           -4.3786     1.7746    -5.7664 C.3     
  17 C17           -4.3002     3.2795    -5.7813 C.ar    
  18 C18           -5.4500     4.0273    -5.9632 C.ar    
  19 C19           -5.3851     5.4053    -5.9779 C.ar    
  20 C20           -4.1561     6.0448    -5.8088 C.ar    
  21 C21           -3.0000     5.2845    -5.6258 C.ar    
  22 C22           -3.0795     3.9073    -5.6075 C.ar    
  23 C23           -4.0791     7.5212    -5.8239 C.2     
  24 O24           -5.0875     8.1808    -5.9839 O.2     
  25 N25           -2.8907     8.1357    -5.6603 N.am    
  26 C26           -2.8144     9.5987    -5.6753 C.3     
  27 C27           -1.9430    10.2715    -4.6129 C.3     
  28 C28           -1.4791    10.2324    -6.0703 C.3     
  29 C29           -5.8504     1.2120    -3.7984 C.ar    
  30 C30           -7.1428     1.4844    -4.2357 C.ar    
  31 C31           -8.2124     1.2826    -3.3907 C.ar    
  32 C32           -8.0160     0.8090    -2.1020 C.ar    
  33 C33           -6.7420     0.5327    -1.6489 C.ar    
  34 F34           -6.5527     0.0714    -0.3933 F       
  35 C35           -5.6519     0.7270    -2.4962 C.ar    
  36 H36            0.8606     1.8301     0.0037 H       
  37 H37            1.7647    -0.1336     1.2338 H       
  38 H38            0.2319    -0.1594     2.1383 H       
  39 H39            1.2730    -2.3923     0.3363 H       
  40 H40            1.2900    -2.4018     2.1162 H       
  41 H41           -0.6578    -3.6602     1.2380 H       
  42 H42           -1.1828    -2.2188     2.1408 H       
  43 H43           -0.9024    -2.4150    -0.8923 H       
  44 H44           -2.4352    -2.4408     0.0122 H       
  45 H45           -1.6443     0.1935    -1.9708 H       
  46 H46           -2.5824     0.9023    -3.7605 H       
  47 H47           -3.4418     1.3583    -6.1368 H       
  48 H48           -5.1992     1.4472    -6.4047 H       
  49 H49           -6.4003     3.5312    -6.0943 H       
  50 H50           -6.2833     5.9879    -6.1202 H       
  51 H51           -2.0459     5.7733    -5.4944 H       
  52 H52           -2.1864     3.3179    -5.4616 H       
  53 H53           -2.0860     7.6094    -5.5327 H       
  54 H54           -3.7256    10.1138    -5.9796 H       
  55 H55           -2.2809    11.2296    -4.2178 H       
  56 H56           -1.4265     9.6258    -3.9028 H       
  57 H57           -0.6573     9.5609    -6.3190 H       
  58 H58           -1.5116    11.1647    -6.6341 H       
  59 H59           -7.3076     1.8543    -5.2369 H       
  60 H60           -9.2135     1.4957    -3.7353 H       
  61 H61           -8.8636     0.6561    -1.4503 H       
@<TRIPOS>BOND
   1    1    2 1
   2    1   36 1
   3    2    3 1
   4    2    8 1
   5    2    4 1
   6    4    5 1
   7    4   37 1
   8    4   38 1
   9    5    6 1
  10    5   39 1
  11    5   40 1
  12    6    7 1
  13    6   41 1
  14    6   42 1
  15    7    8 1
  16    7   43 1
  17    7   44 1
  18    8    9 1
  19    8   10 1
  20   10   11 am
  21   10   45 1
  22   11   12 2
  23   11   13 1
  24   13   35 1
  25   13   14 2
  26   14   15 1
  27   14   46 1
  28   15   16 1
  29   15   29 1
  30   16   17 1
  31   16   47 1
  32   16   48 1
  33   17   22 ar
  34   17   18 ar
  35   18   19 ar
  36   18   49 1
  37   19   20 ar
  38   19   50 1
  39   20   21 ar
  40   20   23 1
  41   21   22 ar
  42   21   51 1
  43   22   52 1
  44   23   24 2
  45   23   25 am
  46   25   26 1
  47   25   53 1
  48   26   28 1
  49   26   27 1
  50   26   54 1
  51   27   28 1
  52   27   55 1
  53   27   56 1
  54   28   57 1
  55   28   58 1
  56   29   35 ar
  57   29   30 ar
  58   30   31 ar
  59   30   59 1
  60   31   32 ar
  61   31   60 1
  62   32   33 ar
  63   32   61 1
  64   33   34 1
  65   33   35 ar

#	End of record

