#	Name: ASD07300100
#	Creating user name:	WinNT
#	Creation time:	15. 06. 2019 21:09

#	Modifying user name:	WinNT
#	Modification time:	15. 06. 2019 21:09

#	Program:	/corina/corina34_cracker 3.40 0067  02.08.2006

@<TRIPOS>MOLECULE
ASD07300100
  48   52    0    0    0
SMALL
NO_CHARGES


@<TRIPOS>ATOM
   1 C1            -0.0582     1.3999     0.0469 C.2     
   2 C2            -0.0712    -0.0566    -0.1643 C.2     
   3 C3             1.1772    -0.7238    -0.1456 C.2     
   4 C4             2.2909     0.0220     0.0645 C.2     
   5 N5             2.2054     1.3588     0.2493 N.pl3   
   6 N6             1.0961     2.0012     0.2399 N.2     
   7 O7            -1.1154    -0.6643    -0.3476 O.2     
   8 N8            -2.2416     2.2049    -0.9693 N.pl3   
   9 N9            -3.2765     3.0598    -0.5700 N.2     
  10 C10           -2.9998     3.5282     0.6208 C.2     
  11 C11           -1.7794     2.9974     1.0384 C.2     
  12 C12           -1.3167     2.1729     0.0363 C.2     
  13 C13           -2.1701     1.5038    -2.1798 C.ar    
  14 C14           -3.3018     0.8835    -2.6924 C.ar    
  15 C15           -3.2282     0.1933    -3.8864 C.ar    
  16 C16           -2.0291     0.1196    -4.5713 C.ar    
  17 C17           -0.9003     0.7359    -4.0632 C.ar    
  18 C18           -0.9687     1.4324    -2.8726 C.ar    
  19 C19            3.3865     2.0766     0.4616 C.ar    
  20 C20            3.5193     2.8786     1.5917 C.ar    
  21 C21            4.6857     3.5874     1.8020 C.ar    
  22 C22            5.7285     3.4987     0.8823 C.ar    
  23 C23            5.5925     2.6948    -0.2483 C.ar    
  24 C24            4.4289     1.9842    -0.4530 C.ar    
  25 F25            2.5070     2.9639     2.4823 F       
  26 C26            6.9831     4.2600     1.1059 C.2     
  27 C27            7.2596     5.1070     2.1970 C.2     
  28 N28            8.4619     5.5936     2.0386 N.2     
  29 N29            8.9964     5.0811     0.8504 N.pl3   
  30 C30            8.0806     4.2620     0.2950 C.2     
  31 C31           10.3242     5.3785     0.3074 C.3     
  32 H32            1.2409    -1.7918    -0.2933 H       
  33 H33            3.2581    -0.4582     0.0847 H       
  34 H34           -3.6149     4.2126     1.1863 H       
  35 H35           -1.2859     3.1969     1.9781 H       
  36 H36           -4.2385     0.9404    -2.1578 H       
  37 H37           -4.1079    -0.2897    -4.2855 H       
  38 H38           -1.9741    -0.4207    -5.5048 H       
  39 H39            0.0348     0.6762    -4.6003 H       
  40 H40           -0.0879     1.9175    -2.4787 H       
  41 H41            4.7893     4.2100     2.6783 H       
  42 H42            6.4002     2.6253    -0.9618 H       
  43 H43            4.3258     1.3583    -1.3271 H       
  44 H44            6.5938     5.3175     3.0209 H       
  45 H45            8.1924     3.7130    -0.6283 H       
  46 H46           11.0440     4.6557     0.6915 H       
  47 H47           10.2938     5.3180    -0.7805 H       
  48 H48           10.6227     6.3831     0.6072 H       
@<TRIPOS>BOND
   1    1    2 1
   2    1    6 2
   3    1   12 1
   4    2    3 1
   5    2    7 2
   6    3    4 2
   7    3   32 1
   8    4    5 1
   9    4   33 1
  10    5    6 1
  11    5   19 1
  12    8    9 1
  13    8   12 1
  14    8   13 1
  15    9   10 2
  16   10   11 1
  17   10   34 1
  18   11   12 2
  19   11   35 1
  20   13   14 ar
  21   13   18 ar
  22   14   15 ar
  23   14   36 1
  24   15   16 ar
  25   15   37 1
  26   16   17 ar
  27   16   38 1
  28   17   18 ar
  29   17   39 1
  30   18   40 1
  31   19   20 ar
  32   19   24 ar
  33   20   21 ar
  34   20   25 1
  35   21   22 ar
  36   21   41 1
  37   22   23 ar
  38   22   26 1
  39   23   24 ar
  40   23   42 1
  41   24   43 1
  42   26   27 1
  43   26   30 2
  44   27   28 2
  45   27   44 1
  46   28   29 1
  47   29   30 1
  48   29   31 1
  49   30   45 1
  50   31   46 1
  51   31   47 1
  52   31   48 1

#	End of record

