#	Name: ASD03730185
#	Creating user name:	WinNT
#	Creation time:	15. 06. 2019 20:44

#	Modifying user name:	WinNT
#	Modification time:	15. 06. 2019 20:44

#	Program:	/corina/corina34_cracker 3.40 0067  02.08.2006

@<TRIPOS>MOLECULE
ASD03730185
  46   49    0    0    0
SMALL
NO_CHARGES


@<TRIPOS>ATOM
   1 O1            -0.0175     1.4359     0.0099 O.3     
   2 C2             0.0021    -0.0041     0.0020 C.3     
   3 C3             1.3453    -0.3165    -0.6719 C.3     
   4 C4             2.1589     0.9224    -0.4090 C.ar    
   5 C5             1.2616     1.9062     0.0003 C.ar    
   6 C6             1.7475     3.1675     0.3259 C.ar    
   7 C7             3.1037     3.4392     0.2347 C.ar    
   8 C8             3.9864     2.4507    -0.1822 C.ar    
   9 C9             3.5067     1.1949    -0.5022 C.ar    
  10 N10            2.1555    -2.4051    -1.1249 N.am    
  11 C11            1.9838    -1.5488    -0.0983 C.2     
  12 C12            1.1864    -0.5959    -2.1366 C.ar    
  13 C13            0.6769     0.1250    -3.1935 C.ar    
  14 C14            0.6684    -0.4204    -4.4649 C.ar    
  15 C15            1.1724    -1.6915    -4.6720 C.ar    
  16 C16            1.6844    -2.4176    -3.6171 C.ar    
  17 C17            1.6976    -1.8761    -2.3339 C.ar    
  18 O18            2.2860    -1.7365     1.0612 O.2     
  19 C19            2.7531    -3.7357    -0.9887 C.3     
  20 C20            1.6555    -4.7597    -0.6926 C.3     
  21 C21            2.2795    -6.1494    -0.5503 C.3     
  22 C22            1.1819    -7.1734    -0.2543 C.3     
  23 C23            1.8060    -8.5631    -0.1120 C.3     
  24 N24            3.5837     4.7093     0.5621 N.pl3   
  25 H25           -0.0213    -0.3969     1.0185 H       
  26 H26           -0.8267    -0.3990    -0.5856 H       
  27 H27            1.0653     3.9390     0.6510 H       
  28 H28            5.0428     2.6629    -0.2563 H       
  29 H29            4.1904     0.4241    -0.8260 H       
  30 H30            0.2833     1.1173    -3.0296 H       
  31 H31            0.2686     0.1450    -5.2937 H       
  32 H32            1.1649    -2.1177    -5.6643 H       
  33 H33            2.0760    -3.4097    -3.7865 H       
  34 H34            3.2592    -4.0034    -1.9162 H       
  35 H35            3.4734    -3.7285    -0.1707 H       
  36 H36            1.1494    -4.4920     0.2349 H       
  37 H37            0.9351    -4.7669    -1.5106 H       
  38 H38            2.7856    -6.4172    -1.4778 H       
  39 H39            2.9999    -6.1422     0.2676 H       
  40 H40            0.6758    -6.9057     0.6732 H       
  41 H41            0.4616    -7.1807    -1.0723 H       
  42 H42            2.3121    -8.8309    -1.0395 H       
  43 H43            2.5263    -8.5559     0.7060 H       
  44 H44            1.0240    -9.2927     0.0989 H       
  45 H45            2.9681     5.4003     0.8530 H       
  46 H46            4.5325     4.9005     0.4986 H       
@<TRIPOS>BOND
   1    1    2 1
   2    1    5 1
   3    2    3 1
   4    2   25 1
   5    2   26 1
   6    3    4 1
   7    3   11 1
   8    3   12 1
   9    4    5 ar
  10    4    9 ar
  11    5    6 ar
  12    6    7 ar
  13    6   27 1
  14    7    8 ar
  15    7   24 1
  16    8    9 ar
  17    8   28 1
  18    9   29 1
  19   10   11 am
  20   10   17 1
  21   10   19 1
  22   11   18 2
  23   12   13 ar
  24   12   17 ar
  25   13   14 ar
  26   13   30 1
  27   14   15 ar
  28   14   31 1
  29   15   16 ar
  30   15   32 1
  31   16   17 ar
  32   16   33 1
  33   19   20 1
  34   19   34 1
  35   19   35 1
  36   20   21 1
  37   20   36 1
  38   20   37 1
  39   21   22 1
  40   21   38 1
  41   21   39 1
  42   22   23 1
  43   22   40 1
  44   22   41 1
  45   23   42 1
  46   23   43 1
  47   23   44 1
  48   24   45 1
  49   24   46 1

#	End of record

