#	Name: ASD05213044
#	Creating user name:	WinNT
#	Creation time:	15. 06. 2019 20:57

#	Modifying user name:	WinNT
#	Modification time:	15. 06. 2019 20:57

#	Program:	/corina/corina34_cracker 3.40 0067  02.08.2006

@<TRIPOS>MOLECULE
ASD05213044
  58   61    0    0    0
SMALL
NO_CHARGES


@<TRIPOS>ATOM
   1 C1            -0.0168     1.3878     0.0097 C.ar    
   2 C2             0.0021    -0.0041     0.0020 C.ar    
   3 C3            -1.1842    -0.7104     0.0095 C.ar    
   4 C4            -2.3963    -0.0423     0.0242 C.ar    
   5 C5            -2.4326     1.3380     0.0315 C.ar    
   6 C6            -1.2461     2.0652     0.0309 C.ar    
   7 C7             1.2544     2.1505     0.0016 C.ar    
   8 C8             2.2619     1.8409     0.9140 C.ar    
   9 C9             3.4431     2.5544     0.9019 C.ar    
  10 C10            3.6283     3.5752    -0.0130 C.ar    
  11 C11            2.6321     3.8869    -0.9208 C.ar    
  12 C12            1.4491     3.1762    -0.9221 C.ar    
  13 C13            4.9201     4.3512    -0.0205 C.3     
  14 N14            5.8753     3.7007    -0.9208 N.pl3   
  15 C15            5.9215     4.0590    -2.2569 C.ar    
  16 C16            6.7818     2.6709    -0.4069 C.3     
  17 C17            6.1183     1.2981    -0.5338 C.3     
  18 C18            7.0650     0.2226     0.0029 C.3     
  19 C19           -1.2804     3.5479     0.0392 C.2     
  20 N20           -0.2238     4.3736     0.0392 N.2     
  21 N21           -0.6806     5.5798     0.0471 N.2     
  22 N22           -1.9672     5.5397     0.0519 N.pl3   
  23 N23           -2.3558     4.3110     0.0422 N.2     
  24 N24            5.0946     4.9922    -2.7051 N.ar    
  25 C25            5.1129     5.3578    -3.9762 C.ar    
  26 C26            6.0107     4.7521    -4.8412 C.ar    
  27 C27            6.8613     3.7797    -4.3391 C.ar    
  28 N28            6.7951     3.4645    -3.0561 N.ar    
  29 C29            7.8533     3.0939    -5.2427 C.3     
  30 C30            4.1686     6.4198    -4.4780 C.3     
  31 C31            6.4015    -1.1502    -0.1240 C.3     
  32 H32            0.9445    -0.5313    -0.0101 H       
  33 H33           -1.1662    -1.7902     0.0035 H       
  34 H34           -3.3188    -0.6038     0.0296 H       
  35 H35           -3.3817     1.8532     0.0422 H       
  36 H36            2.1181     1.0446     1.6292 H       
  37 H37            4.2243     2.3154     1.6083 H       
  38 H38            2.7822     4.6849    -1.6328 H       
  39 H39            0.6720     3.4204    -1.6313 H       
  40 H40            4.7311     5.3681    -0.3646 H       
  41 H41            5.3327     4.3797     0.9880 H       
  42 H42            7.7075     2.6816    -0.9823 H       
  43 H43            7.0031     2.8719     0.6413 H       
  44 H44            5.1926     1.2873     0.0416 H       
  45 H45            5.8969     1.0970    -1.5820 H       
  46 H46            7.9906     0.2333    -0.5725 H       
  47 H47            7.2863     0.4236     1.0511 H       
  48 H48           -2.5526     6.3132     0.0583 H       
  49 H49            6.0464     5.0314    -5.8838 H       
  50 H50            8.7901     3.6511    -5.2431 H       
  51 H51            8.0332     2.0810    -4.8824 H       
  52 H52            7.4542     3.0535    -6.2562 H       
  53 H53            4.6381     7.3987    -4.3810 H       
  54 H54            3.9338     6.2316    -5.5256 H       
  55 H55            3.2510     6.3971    -3.8902 H       
  56 H56            6.1801    -1.3513    -1.1722 H       
  57 H57            7.0759    -1.9165     0.2584 H       
  58 H58            5.4758    -1.1610     0.4514 H       
@<TRIPOS>BOND
   1    1    2 ar
   2    1    7 1
   3    1    6 ar
   4    2    3 ar
   5    2   32 1
   6    3    4 ar
   7    3   33 1
   8    4    5 ar
   9    4   34 1
  10    5    6 ar
  11    5   35 1
  12    6   19 1
  13    7    8 ar
  14    7   12 ar
  15    8    9 ar
  16    8   36 1
  17    9   10 ar
  18    9   37 1
  19   10   11 ar
  20   10   13 1
  21   11   12 ar
  22   11   38 1
  23   12   39 1
  24   13   14 1
  25   13   40 1
  26   13   41 1
  27   14   15 1
  28   14   16 1
  29   15   24 ar
  30   15   28 ar
  31   16   17 1
  32   16   42 1
  33   16   43 1
  34   17   18 1
  35   17   44 1
  36   17   45 1
  37   18   31 1
  38   18   46 1
  39   18   47 1
  40   19   20 1
  41   19   23 2
  42   20   21 2
  43   21   22 1
  44   22   23 1
  45   22   48 1
  46   24   25 ar
  47   25   26 ar
  48   25   30 1
  49   26   27 ar
  50   26   49 1
  51   27   28 ar
  52   27   29 1
  53   29   50 1
  54   29   51 1
  55   29   52 1
  56   30   53 1
  57   30   54 1
  58   30   55 1
  59   31   56 1
  60   31   57 1
  61   31   58 1

#	End of record

