#	Name: ASD01670007
#	Creating user name:	WinNT
#	Creation time:	15. 06. 2019 19:22

#	Modifying user name:	WinNT
#	Modification time:	15. 06. 2019 19:22

#	Program:	/corina/corina34_cracker 3.40 0067  02.08.2006

@<TRIPOS>MOLECULE
ASD01670007
  57   60    0    0    0
SMALL
NO_CHARGES


@<TRIPOS>ATOM
   1 O1             0.0021    -0.0041     0.0020 O.2     
   2 C2            -0.0144     1.2113     0.0087 C.2     
   3 N3             1.1435     1.9010     0.0013 N.am    
   4 C4             2.4220     1.1859    -0.0147 C.3     
   5 C5             3.5540     2.1807    -0.0202 C.ar    
   6 C6             4.0838     2.6298     1.1754 C.ar    
   7 C7             5.1216     3.5417     1.1730 C.ar    
   8 C8             5.6320     4.0068    -0.0302 C.ar    
   9 C9             5.0986     3.5546    -1.2284 C.ar    
  10 C10            4.0647     2.6384    -1.2207 C.ar    
  11 O11            6.6525     4.9042    -0.0351 O.3     
  12 C12            7.1277     5.3393    -1.3107 C.3     
  13 C13           -1.3047     1.9331     0.0187 C.ar    
  14 C14           -1.3271     3.3284     0.0264 C.ar    
  15 C15           -2.5347     3.9959     0.0353 C.ar    
  16 C16           -3.7214     3.2849     0.0371 C.ar    
  17 C17           -3.7062     1.9012     0.0295 C.ar    
  18 C18           -2.5058     1.2218     0.0147 C.ar    
  19 C19           -2.4911    -0.2851     0.0002 C.3     
  20 N20           -2.2426    -0.7855     1.3588 N.3     
  21 C21           -2.2214    -2.2541     1.3832 C.3     
  22 C22           -1.9646    -2.7295     2.7900 C.ar    
  23 C23           -0.7004    -3.1300     3.1618 C.ar    
  24 C24           -0.4561    -3.5684     4.4532 C.ar    
  25 C25           -1.4796    -3.6089     5.3844 C.ar    
  26 O26           -1.4961    -3.9929     6.6945 O.3     
  27 C27           -2.8836    -4.2083     7.0135 C.3     
  28 O28           -3.5825    -3.3383     6.1036 O.3     
  29 C29           -2.7635    -3.2070     5.0234 C.ar    
  30 C30           -3.0087    -2.7587     3.7201 C.ar    
  31 C31           -4.3620    -2.3248     3.3284 C.2     
  32 O32           -5.1512    -3.1304     2.8762 O.2     
  33 O33           -4.7238    -1.0347     3.4719 O.3     
  34 H34            1.1303     2.8709     0.0067 H       
  35 H35            2.4967     0.5553     0.8712 H       
  36 H36            2.4797     0.5649    -0.9086 H       
  37 H37            3.6859     2.2677     2.1118 H       
  38 H38            5.5349     3.8925     2.1071 H       
  39 H39            5.4943     3.9152    -2.1664 H       
  40 H40            3.6521     2.2827    -2.1533 H       
  41 H41            6.3149     5.8171    -1.8575 H       
  42 H42            7.9405     6.0521    -1.1718 H       
  43 H43            7.4902     4.4805    -1.8756 H       
  44 H44           -0.4013     3.8846     0.0258 H       
  45 H45           -2.5535     5.0757     0.0413 H       
  46 H46           -4.6640     3.8122     0.0447 H       
  47 H47           -4.6362     1.3521     0.0309 H       
  48 H48           -3.4541    -0.6544    -0.3526 H       
  49 H49           -1.7020    -0.6343    -0.6656 H       
  50 H50           -1.3863    -0.4052     1.7332 H       
  51 H51           -3.1825    -2.6371     1.0400 H       
  52 H52           -1.4304    -2.6170     0.7270 H       
  53 H53            0.1048    -3.1025     2.4426 H       
  54 H54            0.5387    -3.8808     4.7349 H       
  55 H55           -3.1601    -5.2480     6.8379 H       
  56 H56           -3.0876    -3.9259     8.0463 H       
  57 H57           -5.6214    -0.7978     3.2013 H       
@<TRIPOS>BOND
   1    1    2 2
   2    2    3 am
   3    2   13 1
   4    3    4 1
   5    3   34 1
   6    4    5 1
   7    4   35 1
   8    4   36 1
   9    5    6 ar
  10    5   10 ar
  11    6    7 ar
  12    6   37 1
  13    7    8 ar
  14    7   38 1
  15    8    9 ar
  16    8   11 1
  17    9   10 ar
  18    9   39 1
  19   10   40 1
  20   11   12 1
  21   12   41 1
  22   12   42 1
  23   12   43 1
  24   13   14 ar
  25   13   18 ar
  26   14   15 ar
  27   14   44 1
  28   15   16 ar
  29   15   45 1
  30   16   17 ar
  31   16   46 1
  32   17   18 ar
  33   17   47 1
  34   18   19 1
  35   19   20 1
  36   19   48 1
  37   19   49 1
  38   20   21 1
  39   20   50 1
  40   21   22 1
  41   21   51 1
  42   21   52 1
  43   22   23 ar
  44   22   30 ar
  45   23   24 ar
  46   23   53 1
  47   24   25 ar
  48   24   54 1
  49   25   26 1
  50   25   29 ar
  51   26   27 1
  52   27   28 1
  53   27   55 1
  54   27   56 1
  55   28   29 1
  56   29   30 ar
  57   30   31 1
  58   31   32 2
  59   31   33 1
  60   33   57 1

#	End of record

