#	Name: ASD07300687
#	Creating user name:	WinNT
#	Creation time:	15. 06. 2019 21:10

#	Modifying user name:	WinNT
#	Modification time:	15. 06. 2019 21:10

#	Program:	/corina/corina34_cracker 3.40 0067  02.08.2006

@<TRIPOS>MOLECULE
ASD07300687
  60   60    0    0    0
SMALL
NO_CHARGES


@<TRIPOS>ATOM
   1 C1            -0.0167     1.3781     0.0096 C.ar    
   2 C2             0.0021    -0.0041     0.0020 C.ar    
   3 C3             1.2216    -0.6630    -0.0131 C.ar    
   4 C4             2.3820     0.0963    -0.0201 C.ar    
   5 C5             2.2849     1.4746    -0.0118 C.ar    
   6 N6             1.1070     2.0678     0.0026 N.ar    
   7 Sn7           -1.9000     2.4151     0.0241 Du      
   8 C8            -2.5182     2.7498     2.0559 C.3     
   9 C9            -2.6707     1.4056     2.7706 C.3     
  10 C10           -3.1106     1.6437     4.2165 C.3     
  11 C11           -3.2631     0.2995     4.9312 C.3     
  12 C12           -1.6857     4.3040    -0.9802 C.3     
  13 C13           -1.2458     4.0659    -2.4261 C.3     
  14 C14           -1.0933     5.4101    -3.1407 C.3     
  15 C15           -0.6533     5.1719    -4.5866 C.3     
  16 C16           -3.3793     1.2286    -0.9889 C.3     
  17 C17           -4.7195     1.9666    -0.9786 C.3     
  18 C18           -5.7722     1.1222    -1.6995 C.3     
  19 C19           -7.1124     1.8602    -1.6892 C.3     
  20 C20            3.7320    -0.5734    -0.0361 C.3     
  21 C21            4.1754    -0.7927    -1.4839 C.3     
  22 O22            5.4554    -1.4277    -1.4990 O.3     
  23 C23            5.9639    -1.6794    -2.8106 C.3     
  24 H24           -0.9217    -0.5635     0.0082 H       
  25 H25            1.2670    -1.7420    -0.0190 H       
  26 H26            3.1839     2.0731    -0.0171 H       
  27 H27           -1.7682     3.3513     2.5695 H       
  28 H28           -3.4730     3.2755     2.0633 H       
  29 H29           -3.4207     0.8040     2.2570 H       
  30 H30           -1.7159     0.8798     2.7633 H       
  31 H31           -2.3606     2.2453     4.7301 H       
  32 H32           -4.0654     2.1695     4.2239 H       
  33 H33           -4.0131    -0.3020     4.4176 H       
  34 H34           -2.3083    -0.2262     4.9238 H       
  35 H35           -3.5765     0.4692     5.9613 H       
  36 H36           -2.6405     4.8298    -0.9728 H       
  37 H37           -0.9357     4.9056    -0.4666 H       
  38 H38           -0.2910     3.5401    -2.4334 H       
  39 H39           -1.9957     3.4643    -2.9397 H       
  40 H40           -2.0481     5.9358    -3.1334 H       
  41 H41           -0.3433     6.0116    -2.6272 H       
  42 H42            0.3014     4.6462    -4.5940 H       
  43 H43           -1.4033     4.5704    -5.1002 H       
  44 H44           -0.5447     6.1296    -5.0958 H       
  45 H45           -3.0659     1.0589    -2.0190 H       
  46 H46           -3.4879     0.2709    -0.4798 H       
  47 H47           -5.0329     2.1362     0.0515 H       
  48 H48           -4.6109     2.9242    -1.4877 H       
  49 H49           -5.4588     0.9525    -2.7296 H       
  50 H50           -5.8809     0.1646    -1.1904 H       
  51 H51           -7.4259     2.0299    -0.6591 H       
  52 H52           -7.0038     2.8178    -2.1983 H       
  53 H53           -7.8624     1.2587    -2.2028 H       
  54 H54            4.4577     0.0598     0.4742 H       
  55 H55            3.6667    -1.5347     0.4735 H       
  56 H56            3.4496    -1.4260    -1.9942 H       
  57 H57            4.2406     0.1686    -1.9935 H       
  58 H58            5.2753    -2.3310    -3.3484 H       
  59 H59            6.0663    -0.7365    -3.3477 H       
  60 H60            6.9381    -2.1627    -2.7360 H       
@<TRIPOS>BOND
   1    1    2 ar
   2    1    6 ar
   3    1    7 1
   4    2    3 ar
   5    2   24 1
   6    3    4 ar
   7    3   25 1
   8    4    5 ar
   9    4   20 1
  10    5    6 ar
  11    5   26 1
  12    7    8 1
  13    7   12 1
  14    7   16 1
  15    8    9 1
  16    8   27 1
  17    8   28 1
  18    9   10 1
  19    9   29 1
  20    9   30 1
  21   10   11 1
  22   10   31 1
  23   10   32 1
  24   11   33 1
  25   11   34 1
  26   11   35 1
  27   12   13 1
  28   12   36 1
  29   12   37 1
  30   13   14 1
  31   13   38 1
  32   13   39 1
  33   14   15 1
  34   14   40 1
  35   14   41 1
  36   15   42 1
  37   15   43 1
  38   15   44 1
  39   16   17 1
  40   16   45 1
  41   16   46 1
  42   17   18 1
  43   17   47 1
  44   17   48 1
  45   18   19 1
  46   18   49 1
  47   18   50 1
  48   19   51 1
  49   19   52 1
  50   19   53 1
  51   20   21 1
  52   20   54 1
  53   20   55 1
  54   21   22 1
  55   21   56 1
  56   21   57 1
  57   22   23 1
  58   23   58 1
  59   23   59 1
  60   23   60 1

#	End of record

