#	Name: ASD04910176
#	Creating user name:	WinNT
#	Creation time:	15. 06. 2019 20:55

#	Modifying user name:	WinNT
#	Modification time:	15. 06. 2019 20:55

#	Program:	/corina/corina34_cracker 3.40 0067  02.08.2006

@<TRIPOS>MOLECULE
ASD04910176
  25   25    0    0    0
SMALL
NO_CHARGES


@<TRIPOS>ATOM
   1 C1            -0.0184     1.5028     0.0103 C.2     
   2 C2             0.0021    -0.0041     0.0020 C.3     
   3 C3             1.4513    -0.4944    -0.0145 C.3     
   4 C4             2.1422    -0.0874     1.2886 C.3     
   5 O5             1.0234     2.1233     0.0037 O.2     
   6 C6             1.4726    -2.0183    -0.1486 C.3     
   7 C7            -2.5106     1.5172     0.0222 C.ar    
   8 C8            -1.3020     2.2208     0.0203 C.ar    
   9 C9            -1.3351     3.6237     0.0285 C.ar    
  10 C10           -2.5673     4.2497     0.0382 C.ar    
  11 C11           -3.7195     3.4800     0.0395 C.ar    
  12 N12           -3.6589     2.1604     0.0320 N.ar    
  13 Cl13          -5.2689     4.2630     0.0516 Cl      
  14 H14           -0.4983    -0.3791     0.8948 H       
  15 H15           -0.5153    -0.3696    -0.8850 H       
  16 H16            1.9763    -0.0479    -0.8589 H       
  17 H17            3.1747    -0.4367     1.2768 H       
  18 H18            2.1271     0.9983     1.3841 H       
  19 H19            1.6172    -0.5338     2.1330 H       
  20 H20            0.9804    -2.3083    -1.0769 H       
  21 H21            2.5050    -2.3676    -0.1603 H       
  22 H22            0.9476    -2.4648     0.6959 H       
  23 H23           -2.5017     0.4373     0.0114 H       
  24 H24           -0.4213     4.1994     0.0277 H       
  25 H25           -2.6315     5.3278     0.0451 H       
@<TRIPOS>BOND
   1    1    2 1
   2    1    5 2
   3    1    8 1
   4    2    3 1
   5    2   14 1
   6    2   15 1
   7    3    4 1
   8    3    6 1
   9    3   16 1
  10    4   17 1
  11    4   18 1
  12    4   19 1
  13    6   20 1
  14    6   21 1
  15    6   22 1
  16    7    8 ar
  17    7   12 ar
  18    7   23 1
  19    8    9 ar
  20    9   10 ar
  21    9   24 1
  22   10   11 ar
  23   10   25 1
  24   11   12 ar
  25   11   13 1

#	End of record

