#	Name: ASD03082019
#	Creating user name:	WinNT
#	Creation time:	15. 06. 2019 20:27

#	Modifying user name:	WinNT
#	Modification time:	15. 06. 2019 20:27

#	Program:	/corina/corina34_cracker 3.40 0067  02.08.2006

@<TRIPOS>MOLECULE
ASD03082019
  46   48    0    0    0
SMALL
NO_CHARGES


@<TRIPOS>ATOM
   1 C1             0.2525     1.1448    -0.3406 C.3     
   2 N2             0.1024    -0.3100    -0.2026 N.3     
   3 C3             0.5886    -1.0117    -1.3982 C.3     
   4 C4             2.0898    -0.7526    -1.5633 C.3     
   5 N5             2.3163     0.7007    -1.5600 N.am    
   6 C6             1.7400     1.4922    -0.4625 C.3     
   7 S7             3.1972     1.4264    -2.7598 S.o2    
   8 C8            -1.2916    -0.6702     0.0888 C.3     
   9 C9            -2.1609    -0.3056    -1.0869 C.2     
  10 N10           -3.4632    -0.6527    -1.0954 N.am    
  11 O11           -1.6886     0.3002    -2.0256 O.2     
  12 C12           -4.2958    -0.2221    -2.1357 C.ar    
  13 C13           -5.3395    -1.0283    -2.5699 C.ar    
  14 C14           -6.1596    -0.6018    -3.5961 C.ar    
  15 C15           -5.9414     0.6290    -4.1920 C.ar    
  16 C16           -4.9007     1.4344    -3.7608 C.ar    
  17 C17           -4.0822     1.0142    -2.7307 C.ar    
  18 O18            4.0388     0.4195    -3.3048 O.2     
  19 C19            2.0688     1.8761    -4.0362 C.ar    
  20 O20            3.6920     2.6420    -2.2151 O.2     
  21 C21            1.8577     3.2088    -4.3342 C.ar    
  22 C22            0.9719     3.5620    -5.3353 C.ar    
  23 C23            0.2966     2.5827    -6.0393 C.ar    
  24 C24            0.5065     1.2489    -5.7433 C.ar    
  25 C25            1.3974     0.8939    -4.7449 C.ar    
  26 F26            1.6037    -0.4094    -4.4550 F       
  27 F27           -6.7446     1.0444    -5.1957 F       
  28 H28           -0.2741     1.4816    -1.2336 H       
  29 H29           -0.1657     1.6384     0.5366 H       
  30 H30            0.4142    -2.0819    -1.2879 H       
  31 H31            0.0573    -0.6448    -2.2764 H       
  32 H32            2.6335    -1.2097    -0.7366 H       
  33 H33            2.4324    -1.1743    -2.5083 H       
  34 H34            1.8512     2.5546    -0.6796 H       
  35 H35            2.2500     1.2508     0.4701 H       
  36 H36           -1.3591    -1.7426     0.2719 H       
  37 H37           -1.6296    -0.1288     0.9724 H       
  38 H38           -3.8237    -1.2007    -0.3809 H       
  39 H39           -5.5098    -1.9885    -2.1056 H       
  40 H40           -6.9713    -1.2288    -3.9343 H       
  41 H41           -4.7318     2.3936    -4.2273 H       
  42 H42           -3.2707     1.6426    -2.3947 H       
  43 H43            2.3845     3.9748    -3.7846 H       
  44 H44            0.8073     4.6038    -5.5673 H       
  45 H45           -0.3956     2.8597    -6.8206 H       
  46 H46           -0.0215     0.4840    -6.2932 H       
@<TRIPOS>BOND
   1    1    2 1
   2    1    6 1
   3    1   28 1
   4    1   29 1
   5    2    3 1
   6    2    8 1
   7    3    4 1
   8    3   30 1
   9    3   31 1
  10    4    5 1
  11    4   32 1
  12    4   33 1
  13    5    6 1
  14    5    7 am
  15    6   34 1
  16    6   35 1
  17    7   18 2
  18    7   19 1
  19    7   20 2
  20    8    9 1
  21    8   36 1
  22    8   37 1
  23    9   10 am
  24    9   11 2
  25   10   12 1
  26   10   38 1
  27   12   13 ar
  28   12   17 ar
  29   13   14 ar
  30   13   39 1
  31   14   15 ar
  32   14   40 1
  33   15   16 ar
  34   15   27 1
  35   16   17 ar
  36   16   41 1
  37   17   42 1
  38   19   21 ar
  39   19   25 ar
  40   21   22 ar
  41   21   43 1
  42   22   23 ar
  43   22   44 1
  44   23   24 ar
  45   23   45 1
  46   24   25 ar
  47   24   46 1
  48   25   26 1

#	End of record

