#	Name: ASD01720013
#	Creating user name:	WinNT
#	Creation time:	15. 06. 2019 19:23

#	Modifying user name:	WinNT
#	Modification time:	15. 06. 2019 19:23

#	Program:	/corina/corina34_cracker 3.40 0067  02.08.2006

@<TRIPOS>MOLECULE
ASD01720013
  70   74    0    0    0
SMALL
NO_CHARGES


@<TRIPOS>ATOM
   1 O1            -0.0174     1.4332     0.0099 O.3     
   2 C2             0.0021    -0.0041     0.0020 C.3     
   3 C3             1.3184    -0.4407    -0.6698 C.3     
   4 C4             2.0444     0.8904    -0.9828 C.3     
   5 C5             1.3576     1.8735    -0.0008 C.3     
   6 O6             2.0971    -1.2364     0.2260 O.3     
   7 O7             1.8230     1.2855    -2.3381 O.3     
   8 C8            -1.7675    -1.5885    -0.3326 C.ar    
   9 C9            -2.8589    -2.1008    -1.0354 C.ar    
  10 C10           -3.2751    -1.4526    -2.2042 C.ar    
  11 C11           -2.5814    -0.3266    -2.6122 C.ar    
  12 C12           -1.5094     0.1177    -1.8597 C.ar    
  13 N13           -1.1397    -0.5136    -0.7615 N.ar    
  14 C14           -3.5634    -3.3081    -0.5539 C.2     
  15 N15           -4.6162    -3.7932    -1.2414 N.am    
  16 O16           -3.1932    -3.8632     0.4622 O.2     
  17 C17            1.4593     3.3100    -0.5175 C.3     
  18 O18            0.8301     4.1958     0.4107 O.3     
  19 P19            0.7494     5.7880     0.1866 P.3     
  20 O20            2.1120     6.3264    -0.0232 O.2     
  21 O21           -0.1569     6.1027    -1.1063 O.3     
  22 O22            0.0928     6.4800     1.4836 O.3     
  23 P23            0.0109     7.9950     2.0221 P.3     
  24 O24            1.3052     8.6730     1.7866 O.2     
  25 O25           -1.1566     8.7804     1.2395 O.3     
  26 O26           -0.3117     7.9872     3.5994 O.3     
  27 C27           -0.3451     9.1752     4.3929 C.3     
  28 O28            0.3914     8.0398     6.4260 O.3     
  29 C29           -0.6797     8.8121     5.8410 C.3     
  30 C30           -0.7665    10.0871     6.7089 C.3     
  31 C31           -0.1574     9.6614     8.0635 C.3     
  32 C32            0.2254     8.1796     7.8538 C.3     
  33 O33           -1.1242     9.7858     9.1084 O.3     
  34 N34            3.6163     7.6067     8.9063 N.2     
  35 C35            2.7330     7.9466     8.0129 C.2     
  36 N36            1.4803     7.8742     8.5454 N.pl3   
  37 C37            1.6102     7.4635     9.8481 C.ar    
  38 N38            0.7646     7.2183    10.8435 N.ar    
  39 C39            1.2079     6.8235    12.0185 C.ar    
  40 N40            2.4928     6.6523    12.2704 N.ar    
  41 C41            3.4126     6.8730    11.3367 C.ar    
  42 C42            2.9883     7.2956    10.0656 C.ar    
  43 N43            4.7570     6.6913    11.6102 N.pl3   
  44 H44           -0.0352    -0.3809     1.0241 H       
  45 H45            1.1139    -0.9891    -1.5893 H       
  46 H46            3.1107     0.8109    -0.7714 H       
  47 H47            1.7950     1.7905     0.9941 H       
  48 H48            2.1562     0.6548    -2.9911 H       
  49 H49           -1.4377    -2.0753     0.5733 H       
  50 H50           -4.1156    -1.8218    -2.7731 H       
  51 H51           -2.8738     0.1992    -3.5091 H       
  52 H52           -0.9663     0.9961    -2.1758 H       
  53 H53           -4.9117    -3.3502    -2.0522 H       
  54 H54           -5.0785    -4.5853    -0.9255 H       
  55 H55            2.5088     3.5835    -0.6265 H       
  56 H56            0.9622     3.3843    -1.4847 H       
  57 H57           -1.0652     5.7778    -1.0386 H       
  58 H58           -2.0347     8.3906     1.3493 H       
  59 H59            0.6284     9.6640     4.3565 H       
  60 H60           -1.1059     9.8513     4.0028 H       
  61 H61           -1.6167     8.2571     5.8872 H       
  62 H62           -0.1825    10.8926     6.2637 H       
  63 H63           -1.8051    10.3924     6.8362 H       
  64 H64            0.7278    10.2565     8.2881 H       
  65 H65           -0.5728     7.5276     8.2087 H       
  66 H66           -1.4447    10.6882     9.2424 H       
  67 H67            2.9593     8.2426     6.9992 H       
  68 H68            0.4940     6.6329    12.8061 H       
  69 H69            5.0374     6.3996    12.4918 H       
  70 H70            5.4188     6.8556    10.9204 H       
@<TRIPOS>BOND
   1    1    2 1
   2    1    5 1
   3    2    3 1
   4    2   13 1
   5    2   44 1
   6    3    4 1
   7    3    6 1
   8    3   45 1
   9    4    5 1
  10    4    7 1
  11    4   46 1
  12    5   17 1
  13    5   47 1
  14    7   48 1
  15    8    9 ar
  16    8   13 ar
  17    8   49 1
  18    9   10 ar
  19    9   14 1
  20   10   11 ar
  21   10   50 1
  22   11   12 ar
  23   11   51 1
  24   12   13 ar
  25   12   52 1
  26   14   15 am
  27   14   16 2
  28   15   53 1
  29   15   54 1
  30   17   18 1
  31   17   55 1
  32   17   56 1
  33   18   19 1
  34   19   20 2
  35   19   21 1
  36   19   22 1
  37   21   57 1
  38   22   23 1
  39   23   24 2
  40   23   25 1
  41   23   26 1
  42   25   58 1
  43   26   27 1
  44   27   29 1
  45   27   59 1
  46   27   60 1
  47   28   29 1
  48   28   32 1
  49   29   30 1
  50   29   61 1
  51   30   31 1
  52   30   62 1
  53   30   63 1
  54   31   32 1
  55   31   33 1
  56   31   64 1
  57   32   36 1
  58   32   65 1
  59   33   66 1
  60   34   35 2
  61   34   42 1
  62   35   36 1
  63   35   67 1
  64   36   37 1
  65   37   38 ar
  66   37   42 ar
  67   38   39 ar
  68   39   40 ar
  69   39   68 1
  70   40   41 ar
  71   41   42 ar
  72   41   43 1
  73   43   69 1
  74   43   70 1

#	End of record

