#	Name: ASD01900646
#	Creating user name:	WinNT
#	Creation time:	15. 06. 2019 19:52

#	Modifying user name:	WinNT
#	Modification time:	15. 06. 2019 19:52

#	Program:	/corina/corina34_cracker 3.40 0067  02.08.2006

@<TRIPOS>MOLECULE
ASD01900646
  54   58    0    0    0
SMALL
NO_CHARGES


@<TRIPOS>ATOM
   1 C1            -1.0163     1.3557     0.1543 C.ar    
   2 C2            -0.9634    -0.0431     0.1264 C.ar    
   3 C3             0.2672    -0.7012     0.0725 C.ar    
   4 C4             1.4396     0.0356     0.0465 C.ar    
   5 C5             1.3680     1.4372     0.0794 C.ar    
   6 O6             2.6377    -0.5842    -0.0174 O.3     
   7 C7             3.7843     0.0640     0.2517 C.2     
   8 C8             3.8686     1.4141     0.3009 C.2     
   9 C9             2.6417     2.1989     0.0639 C.2     
  10 C10            5.0030    -0.7302     0.5047 C.ar    
  11 N11            6.1502    -0.1001     0.7735 N.ar    
  12 C12            7.2691    -0.7390     1.0078 C.ar    
  13 C13            7.3008    -2.1444     0.9836 C.ar    
  14 C14            6.1022    -2.8524     0.7017 C.ar    
  15 C15            4.9318    -2.1139     0.4639 C.ar    
  16 C16            8.4806    -2.8629     1.2291 C.ar    
  17 C17            8.4584    -4.2246     1.1934 C.ar    
  18 C18            7.2821    -4.9185     0.9164 C.ar    
  19 C19            6.1172    -4.2554     0.6734 C.ar    
  20 C20            0.1389     2.0861     0.1310 C.ar    
  21 C21           -2.1770    -0.8027     0.1538 C.1     
  22 C22           -3.1719    -1.4254     0.1762 C.1     
  23 C23           -4.3856    -2.1850     0.2035 C.ar    
  24 C24           -4.3388    -3.5824     0.1759 C.ar    
  25 C25           -5.6204    -1.5315     0.2638 C.ar    
  26 C26           -6.7853    -2.2656     0.2904 C.ar    
  27 C27           -6.7347    -3.6554     0.2579 C.ar    
  28 C28           -5.5081    -4.3094     0.2028 C.ar    
  29 N29           -7.9166    -4.3952     0.2855 N.pl3   
  30 C30           -9.2007    -3.7173     0.4798 C.3     
  31 C31           -7.8740    -5.8502     0.1201 C.3     
  32 N32            2.6749     3.4927    -0.1481 N.2     
  33 O33            1.4933     4.1801    -0.5172 O.3     
  34 H34           -1.9714     1.8586     0.1898 H       
  35 H35            0.3044    -1.7804     0.0516 H       
  36 H36            4.8086     1.9037     0.5083 H       
  37 H37            8.1710    -0.1841     1.2201 H       
  38 H38            3.9988    -2.6126     0.2462 H       
  39 H39            9.4006    -2.3398     1.4446 H       
  40 H40            9.3678    -4.7755     1.3827 H       
  41 H41            7.2942    -5.9982     0.8940 H       
  42 H42            5.2123    -4.8051     0.4603 H       
  43 H43            0.0973     3.1651     0.1522 H       
  44 H44           -3.3869    -4.0908     0.1331 H       
  45 H45           -5.6605    -0.4526     0.2898 H       
  46 H46           -7.7394    -1.7617     0.3370 H       
  47 H47           -5.4730    -5.3885     0.1777 H       
  48 H48           -9.6135    -3.4363    -0.4891 H       
  49 H49           -9.8925    -4.3885     0.9887 H       
  50 H50           -9.0514    -2.8227     1.0844 H       
  51 H51           -6.8538    -6.1605    -0.1055 H       
  52 H52           -8.2046    -6.3304     1.0411 H       
  53 H53           -8.5320    -6.1422    -0.6983 H       
  54 H54            1.6164     5.1298    -0.6518 H       
@<TRIPOS>BOND
   1    1    2 ar
   2    1   20 ar
   3    1   34 1
   4    2    3 ar
   5    2   21 1
   6    3    4 ar
   7    3   35 1
   8    4    5 ar
   9    4    6 1
  10    5   20 ar
  11    5    9 1
  12    6    7 1
  13    7    8 2
  14    7   10 1
  15    8    9 1
  16    8   36 1
  17    9   32 2
  18   10   11 ar
  19   10   15 ar
  20   11   12 ar
  21   12   13 ar
  22   12   37 1
  23   13   14 ar
  24   13   16 ar
  25   14   15 ar
  26   14   19 ar
  27   15   38 1
  28   16   17 ar
  29   16   39 1
  30   17   18 ar
  31   17   40 1
  32   18   19 ar
  33   18   41 1
  34   19   42 1
  35   20   43 1
  36   21   22 3
  37   22   23 1
  38   23   24 ar
  39   23   25 ar
  40   24   28 ar
  41   24   44 1
  42   25   26 ar
  43   25   45 1
  44   26   27 ar
  45   26   46 1
  46   27   28 ar
  47   27   29 1
  48   28   47 1
  49   29   30 1
  50   29   31 1
  51   30   48 1
  52   30   49 1
  53   30   50 1
  54   31   51 1
  55   31   52 1
  56   31   53 1
  57   32   33 1
  58   33   54 1

#	End of record

