#	Name: ASD01948218
#	Creating user name:	WinNT
#	Creation time:	15. 06. 2019 20:14

#	Modifying user name:	WinNT
#	Modification time:	15. 06. 2019 20:14

#	Program:	/corina/corina34_cracker 3.40 0067  02.08.2006

@<TRIPOS>MOLECULE
ASD01948218
  39   41    0    0    0
SMALL
NO_CHARGES


@<TRIPOS>ATOM
   1 N1            -0.0111     1.2422    -0.4783 N.ar    
   2 C2             0.0496    -0.0633    -0.3399 C.ar    
   3 C3             1.2673    -0.6958    -0.0713 C.ar    
   4 N4             2.3754     0.0291     0.0451 N.ar    
   5 C5             2.3221     1.3463    -0.0937 C.ar    
   6 C6             1.0933     1.9745    -0.3630 C.ar    
   7 C7            -0.9911    -1.1539    -0.4093 C.3     
   8 N8            -0.2844    -2.4159    -0.1655 N.am    
   9 C9             1.0190    -2.1525     0.0296 C.2     
  10 C10            4.8267     0.1038    -0.0623 C.ar    
  11 C11            4.7165     1.4702     0.1551 C.ar    
  12 N12            3.4747     2.1027     0.0277 N.pl3   
  13 C13            6.0540    -0.5183     0.0646 C.ar    
  14 C14            7.1729     0.2184     0.4080 C.ar    
  15 C15            7.0681     1.5808     0.6258 C.ar    
  16 C16            5.8433     2.2095     0.5005 C.ar    
  17 F17            5.7407     3.5398     0.7126 F       
  18 I18            9.0308    -0.7307     0.5989 I       
  19 O19            1.8707    -2.9888     0.2562 O.2     
  20 C20            1.0293     3.4442    -0.5190 C.2     
  21 O21            2.0292     4.1164    -0.3594 O.2     
  22 N22           -0.1379     4.0377    -0.8382 N.am    
  23 O23           -0.1992     5.4445    -0.9876 O.3     
  24 C24           -1.4972     5.9370    -1.3264 C.3     
  25 C25           -1.4454     7.4601    -1.4616 C.3     
  26 O26           -0.6077     7.8122    -2.5645 O.3     
  27 H27           -1.7501    -0.9960     0.3569 H       
  28 H28           -1.4528    -1.1682    -1.3966 H       
  29 H29           -0.6912    -3.2962    -0.1476 H       
  30 H30            3.9530    -0.4735    -0.3262 H       
  31 H31            3.4218     3.0713     0.0244 H       
  32 H32            6.1395    -1.5815    -0.1042 H       
  33 H33            7.9435     2.1533     0.8945 H       
  34 H34           -0.9359     3.5012    -0.9656 H       
  35 H35           -1.8166     5.4989    -2.2720 H       
  36 H36           -2.2047     5.6656    -0.5429 H       
  37 H37           -2.4512     7.8441    -1.6322 H       
  38 H38           -1.0417     7.8926    -0.5462 H       
  39 H39           -0.5285     8.7649    -2.7098 H       
@<TRIPOS>BOND
   1    1    2 ar
   2    1    6 ar
   3    2    3 ar
   4    2    7 1
   5    3    4 ar
   6    3    9 1
   7    4    5 ar
   8    5    6 ar
   9    5   12 1
  10    6   20 1
  11    7    8 1
  12    7   27 1
  13    7   28 1
  14    8    9 am
  15    8   29 1
  16    9   19 2
  17   10   11 ar
  18   10   13 ar
  19   10   30 1
  20   11   12 1
  21   11   16 ar
  22   12   31 1
  23   13   14 ar
  24   13   32 1
  25   14   15 ar
  26   14   18 1
  27   15   16 ar
  28   15   33 1
  29   16   17 1
  30   20   21 2
  31   20   22 am
  32   22   23 1
  33   22   34 1
  34   23   24 1
  35   24   25 1
  36   24   35 1
  37   24   36 1
  38   25   26 1
  39   25   37 1
  40   25   38 1
  41   26   39 1

#	End of record

