#	Name: ASD01884407
#	Creating user name:	WinNT
#	Creation time:	15. 06. 2019 19:48

#	Modifying user name:	WinNT
#	Modification time:	15. 06. 2019 19:48

#	Program:	/corina/corina34_cracker 3.40 0067  02.08.2006

@<TRIPOS>MOLECULE
ASD01884407
  35   37    0    0    0
SMALL
NO_CHARGES


@<TRIPOS>ATOM
   1 C1            -0.0164     1.3575     0.0095 C.2     
   2 C2             0.0021    -0.0041     0.0020 C.2     
   3 C3             1.2441    -0.6750    -0.0134 C.2     
   4 C4             2.4025     0.0466    -0.0206 C.2     
   5 N5             2.3701     1.4022    -0.0130 N.am    
   6 C6             1.1987     2.0651     0.0017 C.2     
   7 C7             1.2899    -2.1582    -0.0214 C.ar    
   8 C8             3.6267     2.1553    -0.0205 C.3     
   9 O9             1.1913     3.2855     0.0083 O.2     
  10 C10            4.0445     2.4211    -1.4438 C.ar    
  11 C11            3.6209     3.5699    -2.0854 C.ar    
  12 C12            4.0041     3.8138    -3.3910 C.ar    
  13 C13            4.8114     2.9091    -4.0548 C.ar    
  14 C14            5.2358     1.7607    -3.4129 C.ar    
  15 C15            4.8561     1.5190    -2.1059 C.ar    
  16 C16            0.8129    -2.8782     1.0722 C.ar    
  17 C17            1.8048    -2.8358    -1.1248 C.ar    
  18 C18            1.8453    -4.2152    -1.1273 C.ar    
  19 C19            1.3755    -4.9258    -0.0361 C.ar    
  20 C20            0.8578    -4.2574     1.0601 C.ar    
  21 Cl21           1.4286    -6.6609    -0.0456 Cl      
  22 H22           -0.9563     1.8894     0.0169 H       
  23 H23           -0.9217    -0.5636     0.0082 H       
  24 H24            3.3529    -0.4662    -0.0321 H       
  25 H25            3.4856     3.1027     0.4997 H       
  26 H26            4.4005     1.5759     0.4831 H       
  27 H27            2.9901     4.2768    -1.5668 H       
  28 H28            3.6725     4.7110    -3.8925 H       
  29 H29            5.1103     3.0992    -5.0751 H       
  30 H30            5.8663     1.0537    -3.9316 H       
  31 H31            5.1877     0.6218    -1.6043 H       
  32 H32            0.4092    -2.3576     1.9280 H       
  33 H33            2.1712    -2.2823    -1.9767 H       
  34 H34            2.2439    -4.7412    -1.9822 H       
  35 H35            0.4924    -4.8161     1.9091 H       
@<TRIPOS>BOND
   1    1    2 2
   2    1    6 1
   3    1   22 1
   4    2    3 1
   5    2   23 1
   6    3    4 2
   7    3    7 1
   8    4    5 1
   9    4   24 1
  10    5    6 am
  11    5    8 1
  12    6    9 2
  13    7   16 ar
  14    7   17 ar
  15    8   10 1
  16    8   25 1
  17    8   26 1
  18   10   11 ar
  19   10   15 ar
  20   11   12 ar
  21   11   27 1
  22   12   13 ar
  23   12   28 1
  24   13   14 ar
  25   13   29 1
  26   14   15 ar
  27   14   30 1
  28   15   31 1
  29   16   20 ar
  30   16   32 1
  31   17   18 ar
  32   17   33 1
  33   18   19 ar
  34   18   34 1
  35   19   20 ar
  36   19   21 1
  37   20   35 1

#	End of record

