#	Name: ASD03331789
#	Creating user name:	WinNT
#	Creation time:	15. 06. 2019 20:39

#	Modifying user name:	WinNT
#	Modification time:	15. 06. 2019 20:39

#	Program:	/corina/corina34_cracker 3.40 0067  02.08.2006

@<TRIPOS>MOLECULE
ASD03331789
  59   62    0    0    0
SMALL
NO_CHARGES


@<TRIPOS>ATOM
   1 C1            -0.0187     1.5258     0.0104 C.3     
   2 C2             0.0021    -0.0041     0.0020 C.3     
   3 C3            -1.4117    -0.5257     0.0127 C.2     
   4 C4            -2.1639    -0.8065     1.1089 C.2     
   5 N5            -3.4047    -1.2622     0.7119 N.pl3   
   6 H6            -4.1186    -1.5267     1.3130 H       
   7 C7            -3.4804    -1.2853    -0.6550 C.ar    
   8 C8            -4.5056    -1.6599    -1.5352 C.ar    
   9 C9            -4.3250    -1.5893    -2.8776 C.ar    
  10 C10           -3.0487    -1.1174    -3.4195 C.ar    
  11 C11           -2.0179    -0.7402    -2.5252 C.ar    
  12 C12           -2.2422    -0.8216    -1.1556 C.ar    
  13 N13           -2.8612    -1.0447    -4.7296 N.2     
  14 C14           -3.7768    -1.3802    -5.5116 C.1     
  15 S15           -4.9148    -1.7971    -6.4835 S.2     
  16 C16           -1.7237    -0.6492     2.5032 C.2     
  17 O17           -0.6047    -0.2379     2.7450 O.2     
  18 N18           -2.5601    -0.9608     3.5131 N.am    
  19 C19           -2.1216    -0.8041     4.9021 C.3     
  20 C20           -3.2518    -1.2236     5.8441 C.3     
  21 C21           -2.8007    -1.0624     7.2730 C.ar    
  22 C22           -2.1749    -2.1114     7.9213 C.ar    
  23 C23           -1.7603    -1.9671     9.2307 C.ar    
  24 C24           -1.9725    -0.7665     9.8965 C.ar    
  25 C25           -2.6015     0.2852     9.2422 C.ar    
  26 C26           -3.0085     0.1360     7.9309 C.ar    
  27 N27           -1.5549    -0.6172    11.2209 N.3     
  28 C28           -0.1214    -0.9056    11.3564 C.3     
  29 C29            0.2690    -0.8748    12.8358 C.3     
  30 C30           -0.0497     0.5067    13.4141 C.3     
  31 C31           -1.5390     0.8028    13.2169 C.3     
  32 C32           -1.8769     0.7234    11.7264 C.3     
  33 H33            1.0039     1.9031     0.0027 H       
  34 H34           -0.5459     1.8868    -0.8726 H       
  35 H35           -0.5289     1.8773     0.9072 H       
  36 H36            0.5123    -0.3556    -0.8948 H       
  37 H37            0.5293    -0.3651     0.8851 H       
  38 H38           -5.4484    -2.0085    -1.1403 H       
  39 H39           -5.1213    -1.8810    -3.5463 H       
  40 H40           -1.0688    -0.3897    -2.9030 H       
  41 H41           -3.4523    -1.2888     3.3202 H       
  42 H42           -1.2482    -1.4314     5.0804 H       
  43 H43           -1.8634     0.2388     5.0862 H       
  44 H44           -4.1251    -0.5963     5.6658 H       
  45 H45           -3.5099    -2.2665     5.6601 H       
  46 H46           -2.0106    -3.0447     7.4033 H       
  47 H47           -1.2720    -2.7868     9.7367 H       
  48 H48           -2.7683     1.2198     9.7570 H       
  49 H49           -3.4936     0.9547     7.4202 H       
  50 H50            0.0910    -1.8925    10.9452 H       
  51 H51            0.4530    -0.1549    10.8135 H       
  52 H52           -0.2949    -1.6347    13.3768 H       
  53 H53            1.3361    -1.0734    12.9348 H       
  54 H54            0.1865     0.5196    14.4781 H       
  55 H55            0.5433     1.2627    12.8992 H       
  56 H56           -2.1313     0.0693    13.7639 H       
  57 H57           -1.7635     1.8027    13.5882 H       
  58 H58           -1.2944     1.4664    11.1818 H       
  59 H59           -2.9396     0.9196    11.5840 H       
@<TRIPOS>BOND
   1    1    2 1
   2    1   33 1
   3    1   34 1
   4    1   35 1
   5    2    3 1
   6    2   36 1
   7    2   37 1
   8    3   12 1
   9    3    4 2
  10    4    5 1
  11    4   16 1
  12    5    6 1
  13    5    7 1
  14    7   12 ar
  15    7    8 ar
  16    8    9 ar
  17    8   38 1
  18    9   10 ar
  19    9   39 1
  20   10   11 ar
  21   10   13 1
  22   11   12 ar
  23   11   40 1
  24   13   14 2
  25   14   15 2
  26   16   17 2
  27   16   18 am
  28   18   19 1
  29   18   41 1
  30   19   20 1
  31   19   42 1
  32   19   43 1
  33   20   21 1
  34   20   44 1
  35   20   45 1
  36   21   26 ar
  37   21   22 ar
  38   22   23 ar
  39   22   46 1
  40   23   24 ar
  41   23   47 1
  42   24   25 ar
  43   24   27 1
  44   25   26 ar
  45   25   48 1
  46   26   49 1
  47   27   32 1
  48   27   28 1
  49   28   29 1
  50   28   50 1
  51   28   51 1
  52   29   30 1
  53   29   52 1
  54   29   53 1
  55   30   31 1
  56   30   54 1
  57   30   55 1
  58   31   32 1
  59   31   56 1
  60   31   57 1
  61   32   58 1
  62   32   59 1

#	End of record

