#	Name: ASD02500864
#	Creating user name:	WinNT
#	Creation time:	15. 06. 2019 20:23

#	Modifying user name:	WinNT
#	Modification time:	15. 06. 2019 20:23

#	Program:	/corina/corina34_cracker 3.40 0067  02.08.2006

@<TRIPOS>MOLECULE
ASD02500864
  32   33    0    0    0
SMALL
NO_CHARGES


@<TRIPOS>ATOM
   1 S1             0.1293     1.7789     0.8673 S.3     
   2 C2             0.2009     0.0152     1.0256 C.2     
   3 N3             1.4373    -0.3566     0.6745 N.am    
   4 C4             2.3136     0.5621     0.3042 C.2     
   5 C5             1.8104     1.9403     0.3213 C.2     
   6 O6            -0.7013    -0.7172     1.3849 O.2     
   7 C7             1.8176    -1.7712     0.7003 C.3     
   8 C8             1.5238    -2.3949    -0.6397 C.2     
   9 O9             1.7932    -3.6931    -0.8493 O.3     
  10 O10            1.0457    -1.7265    -1.5254 O.2     
  11 O11            3.4520     0.2853    -0.0254 O.2     
  12 C12            2.4767     3.0766    -0.0055 C.2     
  13 C13            1.7550     4.3528    -0.0888 C.ar    
  14 C14            2.4521     5.5623     0.0205 C.ar    
  15 C15            1.7675     6.7589    -0.0587 C.ar    
  16 C16            0.3859     6.7614    -0.2466 C.ar    
  17 C17           -0.3066     5.5627    -0.3547 C.ar    
  18 C18            0.3684     4.3640    -0.2836 C.ar    
  19 O19            2.4411     7.9356     0.0471 O.3     
  20 C20            3.8551     7.8587     0.2389 C.3     
  21 O21           -0.2849     7.9402    -0.3236 O.3     
  22 H22            2.8827    -1.8571     0.9153 H       
  23 H23            1.2481    -2.2865     1.4737 H       
  24 H24            1.5874    -4.0484    -1.7248 H       
  25 H25            3.5377     3.0423    -0.2042 H       
  26 H26            3.5221     5.5592     0.1667 H       
  27 H27           -1.3768     5.5702    -0.4998 H       
  28 H28           -0.1728     3.4333    -0.3684 H       
  29 H29            4.0678     7.3157     1.1598 H       
  30 H30            4.3082     7.3365    -0.6037 H       
  31 H31            4.2678     8.8652     0.3071 H       
  32 H32           -0.3601     8.2920    -1.2212 H       
@<TRIPOS>BOND
   1    1    2 1
   2    1    5 1
   3    2    3 am
   4    2    6 2
   5    3    4 am
   6    3    7 1
   7    4    5 1
   8    4   11 2
   9    5   12 2
  10    7    8 1
  11    7   22 1
  12    7   23 1
  13    8    9 1
  14    8   10 2
  15    9   24 1
  16   12   13 1
  17   12   25 1
  18   13   14 ar
  19   13   18 ar
  20   14   15 ar
  21   14   26 1
  22   15   16 ar
  23   15   19 1
  24   16   17 ar
  25   16   21 1
  26   17   18 ar
  27   17   27 1
  28   18   28 1
  29   19   20 1
  30   20   29 1
  31   20   30 1
  32   20   31 1
  33   21   32 1

#	End of record

