#	Name: ASD01122008
#	Creating user name:	WinNT
#	Creation time:	15. 06. 2019 18:59

#	Modifying user name:	WinNT
#	Modification time:	15. 06. 2019 18:59

#	Program:	/corina/corina34_cracker 3.40 0067  02.08.2006

@<TRIPOS>MOLECULE
ASD01122008
  20   21    0    0    0
SMALL
NO_CHARGES


@<TRIPOS>ATOM
   1 C1            -0.0211     1.7048     0.0114 C.2     
   2 S2             0.0021    -0.0041     0.0020 S.3     
   3 C3             1.7637     0.0056    -0.0148 C.2     
   4 C4             2.1710     1.2934    -0.0117 C.2     
   5 N5             1.1785     2.1732     0.0025 N.2     
   6 C6             3.5959     1.6871    -0.0232 C.2     
   7 C7             4.0715     2.9605    -0.0209 C.2     
   8 C8             5.4787     2.8686    -0.0349 C.2     
   9 C9             5.7882     1.5581    -0.0449 C.2     
  10 O10            4.6479     0.8466    -0.0319 O.3     
  11 P11            7.4655     0.8675    -0.0646 P.3     
  12 O12            8.1583     1.2182     1.1954 O.2     
  13 O13            7.3848    -0.7343    -0.2047 O.3     
  14 O14            8.2813     1.4750    -1.3126 O.3     
  15 H15           -0.9170     2.3079     0.0191 H       
  16 H16            2.4042    -0.8638    -0.0255 H       
  17 H17            3.4851     3.8674    -0.0104 H       
  18 H18            6.1762     3.6932    -0.0374 H       
  19 H19            6.9422    -1.0369    -1.0095 H       
  20 H20            9.1888     1.1489    -1.3856 H       
@<TRIPOS>BOND
   1    1    2 1
   2    1    5 2
   3    1   15 1
   4    2    3 1
   5    3    4 2
   6    3   16 1
   7    4    5 1
   8    4    6 1
   9    6    7 2
  10    6   10 1
  11    7    8 1
  12    7   17 1
  13    8    9 2
  14    8   18 1
  15    9   10 1
  16    9   11 1
  17   11   12 2
  18   11   13 1
  19   11   14 1
  20   13   19 1
  21   14   20 1

#	End of record

