#	Name: ASD01100061
#	Creating user name:	WinNT
#	Creation time:	15. 06. 2019 18:58

#	Modifying user name:	WinNT
#	Modification time:	15. 06. 2019 18:58

#	Program:	/corina/corina34_cracker 3.40 0067  02.08.2006

@<TRIPOS>MOLECULE
ASD01100061
  50   52    0    0    0
SMALL
NO_CHARGES


@<TRIPOS>ATOM
   1 C1             0.2698     1.7650    -2.0920 C.ar    
   2 C2            -0.0216     0.4581    -1.7438 C.ar    
   3 C3             0.8593    -0.2598    -0.9548 C.ar    
   4 C4             2.0299     0.3289    -0.5147 C.ar    
   5 C5             2.3204     1.6348    -0.8629 C.ar    
   6 C6             1.4406     2.3527    -1.6513 C.ar    
   7 C7             3.5966     2.2763    -0.3824 C.3     
   8 C8             3.2679     3.3498     0.6570 C.3     
   9 C9             2.7080     2.6857     1.9166 C.3     
  10 C10            4.5396     4.1235     1.0108 C.3     
  11 Cl11          -1.4923    -0.2805    -2.2964 Cl      
  12 C12            4.3112     2.9086    -1.5488 C.2     
  13 N13            5.6351     3.1505    -1.4773 N.am    
  14 O14            3.6949     3.1997    -2.5520 O.2     
  15 C15            6.3132     3.6404    -2.5874 C.2     
  16 N16            5.7693     3.8983    -3.7354 N.2     
  17 C17            6.5638     4.3602    -4.6828 C.2     
  18 C18            7.8398     4.4992    -4.3178 C.2     
  19 S19            7.9845     3.9973    -2.6353 S.3     
  20 C20            2.2274     4.3136     0.0832 C.3     
  21 C21            9.0679     6.4992    -5.0581 C.ar    
  22 C22            9.8857     7.0498    -4.0890 C.ar    
  23 C23            9.9891     8.4230    -3.9703 C.ar    
  24 C24            9.2739     9.2464    -4.8215 C.ar    
  25 C25            8.4556     8.6947    -5.7911 C.ar    
  26 C26            8.3530     7.3215    -5.9089 C.ar    
  27 C27            8.9604     5.0019    -5.1911 C.3     
  28 Cl28           9.4028    10.9712    -4.6726 Cl      
  29 H29           -0.4154     2.3245    -2.7116 H       
  30 H30            0.6323    -1.2799    -0.6824 H       
  31 H31            2.7174    -0.2313     0.1016 H       
  32 H32            1.6682     3.3728    -1.9230 H       
  33 H33            4.2370     1.5181     0.0684 H       
  34 H34            3.4493     1.9990     2.3254 H       
  35 H35            2.4739     3.4505     2.6571 H       
  36 H36            1.8021     2.1344     1.6646 H       
  37 H37            5.0117     4.4839     0.0968 H       
  38 H38            4.2840     4.9714     1.6463 H       
  39 H39            5.2289     3.4666     1.5412 H       
  40 H40            6.1148     2.9829    -0.6510 H       
  41 H41            6.2098     4.6059    -5.6731 H       
  42 H42            1.3026     3.7726    -0.1174 H       
  43 H43            2.0340     5.1097     0.8022 H       
  44 H44            2.6043     4.7452    -0.8440 H       
  45 H45           10.4437     6.4069    -3.4244 H       
  46 H46           10.6278     8.8530    -3.2130 H       
  47 H47            7.8969     9.3371    -6.4557 H       
  48 H48            7.7143     6.8907    -6.6657 H       
  49 H49            9.8981     4.5413    -4.8800 H       
  50 H50            8.7556     4.7432    -6.2299 H       
@<TRIPOS>BOND
   1    1    2 ar
   2    1    6 ar
   3    1   29 1
   4    2    3 ar
   5    2   11 1
   6    3    4 ar
   7    3   30 1
   8    4    5 ar
   9    4   31 1
  10    5    6 ar
  11    5    7 1
  12    6   32 1
  13    7    8 1
  14    7   12 1
  15    7   33 1
  16    8    9 1
  17    8   10 1
  18    8   20 1
  19    9   34 1
  20    9   35 1
  21    9   36 1
  22   10   37 1
  23   10   38 1
  24   10   39 1
  25   12   13 am
  26   12   14 2
  27   13   15 1
  28   13   40 1
  29   15   16 2
  30   15   19 1
  31   16   17 1
  32   17   18 2
  33   17   41 1
  34   18   19 1
  35   18   27 1
  36   20   42 1
  37   20   43 1
  38   20   44 1
  39   21   22 ar
  40   21   26 ar
  41   21   27 1
  42   22   23 ar
  43   22   45 1
  44   23   24 ar
  45   23   46 1
  46   24   25 ar
  47   24   28 1
  48   25   26 ar
  49   25   47 1
  50   26   48 1
  51   27   49 1
  52   27   50 1

#	End of record

