#	Name: ASD01948047
#	Creating user name:	WinNT
#	Creation time:	15. 06. 2019 20:13

#	Modifying user name:	WinNT
#	Modification time:	15. 06. 2019 20:13

#	Program:	/corina/corina34_cracker 3.40 0067  02.08.2006

@<TRIPOS>MOLECULE
ASD01948047
  23   24    0    0    0
SMALL
NO_CHARGES


@<TRIPOS>ATOM
   1 C1            -0.0603     1.2768    -0.0315 C.2     
   2 C2             0.0551    -0.0868    -0.0269 C.2     
   3 C3             1.3197    -0.6870    -0.0123 C.2     
   4 C4             2.4495     0.1165    -0.0046 C.2     
   5 C5             2.2922     1.5030    -0.0063 C.2     
   6 N6             1.0628     2.0499    -0.0106 N.am    
   7 O7            -1.1875     2.0326    -0.0627 O.3     
   8 C8             0.6407     3.4648     0.0117 C.3     
   9 C9            -0.8543     3.3569     0.3899 C.3     
  10 O10            3.2774     2.2253    -0.0033 O.2     
  11 N11           -1.1616    -0.9301    -0.0369 N.pl3   
  12 O12           -2.2605    -0.4149     0.0657 O.2     
  13 O13           -1.0637    -2.1391    -0.1477 O.2     
  14 C14            3.8256    -0.4977     0.0058 C.3     
  15 O15            1.4382    -2.0366    -0.0053 O.3     
  16 H16            1.1928     4.0222     0.7683 H       
  17 H17            0.7600     3.9206    -0.9713 H       
  18 H18           -1.4433     4.1070    -0.1377 H       
  19 H19           -0.9891     3.4439     1.4681 H       
  20 H20            3.7385    -1.5842     0.0059 H       
  21 H21            4.3732    -0.1772    -0.8805 H       
  22 H22            4.3603    -0.1759     0.8995 H       
  23 H23            0.5961    -2.5050     0.0764 H       
@<TRIPOS>BOND
   1    1    2 2
   2    1    6 1
   3    1    7 1
   4    2    3 1
   5    2   11 1
   6    3    4 2
   7    3   15 1
   8    4    5 1
   9    4   14 1
  10    5    6 am
  11    5   10 2
  12    6    8 1
  13    7    9 1
  14    8    9 1
  15    8   16 1
  16    8   17 1
  17    9   18 1
  18    9   19 1
  19   11   12 2
  20   11   13 2
  21   14   20 1
  22   14   21 1
  23   14   22 1
  24   15   23 1

#	End of record

