#	Name: ASD05323010
#	Creating user name:	WinNT
#	Creation time:	15. 06. 2019 20:59

#	Modifying user name:	WinNT
#	Modification time:	15. 06. 2019 20:59

#	Program:	/corina/corina34_cracker 3.40 0067  02.08.2006

@<TRIPOS>MOLECULE
ASD05323010
  46   48    0    0    0
SMALL
NO_CHARGES


@<TRIPOS>ATOM
   1 C1            -0.0187     1.5258     0.0104 C.3     
   2 C2             0.0021    -0.0041     0.0020 C.3     
   3 P3             1.6916     2.1568    -0.0025 P.3     
   4 O4             2.4039     1.7481    -1.3873 O.3     
   5 O5             1.6730     3.7605     0.1386 O.3     
   6 O6             2.4423     1.5705     1.1303 O.2     
   7 O7            -2.1040    -0.1936    -1.2201 O.3     
   8 C8            -1.4333    -0.5336     0.0129 C.3     
   9 C9            -1.4365    -2.0780     0.0510 C.3     
  10 C10           -2.6298    -2.4732    -0.8473 C.3     
  11 C11           -3.2065    -1.1210    -1.3219 C.3     
  12 O12           -3.6052    -3.1969    -0.0944 O.3     
  13 O13           -1.6384    -2.5455     1.3862 O.3     
  14 C14           -2.7750    -1.5107    -3.6752 C.2     
  15 N15           -3.1382    -1.6146    -4.9656 N.am    
  16 C16           -4.4245    -1.4267    -5.3285 C.2     
  17 C17           -5.4109    -1.1082    -4.2877 C.2     
  18 C18           -4.9824    -1.0161    -2.9967 C.2     
  19 N19           -3.6629    -1.2203    -2.7105 N.am    
  20 C20           -6.8368    -0.8917    -4.6326 C.ar    
  21 C21           -7.2077     0.1919    -5.4271 C.ar    
  22 C22           -8.5362     0.3881    -5.7452 C.ar    
  23 C23           -9.4989    -0.4879    -5.2768 C.ar    
  24 C24           -9.1367    -1.5647    -4.4876 C.ar    
  25 C25           -7.8106    -1.7744    -4.1682 C.ar    
  26 O26           -4.7603    -1.5189    -6.4949 O.2     
  27 O27           -1.6110    -1.6895    -3.3727 O.2     
  28 H28           -0.5459     1.8868    -0.8726 H       
  29 H29           -0.5289     1.8773     0.9072 H       
  30 H30            0.5123    -0.3556    -0.8948 H       
  31 H31            0.5293    -0.3651     0.8851 H       
  32 H32            1.9645     2.0987    -2.1741 H       
  33 H33            2.5511     4.1655     0.1390 H       
  34 H34           -1.9804    -0.1319     0.8657 H       
  35 H35           -0.5052    -2.4720    -0.3559 H       
  36 H36           -2.2885    -3.0626    -1.6983 H       
  37 H37           -4.0256    -0.8093    -0.6738 H       
  38 H38           -3.2777    -4.0268     0.2787 H       
  39 H39           -1.6492    -3.5089     1.4681 H       
  40 H40           -2.4726    -1.8254    -5.6390 H       
  41 H41           -5.6810    -0.7835    -2.2067 H       
  42 H42           -6.4570     0.8768    -5.7927 H       
  43 H43           -8.8247     1.2273    -6.3607 H       
  44 H44          -10.5374    -0.3303    -5.5280 H       
  45 H45           -9.8927    -2.2452    -4.1245 H       
  46 H46           -7.5285    -2.6179    -3.5557 H       
@<TRIPOS>BOND
   1    1    2 1
   2    1    3 1
   3    1   28 1
   4    1   29 1
   5    2    8 1
   6    2   30 1
   7    2   31 1
   8    3    4 1
   9    3    5 1
  10    3    6 2
  11    4   32 1
  12    5   33 1
  13    7    8 1
  14    7   11 1
  15    8    9 1
  16    8   34 1
  17    9   10 1
  18    9   13 1
  19    9   35 1
  20   10   11 1
  21   10   12 1
  22   10   36 1
  23   11   19 1
  24   11   37 1
  25   12   38 1
  26   13   39 1
  27   14   15 am
  28   14   19 am
  29   14   27 2
  30   15   16 am
  31   15   40 1
  32   16   17 1
  33   16   26 2
  34   17   18 2
  35   17   20 1
  36   18   19 1
  37   18   41 1
  38   20   21 ar
  39   20   25 ar
  40   21   22 ar
  41   21   42 1
  42   22   23 ar
  43   22   43 1
  44   23   24 ar
  45   23   44 1
  46   24   25 ar
  47   24   45 1
  48   25   46 1

#	End of record

