#	Name: ASD01811957
#	Creating user name:	WinNT
#	Creation time:	15. 06. 2019 19:27

#	Modifying user name:	WinNT
#	Modification time:	15. 06. 2019 19:27

#	Program:	/corina/corina34_cracker 3.40 0067  02.08.2006

@<TRIPOS>MOLECULE
ASD01811957
  39   41    0    0    0
SMALL
NO_CHARGES


@<TRIPOS>ATOM
   1 C1             0.2589     1.0816     0.6908 C.ar    
   2 C2             0.2422    -0.2931     0.5157 C.ar    
   3 C3             1.4056    -0.9625     0.2092 C.ar    
   4 C4             2.6146    -0.2640     0.0715 C.ar    
   5 C5             2.6283     1.1184     0.2495 C.ar    
   6 C6             1.4386     1.7806     0.5593 C.ar    
   7 C7             3.8180    -1.0424    -0.2603 C.2     
   8 N8             4.7305    -0.6700    -1.0864 N.2     
   9 C9             4.6577     0.6090    -1.7918 C.3     
  10 C10            4.7202     1.7248    -0.7848 C.2     
  11 N11            3.7746     1.8888     0.1375 N.am    
  12 S12            5.9550     2.7400    -0.8230 S.2     
  13 C13            3.9920    -2.3533     0.4077 C.ar    
  14 C14            4.7868    -3.3379    -0.1788 C.ar    
  15 C15            4.9454    -4.5567     0.4483 C.ar    
  16 C16            4.3176    -4.8031     1.6563 C.ar    
  17 C17            3.5276    -3.8306     2.2428 C.ar    
  18 C18            3.3663    -2.6057     1.6283 C.ar    
  19 Cl19          -1.2459    -1.1712     0.6834 Cl      
  20 C20            3.3417     0.6921    -2.5678 C.3     
  21 C21            3.3102     1.9876    -3.3811 C.3     
  22 C22            3.2302    -0.5062    -3.5126 C.3     
  23 H23           -0.6553     1.6062     0.9264 H       
  24 H24            1.3876    -2.0339     0.0741 H       
  25 H25            1.4433     2.8518     0.6967 H       
  26 H26            5.4967     0.6932    -2.4825 H       
  27 H27            3.8975     2.6035     0.7816 H       
  28 H28            5.2769    -3.1470    -1.1221 H       
  29 H29            5.5606    -5.3200    -0.0048 H       
  30 H30            4.4445    -5.7587     2.1432 H       
  31 H31            3.0397    -4.0289     3.1857 H       
  32 H32            2.7496    -1.8471     2.0873 H       
  33 H33            2.5061     0.6820    -1.8680 H       
  34 H34            3.3896     2.8412    -2.7080 H       
  35 H35            4.1458     1.9976    -4.0809 H       
  36 H36            2.3726     2.0468    -3.9339 H       
  37 H37            3.3162    -1.4296    -2.9399 H       
  38 H38            2.2652    -0.4811    -4.0189 H       
  39 H39            4.0298    -0.4614    -4.2521 H       
@<TRIPOS>BOND
   1    1    2 ar
   2    1    6 ar
   3    1   23 1
   4    2    3 ar
   5    2   19 1
   6    3    4 ar
   7    3   24 1
   8    4    5 ar
   9    4    7 1
  10    5    6 ar
  11    5   11 1
  12    6   25 1
  13    7    8 2
  14    7   13 1
  15    8    9 1
  16    9   10 1
  17    9   20 1
  18    9   26 1
  19   10   11 am
  20   10   12 2
  21   11   27 1
  22   13   14 ar
  23   13   18 ar
  24   14   15 ar
  25   14   28 1
  26   15   16 ar
  27   15   29 1
  28   16   17 ar
  29   16   30 1
  30   17   18 ar
  31   17   31 1
  32   18   32 1
  33   20   21 1
  34   20   22 1
  35   20   33 1
  36   21   34 1
  37   21   35 1
  38   21   36 1
  39   22   37 1
  40   22   38 1
  41   22   39 1

#	End of record

