#	Name: ASD00069156
#	Creating user name:	WinNT
#	Creation time:	15. 06. 2019 18:29

#	Modifying user name:	WinNT
#	Modification time:	15. 06. 2019 18:29

#	Program:	/corina/corina34_cracker 3.40 0067  02.08.2006

@<TRIPOS>MOLECULE
ASD00069156
  61   64    0    0    0
SMALL
NO_CHARGES


@<TRIPOS>ATOM
   1 C1            -0.6442     2.0148    -0.2806 C.2     
   2 N2            -0.4403     0.7358    -0.0560 N.2     
   3 C3             0.8576     0.4623    -0.2390 C.2     
   4 C4             1.4885     1.6225    -0.5930 C.2     
   5 N5             0.5480     2.5929    -0.6187 N.pl3   
   6 C6            -1.9419     2.7085    -0.1894 C.2     
   7 O7            -2.0119     3.9005    -0.4207 O.2     
   8 N8            -3.0507     2.0217     0.1502 N.am    
   9 C9             1.3845    -3.2040     0.4158 C.ar    
  10 C10            0.7485    -1.9870     0.2835 C.ar    
  11 C11            1.4986    -0.8663    -0.0843 C.ar    
  12 C12            2.8697    -1.0320    -0.3029 C.ar    
  13 C13            3.4252    -2.2849    -0.1485 C.ar    
  14 N14            2.6812    -3.3175     0.2002 N.ar    
  15 C15            0.5886    -4.4189     0.8179 C.3     
  16 C16           -4.2615     2.6983     0.3441 C.ar    
  17 C17           -5.4688     2.0043     0.2754 C.ar    
  18 C18           -6.6656     2.6812     0.4686 C.ar    
  19 C19           -6.6566     4.0408     0.7285 C.ar    
  20 C20           -5.4585     4.7276     0.7959 C.ar    
  21 C21           -4.2624     4.0597     0.6108 C.ar    
  22 F22           -7.8382     2.0134     0.4025 F       
  23 N23           -5.4743     0.6286     0.0118 N.3     
  24 C24           -6.1047     0.3435    -1.2835 C.3     
  25 C25           -5.9635    -1.1462    -1.6042 C.3     
  26 C26           -6.6325    -1.9671    -0.4982 C.3     
  27 C27           -5.9904    -1.6158     0.8467 C.3     
  28 C28           -6.1308    -0.1124     1.0963 C.3     
  29 C29           -8.1267    -1.6410    -0.4521 C.3     
  30 C30           -8.8099    -2.5265     0.5918 C.3     
  31 C31           -6.4418    -3.4584    -0.7818 C.3     
  32 N32           -7.1470    -3.8154    -2.0200 N.3     
  33 H33            2.5397     1.7412    -0.8104 H       
  34 H34            0.6921     3.5270    -0.8371 H       
  35 H35           -3.0102     1.0589     0.2604 H       
  36 H36           -0.3134    -1.9014     0.4612 H       
  37 H37            3.4845    -0.1914    -0.5887 H       
  38 H38            4.4833    -2.4228    -0.3155 H       
  39 H39            0.2100    -4.9170    -0.0746 H       
  40 H40            1.2284    -5.1050     1.3730 H       
  41 H41           -0.2481    -4.1136     1.4462 H       
  42 H42           -7.5880     4.5666     0.8786 H       
  43 H43           -5.4568     5.7884     0.9986 H       
  44 H44           -3.3285     4.5989     0.6690 H       
  45 H45           -7.1615     0.6068    -1.2389 H       
  46 H46           -5.6170     0.9304    -2.0618 H       
  47 H47           -6.4452    -1.3603    -2.5583 H       
  48 H48           -4.9069    -1.4073    -1.6626 H       
  49 H49           -6.4912    -2.1654     1.6437 H       
  50 H50           -4.9341    -1.8843     0.8268 H       
  51 H51           -5.6620     0.1433     2.0466 H       
  52 H52           -7.1875     0.1530     1.1298 H       
  53 H53           -8.2617    -0.5931    -0.1842 H       
  54 H54           -8.5692    -1.8257    -1.4309 H       
  55 H55           -9.8729    -2.2883     0.6307 H       
  56 H56           -8.6821    -3.5741     0.3194 H       
  57 H57           -8.3616    -2.3480     1.5692 H       
  58 H58           -5.3793    -3.6740    -0.8938 H       
  59 H59           -6.8453    -4.0403     0.0468 H       
  60 H60           -6.7190    -3.3742    -2.8201 H       
  61 H61           -7.1869    -4.8168    -2.1376 H       
@<TRIPOS>BOND
   1    1    2 2
   2    1    5 1
   3    1    6 1
   4    2    3 1
   5    3    4 2
   6    3   11 1
   7    4    5 1
   8    4   33 1
   9    5   34 1
  10    6    7 2
  11    6    8 am
  12    8   16 1
  13    8   35 1
  14    9   10 ar
  15    9   14 ar
  16    9   15 1
  17   10   11 ar
  18   10   36 1
  19   11   12 ar
  20   12   13 ar
  21   12   37 1
  22   13   14 ar
  23   13   38 1
  24   15   39 1
  25   15   40 1
  26   15   41 1
  27   16   17 ar
  28   16   21 ar
  29   17   18 ar
  30   17   23 1
  31   18   19 ar
  32   18   22 1
  33   19   20 ar
  34   19   42 1
  35   20   21 ar
  36   20   43 1
  37   21   44 1
  38   23   24 1
  39   23   28 1
  40   24   25 1
  41   24   45 1
  42   24   46 1
  43   25   26 1
  44   25   47 1
  45   25   48 1
  46   26   27 1
  47   26   29 1
  48   26   31 1
  49   27   28 1
  50   27   49 1
  51   27   50 1
  52   28   51 1
  53   28   52 1
  54   29   30 1
  55   29   53 1
  56   29   54 1
  57   30   55 1
  58   30   56 1
  59   30   57 1
  60   31   32 1
  61   31   58 1
  62   31   59 1
  63   32   60 1
  64   32   61 1

#	End of record

