#	Name: ASD03331313
#	Creating user name:	WinNT
#	Creation time:	15. 06. 2019 20:39

#	Modifying user name:	WinNT
#	Modification time:	15. 06. 2019 20:39

#	Program:	/corina/corina34_cracker 3.40 0067  02.08.2006

@<TRIPOS>MOLECULE
ASD03331313
  59   60    0    0    0
SMALL
NO_CHARGES


@<TRIPOS>ATOM
   1 C1             0.6167     1.6550    -0.4539 C.3     
   2 C2             0.4959     0.1522    -0.4187 C.2     
   3 C3             1.5324    -0.6867    -0.6720 C.2     
   4 C4             2.9186    -0.2059    -1.0220 C.3     
   5 C5             2.8169     1.2741    -1.4175 C.3     
   6 N6             2.0465     2.0046    -0.4007 N.3     
   7 N7            -0.2848    -1.8859    -0.2152 N.2     
   8 N8             1.0767    -1.9546    -0.5508 N.am    
   9 C9            -0.6274    -0.6241    -0.1373 C.2     
  10 C10            1.7987    -3.0797    -0.7217 C.2     
  11 O11            2.9760    -3.0076    -1.0132 O.2     
  12 N12            1.2148    -4.2848    -0.5693 N.am    
  13 C13            2.2393     3.4547    -0.5354 C.3     
  14 C14            1.0822    -6.6399    -1.1392 C.2     
  15 C15            1.9996    -5.5078    -0.7550 C.3     
  16 C16            2.7195    -5.8550     0.5497 C.3     
  17 C17            1.6971    -5.9641     1.6827 C.3     
  18 O18           -0.0738    -6.6349    -0.7722 O.2     
  19 N19            1.5462    -7.6580    -1.8906 N.am    
  20 C20            0.6877    -8.8112    -2.1721 C.3     
  21 C21            3.4485    -7.1906     0.3901 C.3     
  22 C22            3.7326    -4.7573     0.8808 C.3     
  23 C23           -2.0001    -0.1012     0.1992 C.3     
  24 C24           -2.5221     0.7462    -0.9628 C.3     
  25 C25           -2.9490    -1.2771     0.4395 C.3     
  26 C26           -1.9229     0.7582     1.4627 C.3     
  27 H27            0.1789     2.0374    -1.3760 H       
  28 H28            0.1009     2.0854     0.4045 H       
  29 H29            3.5753    -0.3128    -0.1586 H       
  30 H30            3.3100    -0.7853    -1.8582 H       
  31 H31            3.8177     1.7000    -1.4896 H       
  32 H32            2.3170     1.3583    -2.3825 H       
  33 H33            0.2749    -4.3423    -0.3366 H       
  34 H34            1.7238     3.9668     0.2771 H       
  35 H35            3.3037     3.6852    -0.4927 H       
  36 H36            1.8333     3.7880    -1.4905 H       
  37 H37            2.7344    -5.3516    -1.5449 H       
  38 H38            0.9754    -6.7461     1.4468 H       
  39 H39            2.2100    -6.2114     2.6122 H       
  40 H40            1.1778    -5.0125     1.7964 H       
  41 H41            2.4486    -7.6272    -2.2450 H       
  42 H42            1.2310    -9.5266    -2.7895 H       
  43 H43            0.3984    -9.2863    -1.2347 H       
  44 H44           -0.2052    -8.4788    -2.7016 H       
  45 H45            4.2108    -7.0983    -0.3835 H       
  46 H46            3.9202    -7.4621     1.3345 H       
  47 H47            2.7338    -7.9629     0.1057 H       
  48 H48            3.2132    -3.8058     0.9945 H       
  49 H49            4.2454    -5.0046     1.8103 H       
  50 H50            4.4609    -4.6796     0.0736 H       
  51 H51           -2.5771     0.1339    -1.8630 H       
  52 H52           -3.5150     1.1244    -0.7194 H       
  53 H53           -1.8461     1.5839    -1.1340 H       
  54 H54           -2.5771    -1.8808     1.2673 H       
  55 H55           -3.9419    -0.8989     0.6829 H       
  56 H56           -3.0040    -1.8894    -0.4607 H       
  57 H57           -1.2469     1.5959     1.2915 H       
  58 H58           -2.9158     1.1364     1.7061 H       
  59 H59           -1.5510     0.1545     2.2906 H       
@<TRIPOS>BOND
   1    1    2 1
   2    1    6 1
   3    1   27 1
   4    1   28 1
   5    2    3 2
   6    2    9 1
   7    3    4 1
   8    3    8 1
   9    4    5 1
  10    4   29 1
  11    4   30 1
  12    5    6 1
  13    5   31 1
  14    5   32 1
  15    6   13 1
  16    7    8 1
  17    7    9 2
  18    8   10 am
  19    9   23 1
  20   10   11 2
  21   10   12 am
  22   12   15 1
  23   12   33 1
  24   13   34 1
  25   13   35 1
  26   13   36 1
  27   14   18 2
  28   14   19 am
  29   14   15 1
  30   15   16 1
  31   15   37 1
  32   16   17 1
  33   16   21 1
  34   16   22 1
  35   17   38 1
  36   17   39 1
  37   17   40 1
  38   19   20 1
  39   19   41 1
  40   20   42 1
  41   20   43 1
  42   20   44 1
  43   21   45 1
  44   21   46 1
  45   21   47 1
  46   22   48 1
  47   22   49 1
  48   22   50 1
  49   23   24 1
  50   23   26 1
  51   23   25 1
  52   24   51 1
  53   24   52 1
  54   24   53 1
  55   25   54 1
  56   25   55 1
  57   25   56 1
  58   26   57 1
  59   26   58 1
  60   26   59 1

#	End of record

