#	Name: ASD05430458
#	Creating user name:	WinNT
#	Creation time:	15. 06. 2019 21:00

#	Modifying user name:	WinNT
#	Modification time:	15. 06. 2019 21:00

#	Program:	/corina/corina34_cracker 3.40 0067  02.08.2006

@<TRIPOS>MOLECULE
ASD05430458
  53   57    0    0    0
SMALL
NO_CHARGES


@<TRIPOS>ATOM
   1 C1            -0.0163     1.3540     0.0095 C.2     
   2 N2             0.0021    -0.0041     0.0020 N.pl3   
   3 N3             1.2153     1.7865     0.0000 N.2     
   4 C4             2.0536     0.7397    -0.0136 C.2     
   5 C5             1.3179    -0.3883    -0.0126 C.2     
   6 C6            -3.1112     0.4890     2.7812 C.3     
   7 O7            -2.0352     0.3498     1.8512 O.3     
   8 C8            -2.1289    -0.6598     0.9455 C.ar    
   9 C9            -1.1137    -0.8526     0.0085 C.ar    
  10 C10           -3.2270    -1.4983     0.9569 C.ar    
  11 C11           -3.3197    -2.5362     0.0239 C.ar    
  12 C12           -2.3008    -2.7198    -0.9163 C.ar    
  13 C13           -1.2059    -1.8826    -0.9180 C.ar    
  14 C14            3.5588     0.8131    -0.0280 C.3     
  15 C15           -4.4867    -3.4328     0.0315 C.2     
  16 C16           -4.5744    -4.4325    -0.8684 C.2     
  17 C17           -5.7356    -5.3247    -0.8609 C.2     
  18 N18           -6.7351    -5.2296    -0.0215 N.2     
  19 N19           -7.6342    -6.2789    -0.2712 N.am    
  20 C20           -7.3214    -6.6476    -1.6757 C.3     
  21 O21           -5.9182    -6.3593    -1.7319 O.3     
  22 C22           -8.5811    -7.0933     0.2099 C.2     
  23 C23           -8.7652    -8.2805    -0.7135 C.3     
  24 C24           -7.6047    -8.1585    -1.7331 C.3     
  25 O25           -9.2015    -6.9081     1.2362 O.2     
  26 C26           -8.1140    -5.8566    -2.6843 C.ar    
  27 C27           -9.3232    -5.2921    -2.3233 C.ar    
  28 C28          -10.0506    -4.5661    -3.2472 C.ar    
  29 C29           -9.5680    -4.4043    -4.5348 C.ar    
  30 C30           -8.3568    -4.9702    -4.8952 C.ar    
  31 C31           -7.6286    -5.6913    -3.9681 C.ar    
  32 F32          -10.2785    -3.6952    -5.4390 F       
  33 H33           -0.9017     1.9725     0.0172 H       
  34 H34            1.6926    -1.4012    -0.0213 H       
  35 H35           -2.9110     1.3299     3.4453 H       
  36 H36           -4.0396     0.6674     2.2388 H       
  37 H37           -3.2036    -0.4242     3.3691 H       
  38 H38           -4.0116    -1.3529     1.6847 H       
  39 H39           -2.3695    -3.5206    -1.6377 H       
  40 H40           -0.4198    -2.0253    -1.6448 H       
  41 H41            3.9318     0.8250     0.9961 H       
  42 H42            3.9599    -0.0553    -0.5507 H       
  43 H43            3.8733     1.7225    -0.5399 H       
  44 H44           -5.2728    -3.2898     0.7581 H       
  45 H45           -3.7882    -4.5755    -1.5950 H       
  46 H46           -8.6852    -9.2133    -0.1552 H       
  47 H47           -9.7272    -8.2216    -1.2225 H       
  48 H48           -7.9248    -8.4604    -2.7303 H       
  49 H49           -6.7366    -8.7333    -1.4105 H       
  50 H50           -9.6996    -5.4187    -1.3190 H       
  51 H51          -10.9954    -4.1254    -2.9651 H       
  52 H52           -7.9794    -4.8447    -5.8993 H       
  53 H53           -6.6838    -6.1328    -4.2490 H       
@<TRIPOS>BOND
   1    1    2 1
   2    1    3 2
   3    1   33 1
   4    2    5 1
   5    2    9 1
   6    3    4 1
   7    4    5 2
   8    4   14 1
   9    5   34 1
  10    6    7 1
  11    6   35 1
  12    6   36 1
  13    6   37 1
  14    7    8 1
  15    8    9 ar
  16    8   10 ar
  17    9   13 ar
  18   10   11 ar
  19   10   38 1
  20   11   12 ar
  21   11   15 1
  22   12   13 ar
  23   12   39 1
  24   13   40 1
  25   14   41 1
  26   14   42 1
  27   14   43 1
  28   15   16 2
  29   15   44 1
  30   16   17 1
  31   16   45 1
  32   17   18 2
  33   17   21 1
  34   18   19 1
  35   19   20 1
  36   19   22 am
  37   20   21 1
  38   20   26 1
  39   20   24 1
  40   22   23 1
  41   22   25 2
  42   23   24 1
  43   23   46 1
  44   23   47 1
  45   24   48 1
  46   24   49 1
  47   26   27 ar
  48   26   31 ar
  49   27   28 ar
  50   27   50 1
  51   28   29 ar
  52   28   51 1
  53   29   30 ar
  54   29   32 1
  55   30   31 ar
  56   30   52 1
  57   31   53 1

#	End of record

