#	Name: ASD01915488
#	Creating user name:	WinNT
#	Creation time:	15. 06. 2019 20:05

#	Modifying user name:	WinNT
#	Modification time:	15. 06. 2019 20:05

#	Program:	/corina/corina34_cracker 3.40 0067  02.08.2006

@<TRIPOS>MOLECULE
ASD01915488
  46   49    0    0    0
SMALL
NO_CHARGES


@<TRIPOS>ATOM
   1 C1            -0.0167     1.3839     0.0097 C.ar    
   2 C2             0.0021    -0.0041     0.0020 C.ar    
   3 N3             1.1017     2.0842     0.0027 N.ar    
   4 C4             2.2829     1.5042    -0.0117 C.ar    
   5 C5             2.3850     0.1107    -0.0188 C.ar    
   6 C6             1.2262    -0.6640    -0.0125 C.ar    
   7 C7             3.5455     2.3269    -0.0221 C.3     
   8 C8             4.6385     1.6130     0.7693 C.3     
   9 N9             4.7948     0.2317     0.3214 N.am    
  10 C10            3.7255    -0.5106    -0.0317 C.2     
  11 O11            3.8627    -1.6740    -0.3557 O.2     
  12 O12           -1.1602    -0.7087     0.0091 O.3     
  13 C13           -2.3750     0.0438     0.0245 C.3     
  14 C14           -3.5502    -0.8996     0.0304 C.ar    
  15 C15           -4.0780    -1.3387     1.2301 C.ar    
  16 C16           -4.1039    -1.3214    -1.1640 C.ar    
  17 C17           -5.1819    -2.1867    -1.1586 C.ar    
  18 C18           -5.7059    -2.6306     0.0411 C.ar    
  19 C19           -5.1560    -2.2040     1.2355 C.ar    
  20 C20            6.1346    -0.3570     0.2544 C.3     
  21 C21            6.4685    -1.0186     1.5929 C.3     
  22 C22            7.8079    -1.7741     1.5895 C.3     
  23 C23            8.0362    -1.2163     3.0043 C.3     
  24 C24            7.1025    -0.0586     2.6134 C.3     
  25 H25           -0.9651     1.9006     0.0169 H       
  26 H26            1.2774    -1.7428    -0.0186 H       
  27 H27            3.8770     2.4679    -1.0509 H       
  28 H28            3.3478     3.2990     0.4295 H       
  29 H29            5.5818     2.1419     0.6335 H       
  30 H30            4.3755     1.6183     1.8271 H       
  31 H31           -2.4049     0.6671     0.9181 H       
  32 H32           -2.4216     0.6767    -0.8617 H       
  33 H33           -3.6480    -1.0059     2.1633 H       
  34 H34           -3.6945    -0.9745    -2.1013 H       
  35 H35           -5.6150    -2.5156    -2.0916 H       
  36 H36           -6.5484    -3.3063     0.0454 H       
  37 H37           -5.5654    -2.5508     2.1729 H       
  38 H38            6.1636    -1.1050    -0.5379 H       
  39 H39            6.8647     0.4244     0.0432 H       
  40 H40            5.6397    -1.6009     1.9956 H       
  41 H41            7.6976    -2.8581     1.5602 H       
  42 H42            8.5185    -1.3998     0.8526 H       
  43 H43            7.6364    -1.8521     3.7942 H       
  44 H44            9.0641    -0.9045     3.1901 H       
  45 H45            7.6202     0.7847     2.1564 H       
  46 H46            6.4228     0.2423     3.4106 H       
@<TRIPOS>BOND
   1    1    2 ar
   2    1    3 ar
   3    1   25 1
   4    2   12 1
   5    2    6 ar
   6    3    4 ar
   7    4    5 ar
   8    4    7 1
   9    5    6 ar
  10    5   10 1
  11    6   26 1
  12    7    8 1
  13    7   27 1
  14    7   28 1
  15    8    9 1
  16    8   29 1
  17    8   30 1
  18    9   10 am
  19    9   20 1
  20   10   11 2
  21   12   13 1
  22   13   14 1
  23   13   31 1
  24   13   32 1
  25   14   15 ar
  26   14   16 ar
  27   15   19 ar
  28   15   33 1
  29   16   17 ar
  30   16   34 1
  31   17   18 ar
  32   17   35 1
  33   18   19 ar
  34   18   36 1
  35   19   37 1
  36   20   21 1
  37   20   38 1
  38   20   39 1
  39   21   22 1
  40   21   24 1
  41   21   40 1
  42   22   23 1
  43   22   41 1
  44   22   42 1
  45   23   24 1
  46   23   43 1
  47   23   44 1
  48   24   45 1
  49   24   46 1

#	End of record

