#	Name: ASD01890061
#	Creating user name:	WinNT
#	Creation time:	15. 06. 2019 19:50

#	Modifying user name:	WinNT
#	Modification time:	15. 06. 2019 19:50

#	Program:	/corina/corina34_cracker 3.40 0067  02.08.2006

@<TRIPOS>MOLECULE
ASD01890061
  57   58    0    0    0
SMALL
NO_CHARGES


@<TRIPOS>ATOM
   1 C1             0.0437     1.6083     0.2258 C.2     
   2 C2             0.0612     0.1083     0.0823 C.3     
   3 C3             1.4858    -0.3683    -0.0376 C.2     
   4 O4             0.9030     2.1638     0.8684 O.2     
   5 O5            -0.9234     2.3278    -0.3649 O.3     
   6 O6             1.9357    -1.1388     0.7771 O.2     
   7 O7             2.2550     0.0633    -1.0495 O.3     
   8 C8            -0.5881    -0.5293     1.3123 C.3     
   9 C9            -1.9851     0.0607     1.5151 C.3     
  10 C10           -2.5663    -0.4566     2.8057 C.2     
  11 C11           -0.6966    -2.0185     1.1079 C.ar    
  12 C12           -0.0648    -2.8838     1.9813 C.ar    
  13 C13           -0.1643    -4.2498     1.7939 C.ar    
  14 C14           -0.8959    -4.7504     0.7332 C.ar    
  15 C15           -1.5284    -3.8850    -0.1398 C.ar    
  16 C16           -1.4325    -2.5192     0.0502 C.ar    
  17 O17           -1.9264    -1.2218     3.4952 O.2     
  18 C18           -3.9099    -0.0334     3.2290 C.ar    
  19 C19           -4.4527    -0.5117     4.4264 C.ar    
  20 C20           -5.7120    -0.1105     4.8169 C.ar    
  21 C21           -6.4404     0.7641     4.0265 C.ar    
  22 C22           -5.9093     1.2415     2.8390 C.ar    
  23 C23           -4.6488     0.8538     2.4389 C.ar    
  24 Cl24          -8.0261     1.2636     4.5261 Cl      
  25 C25           -0.8776     3.7678    -0.1840 C.3     
  26 O26            0.1766     4.3262    -1.0117 O.3     
  27 C27           -0.0632     4.4099    -2.3297 C.2     
  28 O28           -1.1191     4.0292    -2.7770 O.2     
  29 C29            0.9844     4.9788    -3.2516 C.3     
  30 C30            3.6169    -0.4373    -1.1022 C.3     
  31 O31            3.6093    -1.8128    -1.5673 O.3     
  32 C32            3.3908    -2.0122    -2.8766 C.2     
  33 O33            3.2118    -1.0686    -3.6098 O.2     
  34 C34            3.3687    -3.4129    -3.4321 C.3     
  35 H35           -0.4940    -0.1778    -0.8110 H       
  36 H36            0.0231    -0.3269     2.1918 H       
  37 H37           -1.9177     1.1478     1.5570 H       
  38 H38           -2.6272    -0.2318     0.6844 H       
  39 H39            0.5067    -2.4927     2.8100 H       
  40 H40            0.3298    -4.9259     2.4759 H       
  41 H41           -0.9731    -5.8176     0.5863 H       
  42 H42           -2.0997    -4.2761    -0.9687 H       
  43 H43           -1.9297    -1.8431    -0.6296 H       
  44 H44           -3.8864    -1.1939     5.0431 H       
  45 H45           -6.1324    -0.4788     5.7410 H       
  46 H46           -6.4828     1.9226     2.2277 H       
  47 H47           -4.2343     1.2301     1.5154 H       
  48 H48           -1.8349     4.2010    -0.4736 H       
  49 H49           -0.6772     3.9963     0.8628 H       
  50 H50            1.8615     5.2659    -2.6717 H       
  51 H51            1.2664     4.2271    -3.9889 H       
  52 H52            0.5830     5.8548    -3.7611 H       
  53 H53            4.2028     0.1748    -1.7879 H       
  54 H54            4.0592    -0.3928    -0.1070 H       
  55 H55            3.5479    -4.1258    -2.6273 H       
  56 H56            2.3957    -3.6100    -3.8822 H       
  57 H57            4.1466    -3.5160    -4.1887 H       
@<TRIPOS>BOND
   1    1    2 1
   2    1    4 2
   3    1    5 1
   4    2    3 1
   5    2    8 1
   6    2   35 1
   7    3    6 2
   8    3    7 1
   9    5   25 1
  10    7   30 1
  11    8    9 1
  12    8   11 1
  13    8   36 1
  14    9   10 1
  15    9   37 1
  16    9   38 1
  17   10   17 2
  18   10   18 1
  19   11   12 ar
  20   11   16 ar
  21   12   13 ar
  22   12   39 1
  23   13   14 ar
  24   13   40 1
  25   14   15 ar
  26   14   41 1
  27   15   16 ar
  28   15   42 1
  29   16   43 1
  30   18   19 ar
  31   18   23 ar
  32   19   20 ar
  33   19   44 1
  34   20   21 ar
  35   20   45 1
  36   21   22 ar
  37   21   24 1
  38   22   23 ar
  39   22   46 1
  40   23   47 1
  41   25   26 1
  42   25   48 1
  43   25   49 1
  44   26   27 1
  45   27   28 2
  46   27   29 1
  47   29   50 1
  48   29   51 1
  49   29   52 1
  50   30   31 1
  51   30   53 1
  52   30   54 1
  53   31   32 1
  54   32   33 2
  55   32   34 1
  56   34   55 1
  57   34   56 1
  58   34   57 1

#	End of record

