#	Name: ASD04882354
#	Creating user name:	WinNT
#	Creation time:	15. 06. 2019 20:54

#	Modifying user name:	WinNT
#	Modification time:	15. 06. 2019 20:54

#	Program:	/corina/corina34_cracker 3.40 0067  02.08.2006

@<TRIPOS>MOLECULE
ASD04882354
  76   80    0    0    0
SMALL
NO_CHARGES


@<TRIPOS>ATOM
   1 N1            -0.0169     1.3967     0.0097 N.am    
   2 C2             0.1110     0.0023    -0.0345 C.ar    
   3 C3            -1.0256    -0.8071     0.0450 C.ar    
   4 C4            -0.9002    -2.1910     0.0008 C.ar    
   5 C5             0.3437    -2.7692    -0.1214 C.ar    
   6 C6             1.4845    -1.9656    -0.2013 C.ar    
   7 C7             1.3607    -0.5739    -0.1624 C.ar    
   8 N8            -2.2853    -0.2267     0.1691 N.3     
   9 C9            -3.1512    -0.6017    -0.9575 C.3     
  10 C10           -2.9075    -0.5875     1.4506 C.3     
  11 C11           -4.2519     0.1320     1.5824 C.3     
  12 N12           -5.1178    -0.2430     0.4558 N.3     
  13 C13           -4.4956     0.1178    -0.8257 C.3     
  14 C14            2.8169    -2.5853    -0.3322 C.2     
  15 O15            3.8088    -1.8854    -0.4017 O.2     
  16 C16            0.9202     2.1779    -0.5630 C.2     
  17 C17            0.7427     3.6337    -0.5939 C.2     
  18 O18            1.9138     1.6754    -1.0545 O.2     
  19 N19            2.9347    -3.9272    -0.3748 N.am    
  20 C20           -6.3813     0.3392     0.5803 C.ar    
  21 C21           -6.5094     1.7215     0.6251 C.ar    
  22 C22           -7.5133    -0.4629     0.6538 C.ar    
  23 C23           -8.7609     0.1158     0.7768 C.ar    
  24 C24           -8.8844     1.4925     0.8264 C.ar    
  25 C25           -7.7604     2.2939     0.7483 C.ar    
  26 C26            1.5991     4.5467    -1.1346 C.2     
  27 O27           -0.3056     4.3304    -0.0965 O.3     
  28 C28           -0.0788     5.6270    -0.3296 C.2     
  29 N29            1.0623     5.7574    -0.9515 N.2     
  30 C30            4.2578    -4.5426    -0.5048 C.3     
  31 C31            4.1119    -6.0654    -0.5288 C.3     
  32 C32           -7.3797    -1.9630     0.5987 C.3     
  33 N33            5.3539    -8.1663    -0.6875 N.am    
  34 C34            5.4937    -6.7081    -0.6645 C.3     
  35 C35           -0.9956     6.7579     0.0597 C.3     
  36 C36            5.1699    -8.9614    -1.9072 C.3     
  37 C37            4.6437   -10.3331    -1.4295 C.3     
  38 C38            5.1956   -10.3974     0.0134 C.3     
  39 C39            5.3836    -8.9483     0.4054 C.2     
  40 O40            5.5319    -8.5496     1.5411 O.2     
  41 H41           -0.7820     1.7999     0.4490 H       
  42 H42           -1.7803    -2.8140     0.0628 H       
  43 H43            0.4379    -3.8446    -0.1550 H       
  44 H44            2.2404     0.0496    -0.2244 H       
  45 H45           -2.6746    -0.3131    -1.8943 H       
  46 H46           -3.3132    -1.6796    -0.9486 H       
  47 H47           -3.0668    -1.6652     1.4869 H       
  48 H48           -2.2532    -0.2885     2.2695 H       
  49 H49           -4.7285    -0.1566     2.5192 H       
  50 H50           -4.0899     1.2099     1.5735 H       
  51 H51           -4.3363     1.1955    -0.8620 H       
  52 H52           -5.1499    -0.1812    -1.6446 H       
  53 H53            2.1434    -4.4856    -0.3194 H       
  54 H54           -5.6318     2.3480     0.5641 H       
  55 H55           -9.6413    -0.5071     0.8340 H       
  56 H56           -9.8615     1.9427     0.9220 H       
  57 H57           -7.8604     3.3685     0.7874 H       
  58 H58            2.5388     4.3314    -1.6214 H       
  59 H59            4.7248    -4.2078    -1.4310 H       
  60 H60            4.8792    -4.2504     0.3417 H       
  61 H61            3.6448    -6.4003     0.3974 H       
  62 H62            3.4905    -6.3576    -1.3753 H       
  63 H63           -7.2600    -2.3544     1.6090 H       
  64 H64           -8.2745    -2.3911     0.1469 H       
  65 H65           -6.5080    -2.2285     0.0006 H       
  66 H66            5.9607    -6.3733    -1.5907 H       
  67 H67            6.1150    -6.4160     0.1820 H       
  68 H68           -0.7357     7.1090     1.0583 H       
  69 H69           -0.8868     7.5756    -0.6527 H       
  70 H70           -2.0276     6.4069     0.0551 H       
  71 H71            4.4403    -8.4847    -2.5618 H       
  72 H72            6.1209    -9.0821    -2.4259 H       
  73 H73            3.5539   -10.3550    -1.4317 H       
  74 H74            5.0498   -11.1404    -2.0389 H       
  75 H75            4.4790   -10.8845     0.6747 H       
  76 H76            6.1515   -10.9210     0.0333 H       
@<TRIPOS>BOND
   1    1    2 1
   2    1   16 am
   3    1   41 1
   4    2    3 ar
   5    2    7 ar
   6    3    4 ar
   7    3    8 1
   8    4    5 ar
   9    4   42 1
  10    5    6 ar
  11    5   43 1
  12    6    7 ar
  13    6   14 1
  14    7   44 1
  15    8    9 1
  16    8   10 1
  17    9   13 1
  18    9   45 1
  19    9   46 1
  20   10   11 1
  21   10   47 1
  22   10   48 1
  23   11   12 1
  24   11   49 1
  25   11   50 1
  26   12   13 1
  27   12   20 1
  28   13   51 1
  29   13   52 1
  30   14   15 2
  31   14   19 am
  32   16   18 2
  33   16   17 1
  34   17   26 2
  35   17   27 1
  36   19   30 1
  37   19   53 1
  38   20   21 ar
  39   20   22 ar
  40   21   25 ar
  41   21   54 1
  42   22   23 ar
  43   22   32 1
  44   23   24 ar
  45   23   55 1
  46   24   25 ar
  47   24   56 1
  48   25   57 1
  49   26   29 1
  50   26   58 1
  51   27   28 1
  52   28   29 2
  53   28   35 1
  54   30   31 1
  55   30   59 1
  56   30   60 1
  57   31   34 1
  58   31   61 1
  59   31   62 1
  60   32   63 1
  61   32   64 1
  62   32   65 1
  63   33   34 1
  64   33   36 1
  65   33   39 am
  66   34   66 1
  67   34   67 1
  68   35   68 1
  69   35   69 1
  70   35   70 1
  71   36   37 1
  72   36   71 1
  73   36   72 1
  74   37   38 1
  75   37   73 1
  76   37   74 1
  77   38   39 1
  78   38   75 1
  79   38   76 1
  80   39   40 2

#	End of record

