#	Name: ASD04220031
#	Creating user name:	WinNT
#	Creation time:	15. 06. 2019 20:48

#	Modifying user name:	WinNT
#	Modification time:	15. 06. 2019 20:48

#	Program:	/corina/corina34_cracker 3.40 0067  02.08.2006

@<TRIPOS>MOLECULE
ASD04220031
  54   56    0    0    0
SMALL
NO_CHARGES


@<TRIPOS>ATOM
   1 C1             1.5820     0.6932     0.6935 C.3     
   2 N2             1.8782    -0.7397     0.5909 N.am    
   3 C3             2.3814    -1.2342    -0.7015 C.3     
   4 C4             3.7399    -0.5832    -0.9559 C.3     
   5 C5             3.6795     0.9006    -0.7032 C.ar    
   6 C6             4.6724     1.6900    -1.2725 C.ar    
   7 C7             4.6843     3.0577    -1.0745 C.ar    
   8 C8             3.6929     3.6501    -0.2974 C.ar    
   9 C9             2.7047     2.8627     0.2639 C.ar    
  10 C10            2.6953     1.4890     0.0591 C.ar    
  11 C11            2.5356    -2.7324    -0.6492 C.2     
  12 O12            1.7367    -3.4481    -1.2290 O.co2   
  13 O13            3.4592    -3.2288    -0.0271 O.co2   
  14 C14            1.6974    -1.5698     1.6371 C.2     
  15 C15            1.2558    -1.0190     2.9685 C.3     
  16 O16            1.8903    -2.7601     1.5071 O.2     
  17 C17            1.1290    -2.1458     3.9612 C.ar    
  18 C18            2.2441    -2.5819     4.6615 C.ar    
  19 C19            2.1273    -3.6185     5.5753 C.ar    
  20 C20            0.9003    -4.2164     5.7886 C.ar    
  21 C21           -0.2146    -3.7801     5.0888 C.ar    
  22 C22           -0.0986    -2.7403     4.1778 C.ar    
  23 O23            3.4519    -1.9934     4.4517 O.3     
  24 S24            3.7288    -0.8063     5.3631 S.o2    
  25 O25            4.8544    -0.0880     4.7860 O.co2   
  26 O26            2.5181    -0.0001     5.3813 O.co2   
  27 O27            4.0428    -1.3494     6.6755 O.co2   
  28 O28            3.6965     4.9943    -0.0913 O.3     
  29 S29            4.4601     5.4279     1.1518 S.o2    
  30 O30            4.1182     6.8218     1.3891 O.co2   
  31 O31            4.0193     4.5653     2.2370 O.co2   
  32 O32            5.8741     5.2552     0.8571 O.co2   
  33 O33           -1.4223    -4.3689     5.2983 O.3     
  34 S34           -2.2451    -3.7186     6.4013 S.o2    
  35 O35           -3.3061    -4.6542     6.7402 O.co2   
  36 O36           -1.3421    -3.4892     7.5184 O.co2   
  37 O37           -2.7673    -2.4747     5.8571 O.co2   
  38 O38            5.6600     3.8209    -1.6357 O.3     
  39 S39            5.3514     4.2746    -3.0554 S.o2    
  40 O40            6.6061     4.7330    -3.6313 O.co2   
  41 O41            4.8182     3.1182    -3.7586 O.co2   
  42 O42            4.3749     5.3476    -2.9499 O.co2   
  43 H43            0.6448     0.9075     0.1800 H       
  44 H44            1.4910     0.9704     1.7438 H       
  45 H45            1.6871    -0.9617    -1.4964 H       
  46 H46            4.4811    -1.0298    -0.2931 H       
  47 H47            4.0334    -0.7589    -1.9908 H       
  48 H48            5.4418     1.2299    -1.8749 H       
  49 H49            1.9339     3.3195     0.8668 H       
  50 H50            1.9927    -0.3003     3.3269 H       
  51 H51            0.2911    -0.5244     2.8551 H       
  52 H52            2.9957    -3.9585     6.1201 H       
  53 H53            0.8094    -5.0239     6.5000 H       
  54 H54           -0.9677    -2.3980     3.6356 H       
@<TRIPOS>BOND
   1    1    2 1
   2    1   10 1
   3    1   43 1
   4    1   44 1
   5    2    3 1
   6    2   14 am
   7    3    4 1
   8    3   11 1
   9    3   45 1
  10    4    5 1
  11    4   46 1
  12    4   47 1
  13    5    6 ar
  14    5   10 ar
  15    6    7 ar
  16    6   48 1
  17    7    8 ar
  18    7   38 1
  19    8    9 ar
  20    8   28 1
  21    9   10 ar
  22    9   49 1
  23   11   12 ar
  24   11   13 ar
  25   14   15 1
  26   14   16 2
  27   15   17 1
  28   15   50 1
  29   15   51 1
  30   17   18 ar
  31   17   22 ar
  32   18   19 ar
  33   18   23 1
  34   19   20 ar
  35   19   52 1
  36   20   21 ar
  37   20   53 1
  38   21   22 ar
  39   21   33 1
  40   22   54 1
  41   23   24 1
  42   24   25 ar
  43   24   26 ar
  44   24   27 ar
  45   28   29 1
  46   29   30 ar
  47   29   31 ar
  48   29   32 ar
  49   33   34 1
  50   34   35 ar
  51   34   36 ar
  52   34   37 ar
  53   38   39 1
  54   39   40 ar
  55   39   41 ar
  56   39   42 ar

#	End of record

