#	Name: ASD06350024
#	Creating user name:	WinNT
#	Creation time:	15. 06. 2019 21:06

#	Modifying user name:	WinNT
#	Modification time:	15. 06. 2019 21:06

#	Program:	/corina/corina34_cracker 3.40 0067  02.08.2006

@<TRIPOS>MOLECULE
ASD06350024
  68   72    0    0    0
SMALL
NO_CHARGES


@<TRIPOS>ATOM
   1 C1             5.4538     2.5925     0.4787 C.3     
   2 O2             4.5012     2.7361    -0.5768 O.3     
   3 C3             4.5433     1.8153    -1.5754 C.ar    
   4 C4             3.6475     1.8945    -2.6318 C.ar    
   5 C5             3.6923     0.9573    -3.6457 C.ar    
   6 C6             4.6288    -0.0592    -3.6082 C.ar    
   7 C7             5.5224    -0.1406    -2.5563 C.ar    
   8 C8             5.4858     0.7978    -1.5431 C.ar    
   9 C9             4.6755    -1.0803    -4.7156 C.3     
  10 N10            5.5809    -0.6164    -5.7697 N.pl3   
  11 C11            5.7863    -1.3940    -6.8986 C.ar    
  12 N12            6.6069    -0.9821    -7.8625 N.ar    
  13 C13            6.8070    -1.7159    -8.9385 C.ar    
  14 N14            6.2110    -2.8782    -9.1091 N.ar    
  15 C15            5.3763    -3.3595    -8.1914 C.ar    
  16 C16            5.1417    -2.6207    -7.0387 C.ar    
  17 O17            4.7676    -4.5563    -8.3763 O.3     
  18 C18            4.9565    -5.1920    -9.5638 C.ar    
  19 C19            3.9832    -5.1243   -10.5487 C.ar    
  20 C20            4.1743    -5.7693   -11.7554 C.ar    
  21 C21            5.3412    -6.4864   -11.9826 C.ar    
  22 C22            6.3170    -6.5550   -10.9965 C.ar    
  23 C23            6.1276    -5.9046    -9.7916 C.ar    
  24 F24            7.0761    -5.9706    -8.8318 F       
  25 N25            5.5341    -7.1408   -13.2052 N.am    
  26 C26            6.7761    -7.2675   -13.7131 C.2     
  27 O27            7.7424    -6.9592   -13.0413 O.2     
  28 C28            6.9632    -7.7785   -15.0793 C.2     
  29 C29            8.2353    -8.1062   -15.5458 C.2     
  30 C30            8.3739    -8.5884   -16.8469 C.2     
  31 C31            7.2814    -8.7329   -17.6402 C.2     
  32 N32            6.0417    -8.4158   -17.1930 N.am    
  33 C33            5.8518    -7.9522   -15.9432 C.2     
  34 O34            4.7292    -7.6727   -15.5588 O.2     
  35 C35            4.9393    -8.5789   -18.0431 C.ar    
  36 C36            4.2502    -9.7836   -18.0635 C.ar    
  37 C37            3.1640    -9.9438   -18.9012 C.ar    
  38 C38            2.7605    -8.9015   -19.7231 C.ar    
  39 C39            3.4476    -7.6961   -19.7047 C.ar    
  40 C40            4.5315    -7.5315   -18.8629 C.ar    
  41 F41            5.2011    -6.3583   -18.8444 F       
  42 O42            1.6914    -9.0613   -20.5473 O.3     
  43 C43            1.3312    -7.9469   -21.3661 C.3     
  44 H44            5.3147     1.6268     0.9647 H       
  45 H45            6.4620     2.6510     0.0686 H       
  46 H46            5.3112     3.3900     1.2078 H       
  47 H47            2.9155     2.6881    -2.6613 H       
  48 H48            2.9949     1.0183    -4.4681 H       
  49 H49            6.2526    -0.9359    -2.5289 H       
  50 H50            6.1840     0.7338    -0.7216 H       
  51 H51            5.0354    -2.0298    -4.3193 H       
  52 H52            3.6756    -1.2144    -5.1284 H       
  53 H53            6.0366     0.2349    -5.6777 H       
  54 H54            7.4788    -1.3538    -9.7027 H       
  55 H55            4.4698    -2.9838    -6.2751 H       
  56 H56            3.0749    -4.5672   -10.3725 H       
  57 H57            3.4156    -5.7160   -12.5221 H       
  58 H58            7.2249    -7.1127   -11.1727 H       
  59 H59            4.7739    -7.5029   -13.6868 H       
  60 H60            9.1000    -7.9881   -14.9097 H       
  61 H61            9.3522    -8.8470   -17.2245 H       
  62 H62            7.4025    -9.1071   -18.6460 H       
  63 H63            4.5637   -10.5958   -17.4244 H       
  64 H64            2.6285   -10.8816   -18.9168 H       
  65 H65            3.1332    -6.8855   -20.3453 H       
  66 H66            2.1668    -7.6891   -22.0168 H       
  67 H67            0.4645    -8.2075   -21.9736 H       
  68 H68            1.0876    -7.0942   -20.7324 H       
@<TRIPOS>BOND
   1    1    2 1
   2    1   44 1
   3    1   45 1
   4    1   46 1
   5    2    3 1
   6    3    4 ar
   7    3    8 ar
   8    4    5 ar
   9    4   47 1
  10    5    6 ar
  11    5   48 1
  12    6    7 ar
  13    6    9 1
  14    7    8 ar
  15    7   49 1
  16    8   50 1
  17    9   10 1
  18    9   51 1
  19    9   52 1
  20   10   11 1
  21   10   53 1
  22   11   12 ar
  23   11   16 ar
  24   12   13 ar
  25   13   14 ar
  26   13   54 1
  27   14   15 ar
  28   15   16 ar
  29   15   17 1
  30   16   55 1
  31   17   18 1
  32   18   19 ar
  33   18   23 ar
  34   19   20 ar
  35   19   56 1
  36   20   21 ar
  37   20   57 1
  38   21   22 ar
  39   21   25 1
  40   22   23 ar
  41   22   58 1
  42   23   24 1
  43   25   26 am
  44   25   59 1
  45   26   27 2
  46   26   28 1
  47   28   29 2
  48   28   33 1
  49   29   30 1
  50   29   60 1
  51   30   31 2
  52   30   61 1
  53   31   32 1
  54   31   62 1
  55   32   33 am
  56   32   35 1
  57   33   34 2
  58   35   36 ar
  59   35   40 ar
  60   36   37 ar
  61   36   63 1
  62   37   38 ar
  63   37   64 1
  64   38   39 ar
  65   38   42 1
  66   39   40 ar
  67   39   65 1
  68   40   41 1
  69   42   43 1
  70   43   66 1
  71   43   67 1
  72   43   68 1

#	End of record

