#	Name: ASD07301110
#	Creating user name:	WinNT
#	Creation time:	15. 06. 2019 21:11

#	Modifying user name:	WinNT
#	Modification time:	15. 06. 2019 21:11

#	Program:	/corina/corina34_cracker 3.40 0067  02.08.2006

@<TRIPOS>MOLECULE
ASD07301110
  49   51    0    0    0
SMALL
NO_CHARGES


@<TRIPOS>ATOM
   1 C1            -0.0178     1.4645     0.0101 C.2     
   2 C2             0.0021    -0.0041     0.0020 C.2     
   3 C3             1.2767    -0.6367    -0.0136 C.2     
   4 C4             2.3782     0.1589    -0.0198 C.2     
   5 N5             2.2579     1.5095    -0.0114 N.pl3   
   6 N6             1.1287     2.1155     0.0026 N.2     
   7 C7            -1.2984     2.1983     0.0202 C.2     
   8 O8            -2.3494     1.5870     0.0218 O.2     
   9 N9            -1.3027     3.5461     0.0275 N.am    
  10 O10           -1.0318    -0.6549     0.0088 O.2     
  11 C11           -2.5738     4.2745     0.0375 C.3     
  12 O12            1.3886    -1.9916    -0.0215 O.3     
  13 C13            2.7108    -2.5334    -0.0370 C.3     
  14 O14           -0.0787     4.2580     0.0256 O.3     
  15 C15            0.4175     4.5573    -1.2807 C.3     
  16 C16            3.4253     2.2803    -0.0179 C.ar    
  17 C17            3.6344     3.2356     0.9729 C.ar    
  18 C18            4.7889     3.9968     0.9649 C.ar    
  19 C19            5.7393     3.8066    -0.0330 C.ar    
  20 C20            5.5282     2.8532    -1.0207 C.ar    
  21 C21            4.3787     2.0887    -1.0098 C.ar    
  22 N22            6.9070     4.5756    -0.0420 N.3     
  23 C23            8.1002     3.7230     0.0611 C.3     
  24 C24            9.3541     4.5983    -0.0124 C.3     
  25 O25            9.3023     5.5845     1.0220 O.3     
  26 C26            8.1532     6.4330     0.9515 C.3     
  27 C27            6.8871     5.5763     1.0349 C.3     
  28 F28            4.9935     4.9247     1.9253 F       
  29 F29            2.7101     3.4192     1.9409 F       
  30 H30            3.3607    -0.2896    -0.0312 H       
  31 H31           -2.8841     4.4495     1.0676 H       
  32 H32           -2.4489     5.2301    -0.4717 H       
  33 H33           -3.3339     3.6857    -0.4759 H       
  34 H34            3.2332    -2.1912    -0.9304 H       
  35 H35            3.2505    -2.2001     0.8494 H       
  36 H36            2.6574    -3.6220    -0.0420 H       
  37 H37            1.3572     5.1032    -1.1961 H       
  38 H38            0.5844     3.6292    -1.8274 H       
  39 H39           -0.3105     5.1678    -1.8148 H       
  40 H40            6.2663     2.7064    -1.7953 H       
  41 H41            4.2183     1.3445    -1.7758 H       
  42 H42            8.0846     3.1886     1.0110 H       
  43 H43            8.1077     3.0066    -0.7603 H       
  44 H44           10.2399     3.9772     0.1209 H       
  45 H45            9.3973     5.0914    -0.9835 H       
  46 H46            8.1704     7.1388     1.7820 H       
  47 H47            8.1615     6.9794     0.0084 H       
  48 H48            6.0091     6.2127     0.9242 H       
  49 H49            6.8521     5.0714     2.0003 H       
@<TRIPOS>BOND
   1    1    2 1
   2    1    6 2
   3    1    7 1
   4    2    3 1
   5    2   10 2
   6    3    4 2
   7    3   12 1
   8    4    5 1
   9    4   30 1
  10    5    6 1
  11    5   16 1
  12    7    8 2
  13    7    9 am
  14    9   11 1
  15    9   14 1
  16   11   31 1
  17   11   32 1
  18   11   33 1
  19   12   13 1
  20   13   34 1
  21   13   35 1
  22   13   36 1
  23   14   15 1
  24   15   37 1
  25   15   38 1
  26   15   39 1
  27   16   17 ar
  28   16   21 ar
  29   17   18 ar
  30   17   29 1
  31   18   19 ar
  32   18   28 1
  33   19   20 ar
  34   19   22 1
  35   20   21 ar
  36   20   40 1
  37   21   41 1
  38   22   23 1
  39   22   27 1
  40   23   24 1
  41   23   42 1
  42   23   43 1
  43   24   25 1
  44   24   44 1
  45   24   45 1
  46   25   26 1
  47   26   27 1
  48   26   46 1
  49   26   47 1
  50   27   48 1
  51   27   49 1

#	End of record

