#	Name: ASD03730638
#	Creating user name:	WinNT
#	Creation time:	15. 06. 2019 20:44

#	Modifying user name:	WinNT
#	Modification time:	15. 06. 2019 20:44

#	Program:	/corina/corina34_cracker 3.40 0067  02.08.2006

@<TRIPOS>MOLECULE
ASD03730638
  57   62    0    0    0
SMALL
NO_CHARGES


@<TRIPOS>ATOM
   1 O1            -0.5403     0.8325     3.4268 O.3     
   2 C2            -0.3634    -0.5862     3.5980 C.3     
   3 O3             0.3818    -0.9810     2.4311 O.3     
   4 C4             1.0848     0.1272     2.0538 C.ar    
   5 C5             0.5160     1.2423     2.6648 C.ar    
   6 C6             2.1828     0.2770     1.2264 C.ar    
   7 C7             2.7253     1.5372     0.9955 C.ar    
   8 C8             2.1427     2.6450     1.6038 C.ar    
   9 C9             1.0514     2.4982     2.4343 C.ar    
  10 O10            3.8013     1.8981     0.2393 O.3     
  11 C11            2.9235     3.8470     1.1436 C.3     
  12 C12            3.7293     3.3084    -0.0464 C.3     
  13 N13            2.3851     6.0369     1.5130 N.am    
  14 C14            2.0311     4.9868     0.7450 C.2     
  15 C15            3.8135     4.3961     2.2187 C.ar    
  16 C16            4.8395     3.8572     2.9823 C.ar    
  17 C17            5.4900     4.6501     3.9273 C.ar    
  18 C18            5.1076     5.9660     4.0962 C.ar    
  19 C19            4.0875     6.5012     3.3362 C.ar    
  20 C20            3.4286     5.7215     2.3871 C.ar    
  21 O21            1.1623     4.9667    -0.1010 O.2     
  22 C22            1.7502     7.3551     1.4391 C.3     
  23 C23            0.5702     7.4080     2.4117 C.3     
  24 C24           -0.0929     8.7847     2.3346 C.3     
  25 C25           -1.2729     8.8375     3.3071 C.3     
  26 C26           -1.9360    10.2142     3.2300 C.3     
  27 C27            5.2427     2.4417     2.7942 C.ar    
  28 C28            4.4512     1.4137     3.3083 C.ar    
  29 C29            4.8314     0.0968     3.1297 C.ar    
  30 C30            5.9939    -0.2028     2.4434 C.ar    
  31 C31            6.7836     0.8135     1.9314 C.ar    
  32 C32            6.4096     2.1339     2.0988 C.ar    
  33 F33            7.9186     0.5137     1.2627 F       
  34 F34            3.3156     1.7052     3.9797 F       
  35 H35            0.2053    -0.7946     4.5042 H       
  36 H36           -1.3285    -1.0920     3.6254 H       
  37 H37            2.6223    -0.5904     0.7564 H       
  38 H38            0.6134     3.3652     2.9062 H       
  39 H39            4.7256     3.7498    -0.0709 H       
  40 H40            3.2023     3.4872    -0.9836 H       
  41 H41            6.2890     4.2366     4.5247 H       
  42 H42            5.6101     6.5807     4.8284 H       
  43 H43            3.7974     7.5318     3.4781 H       
  44 H44            2.4758     8.1234     1.7062 H       
  45 H45            1.3928     7.5299     0.4244 H       
  46 H46           -0.1554     6.6397     2.1446 H       
  47 H47            0.9276     7.2332     3.4264 H       
  48 H48            0.6327     9.5529     2.6016 H       
  49 H49           -0.4503     8.9595     1.3198 H       
  50 H50           -1.9985     8.0693     3.0401 H       
  51 H51           -0.9155     8.6627     4.3219 H       
  52 H52           -2.7766    10.2519     3.9228 H       
  53 H53           -1.2104    10.9825     3.4970 H       
  54 H54           -2.2934    10.3890     2.2152 H       
  55 H55            4.2196    -0.6995     3.5271 H       
  56 H56            6.2874    -1.2331     2.3065 H       
  57 H57            7.0237     2.9254     1.6953 H       
@<TRIPOS>BOND
   1    1    2 1
   2    1    5 1
   3    2    3 1
   4    2   35 1
   5    2   36 1
   6    3    4 1
   7    4    5 ar
   8    4    6 ar
   9    5    9 ar
  10    6    7 ar
  11    6   37 1
  12    7    8 ar
  13    7   10 1
  14    8    9 ar
  15    8   11 1
  16    9   38 1
  17   10   12 1
  18   11   12 1
  19   11   14 1
  20   11   15 1
  21   12   39 1
  22   12   40 1
  23   13   14 am
  24   13   20 1
  25   13   22 1
  26   14   21 2
  27   15   16 ar
  28   15   20 ar
  29   16   17 ar
  30   16   27 1
  31   17   18 ar
  32   17   41 1
  33   18   19 ar
  34   18   42 1
  35   19   20 ar
  36   19   43 1
  37   22   23 1
  38   22   44 1
  39   22   45 1
  40   23   24 1
  41   23   46 1
  42   23   47 1
  43   24   25 1
  44   24   48 1
  45   24   49 1
  46   25   26 1
  47   25   50 1
  48   25   51 1
  49   26   52 1
  50   26   53 1
  51   26   54 1
  52   27   28 ar
  53   27   32 ar
  54   28   29 ar
  55   28   34 1
  56   29   30 ar
  57   29   55 1
  58   30   31 ar
  59   30   56 1
  60   31   32 ar
  61   31   33 1
  62   32   57 1

#	End of record

