#	Name: ASD06770015
#	Creating user name:	WinNT
#	Creation time:	15. 06. 2019 21:08

#	Modifying user name:	WinNT
#	Modification time:	15. 06. 2019 21:08

#	Program:	/corina/corina34_cracker 3.40 0067  02.08.2006

@<TRIPOS>MOLECULE
ASD06770015
  38   39    0    0    0
SMALL
NO_CHARGES


@<TRIPOS>ATOM
   1 C1            -0.0187     1.5258     0.0104 C.3     
   2 C2             0.0021    -0.0041     0.0020 C.3     
   3 C3             0.7421    -0.5109     1.2415 C.3     
   4 C4             2.1775     0.0187     1.2307 C.3     
   5 C5             2.1567     1.5485     1.2391 C.3     
   6 C6             1.4167     2.0553    -0.0004 C.3     
   7 C7            -0.7475     2.0250    -1.2105 C.2     
   8 O8            -1.2053     1.2350    -2.0087 O.2     
   9 N9            -0.8907     3.3494    -1.4153 N.am    
  10 N10           -1.5513     3.8019    -2.5219 N.3     
  11 O11            2.8686    -0.4547     2.3884 O.3     
  12 C12            4.2739    -0.6283     2.1959 C.3     
  13 C13            5.0201    -0.3967     3.5215 C.3     
  14 C14            5.7470    -1.7160     3.8543 C.3     
  15 C15            5.9058    -2.4187     2.4831 C.3     
  16 C16            4.5734    -2.0803     1.7694 C.3     
  17 H17           -0.5289     1.8773     0.9072 H       
  18 H18           -1.0205    -0.3814     0.0098 H       
  19 H19            0.5123    -0.3556    -0.8948 H       
  20 H20            0.2319    -0.1594     2.1383 H       
  21 H21            0.7568    -1.6008     1.2356 H       
  22 H22            2.6876    -0.3328     0.3339 H       
  23 H23            1.6465     1.9000     2.1359 H       
  24 H24            3.1793     1.9258     1.2314 H       
  25 H25            1.9269     1.7038    -0.8972 H       
  26 H26            1.4019     3.1452     0.0056 H       
  27 H27           -0.5245     3.9812    -0.7768 H       
  28 H28           -1.5787     4.8104    -2.5396 H       
  29 H29           -1.1358     3.4366    -3.3657 H       
  30 H30            4.6352     0.0664     1.4376 H       
  31 H31            5.7442     0.4098     3.4063 H       
  32 H32            4.3103    -0.1518     4.3116 H       
  33 H33            6.7234    -1.5131     4.2943 H       
  34 H34            5.1434    -2.3249     4.5274 H       
  35 H35            6.7532    -2.0077     1.9343 H       
  36 H36            6.0128    -3.4958     2.6111 H       
  37 H37            3.7802    -2.7480     2.1058 H       
  38 H38            4.6933    -2.1433     0.6879 H       
@<TRIPOS>BOND
   1    1    2 1
   2    1    6 1
   3    1    7 1
   4    1   17 1
   5    2    3 1
   6    2   18 1
   7    2   19 1
   8    3    4 1
   9    3   20 1
  10    3   21 1
  11    4    5 1
  12    4   11 1
  13    4   22 1
  14    5    6 1
  15    5   23 1
  16    5   24 1
  17    6   25 1
  18    6   26 1
  19    7    8 2
  20    7    9 am
  21    9   10 1
  22    9   27 1
  23   10   28 1
  24   10   29 1
  25   11   12 1
  26   12   13 1
  27   12   16 1
  28   12   30 1
  29   13   14 1
  30   13   31 1
  31   13   32 1
  32   14   15 1
  33   14   33 1
  34   14   34 1
  35   15   16 1
  36   15   35 1
  37   15   36 1
  38   16   37 1
  39   16   38 1

#	End of record

