#	Name: ASD01410701
#	Creating user name:	WinNT
#	Creation time:	15. 06. 2019 19:18

#	Modifying user name:	WinNT
#	Modification time:	15. 06. 2019 19:18

#	Program:	/corina/corina34_cracker 3.40 0067  02.08.2006

@<TRIPOS>MOLECULE
ASD01410701
  84   89    0    0    0
SMALL
NO_CHARGES


@<TRIPOS>ATOM
   1 N1            -0.0203     1.6494     0.0111 N.am    
   2 O2            -3.6532     1.8032     0.0465 O.3     
   3 N3            -5.4225     0.1066    -2.7417 N.am    
   4 S4             0.0021    -0.0041     0.0020 S.o2    
   5 O5            -0.9006    -0.4178    -1.0130 O.2     
   6 N6             1.5274    -0.4906    -0.4706 N.am    
   7 O7            -0.1346    -0.4042     1.3638 O.2     
   8 C8             1.9247    -0.2823    -1.7236 C.2     
   9 O9             3.1064    -0.5995    -1.8626 O.2     
  10 C10            1.3807     0.1753    -2.9649 C.ar    
  11 C11            2.1892     1.0177    -3.7507 C.ar    
  12 C12            1.7745     1.5939    -4.9158 C.ar    
  13 C13            0.4634     1.2989    -5.3223 C.ar    
  14 C14           -0.3317     0.3566    -4.6235 C.ar    
  15 C15            0.1163    -0.2216    -3.4400 C.ar    
  16 C16           -0.3213     1.8118    -6.3664 C.2     
  17 C17           -1.5066     1.1475    -6.3651 C.2     
  18 N18           -1.4902     0.2203    -5.3306 N.pl3   
  19 C19            0.1208     2.9265    -7.2836 C.3     
  20 C20            0.4061     4.1830    -6.4585 C.3     
  21 C21            1.3909     2.5038    -8.0247 C.3     
  22 C22            1.8389     3.6335    -8.9542 C.3     
  23 C23            2.1242     4.8900    -8.1291 C.3     
  24 C24            0.8541     5.3127    -7.3880 C.3     
  25 C25           -2.6358     1.3502    -7.2894 C.ar    
  26 C26           -3.9693     1.2282    -6.8793 C.ar    
  27 C27           -4.3641     0.8495    -5.5302 C.2     
  28 C28           -3.8323    -0.0132    -4.7001 C.2     
  29 C29           -2.5537    -0.7492    -5.0724 C.3     
  30 C30           -4.3659    -0.3989    -3.4091 C.2     
  31 O31           -3.7749    -1.3409    -2.8345 O.2     
  32 C32           -2.3535     1.6287    -8.6361 C.ar    
  33 C33           -3.3648     1.8567    -9.5444 C.ar    
  34 C34           -4.6882     1.7751    -9.1338 C.ar    
  35 C35           -4.9935     1.4623    -7.8229 C.ar    
  36 O36           -5.6944     1.9962   -10.0220 O.3     
  37 C37           -5.3177     2.3087   -11.3646 C.3     
  38 C38           -4.1548     0.7107    -0.7467 C.3     
  39 C39           -5.0663     1.2540    -1.8508 C.3     
  40 C40           -2.3962     1.5029     0.6628 C.3     
  41 C41           -1.3026     2.3568     0.0333 C.3     
  42 C42            1.2302     2.4135     0.0033 C.3     
  43 C43           -6.7896    -0.4090    -2.7853 C.3     
  44 C44           -5.5405     1.6509    -5.0445 C.3     
  45 H45            2.1265    -0.9302     0.1667 H       
  46 H46            3.1944     1.2209    -3.4100 H       
  47 H47            2.4233     2.2357    -5.4927 H       
  48 H48           -0.4755    -0.9697    -2.9331 H       
  49 H49           -0.6680     3.1374    -8.0057 H       
  50 H50           -0.4987     4.4842    -5.9306 H       
  51 H51            1.1949     3.9722    -5.7364 H       
  52 H52            2.1797     2.2930    -7.3026 H       
  53 H53            1.1877     1.6087    -8.6125 H       
  54 H54            2.7437     3.3323    -9.4821 H       
  55 H55            1.0501     3.8443    -9.6762 H       
  56 H56            2.9130     4.6791    -7.4070 H       
  57 H57            2.4434     5.6948    -8.7913 H       
  58 H58            0.0653     5.5235    -8.1101 H       
  59 H59            1.0574     6.2078    -6.8002 H       
  60 H60           -2.7532    -1.3334    -5.9679 H       
  61 H61           -2.2690    -1.4026    -4.2522 H       
  62 H62           -1.3343     1.6405    -8.9944 H       
  63 H63           -3.1258     2.0933   -10.5710 H       
  64 H64           -6.0316     1.3889    -7.5409 H       
  65 H65           -4.7163     3.2178   -11.3709 H       
  66 H66           -4.7362     1.4855   -11.7797 H       
  67 H67           -6.2131     2.4612   -11.9671 H       
  68 H68           -3.3140     0.1823    -1.1923 H       
  69 H69           -4.7165     0.0293    -0.1067 H       
  70 H70           -4.5453     2.0168    -2.4218 H       
  71 H71           -5.9751     1.6619    -1.4099 H       
  72 H72           -2.4544     1.7144     1.7299 H       
  73 H73           -2.1734     0.4491     0.5173 H       
  74 H74           -1.1908     3.2750     0.6167 H       
  75 H75           -1.5900     2.6243    -0.9822 H       
  76 H76            2.0760     1.7260    -0.0085 H       
  77 H77            1.2639     3.0462    -0.8837 H       
  78 H78            1.2809     3.0366     0.8962 H       
  79 H79           -6.8305    -1.2749    -3.4461 H       
  80 H80           -7.0994    -0.7025    -1.7823 H       
  81 H81           -7.4584     0.3659    -3.1599 H       
  82 H82           -5.8472     2.3526    -5.8201 H       
  83 H83           -6.3676     0.9792    -4.8144 H       
  84 H84           -5.2592     2.2016    -4.1469 H       
@<TRIPOS>BOND
   1    1    4 am
   2    1   42 1
   3    1   41 1
   4    2   38 1
   5    2   40 1
   6    3   30 am
   7    3   43 1
   8    3   39 1
   9    4    5 2
  10    4    6 am
  11    4    7 2
  12    6    8 am
  13    6   45 1
  14    8    9 2
  15    8   10 1
  16   10   11 ar
  17   10   15 ar
  18   11   12 ar
  19   11   46 1
  20   12   13 ar
  21   12   47 1
  22   13   14 ar
  23   13   16 1
  24   14   15 ar
  25   14   18 1
  26   15   48 1
  27   16   17 2
  28   16   19 1
  29   17   18 1
  30   17   25 1
  31   18   29 1
  32   19   20 1
  33   19   21 1
  34   19   49 1
  35   20   24 1
  36   20   50 1
  37   20   51 1
  38   21   22 1
  39   21   52 1
  40   21   53 1
  41   22   23 1
  42   22   54 1
  43   22   55 1
  44   23   24 1
  45   23   56 1
  46   23   57 1
  47   24   58 1
  48   24   59 1
  49   25   26 ar
  50   25   32 ar
  51   26   27 1
  52   26   35 ar
  53   27   28 2
  54   27   44 1
  55   28   29 1
  56   28   30 1
  57   29   60 1
  58   29   61 1
  59   30   31 2
  60   32   33 ar
  61   32   62 1
  62   33   34 ar
  63   33   63 1
  64   34   35 ar
  65   34   36 1
  66   35   64 1
  67   36   37 1
  68   37   65 1
  69   37   66 1
  70   37   67 1
  71   38   39 1
  72   38   68 1
  73   38   69 1
  74   39   70 1
  75   39   71 1
  76   40   41 1
  77   40   72 1
  78   40   73 1
  79   41   74 1
  80   41   75 1
  81   42   76 1
  82   42   77 1
  83   42   78 1
  84   43   79 1
  85   43   80 1
  86   43   81 1
  87   44   82 1
  88   44   83 1
  89   44   84 1

#	End of record

