#	Name: ASD01148409
#	Creating user name:	WinNT
#	Creation time:	15. 06. 2019 19:02

#	Modifying user name:	WinNT
#	Modification time:	15. 06. 2019 19:02

#	Program:	/corina/corina34_cracker 3.40 0067  02.08.2006

@<TRIPOS>MOLECULE
ASD01148409
  55   58    0    0    0
SMALL
NO_CHARGES


@<TRIPOS>ATOM
   1 C1             0.3634     1.8415     0.0684 C.ar    
   2 C2             0.4620     0.4626    -0.0065 C.ar    
   3 C3            -0.6844    -0.3085    -0.0938 C.ar    
   4 C4            -1.9270     0.2994    -0.1060 C.ar    
   5 C5            -2.0242     1.6763    -0.0316 C.ar    
   6 C6            -0.8804     2.4469     0.0618 C.ar    
   7 C7            -3.3784     2.3374    -0.0460 C.3     
   8 O8            -4.3712     1.4938     0.5723 O.3     
   9 C9            -3.3989     3.5779     0.8786 C.3     
  10 C10           -3.9263     3.0089     2.1820 C.2     
  11 N11           -4.4468     1.8531     1.9377 N.2     
  12 C12           -3.8561     3.6639     3.5030 C.ar    
  13 C13           -4.3836     3.0255     4.6285 C.ar    
  14 C14           -3.2570     4.9197     3.6290 C.ar    
  15 C15           -3.1916     5.5305     4.8611 C.ar    
  16 C16           -3.7241     4.8949     5.9849 C.ar    
  17 C17           -4.3181     3.6365     5.8601 C.ar    
  18 C18           -3.6534     5.5506     7.3076 C.2     
  19 O19           -4.2130     5.0512     8.2643 O.2     
  20 N20           -2.9684     6.7022     7.4531 N.am    
  21 C21           -4.8926     2.9508     7.0728 C.3     
  22 C22           -3.7877     2.7097    -1.4725 C.3     
  23 F23           -3.8271     1.5558    -2.2625 F       
  24 F24           -5.0533     3.3056    -1.4539 F       
  25 F25           -2.8570     3.6081    -2.0052 F       
  26 Cl26          -0.5627    -2.0376    -0.1883 Cl      
  27 Cl27           2.0220    -0.2988     0.0084 Cl      
  28 Cl28           1.8000     2.8100     0.1778 Cl      
  29 N29           -2.9013     7.3237     8.7069 N.pl3   
  30 C30           -2.0356     6.7725     9.7523 C.3     
  31 C31           -3.6598     8.4689     8.9601 C.ar    
  32 C32           -3.5945     9.0864    10.2027 C.ar    
  33 C33           -4.3455    10.2188    10.4496 C.ar    
  34 C34           -5.1618    10.7381     9.4615 C.ar    
  35 C35           -5.2295    10.1255     8.2235 C.ar    
  36 C36           -4.4768     8.9961     7.9681 C.ar    
  37 H37           -2.8215    -0.3020    -0.1741 H       
  38 H38           -0.9575     3.5225     0.1203 H       
  39 H39           -2.3941     3.9792     1.0101 H       
  40 H40           -4.0732     4.3403     0.4883 H       
  41 H41           -4.8431     2.0529     4.5319 H       
  42 H42           -2.8449     5.4111     2.7600 H       
  43 H43           -2.7282     6.5012     4.9586 H       
  44 H44           -2.5219     7.1006     6.6897 H       
  45 H45           -5.9000     3.3238     7.2580 H       
  46 H46           -4.9296     1.8754     6.8988 H       
  47 H47           -4.2639     3.1573     7.9389 H       
  48 H48           -1.0457     7.2228     9.6791 H       
  49 H49           -2.4630     6.9916    10.7308 H       
  50 H50           -1.9541     5.6931     9.6248 H       
  51 H51           -2.9575     8.6812    10.9749 H       
  52 H52           -4.2954    10.6992    11.4155 H       
  53 H53           -5.7480    11.6238     9.6571 H       
  54 H54           -5.8683    10.5334     7.4541 H       
  55 H55           -4.5302     8.5182     7.0010 H       
@<TRIPOS>BOND
   1    1    2 ar
   2    1   28 1
   3    1    6 ar
   4    2    3 ar
   5    2   27 1
   6    3    4 ar
   7    3   26 1
   8    4    5 ar
   9    4   37 1
  10    5    6 ar
  11    5    7 1
  12    6   38 1
  13    7    8 1
  14    7    9 1
  15    7   22 1
  16    8   11 1
  17    9   10 1
  18    9   39 1
  19    9   40 1
  20   10   11 2
  21   10   12 1
  22   12   13 ar
  23   12   14 ar
  24   13   17 ar
  25   13   41 1
  26   14   15 ar
  27   14   42 1
  28   15   16 ar
  29   15   43 1
  30   16   17 ar
  31   16   18 1
  32   17   21 1
  33   18   19 2
  34   18   20 am
  35   20   29 1
  36   20   44 1
  37   21   45 1
  38   21   46 1
  39   21   47 1
  40   22   23 1
  41   22   24 1
  42   22   25 1
  43   29   30 1
  44   29   31 1
  45   30   48 1
  46   30   49 1
  47   30   50 1
  48   31   32 ar
  49   31   36 ar
  50   32   33 ar
  51   32   51 1
  52   33   34 ar
  53   33   52 1
  54   34   35 ar
  55   34   53 1
  56   35   36 ar
  57   35   54 1
  58   36   55 1

#	End of record

