#	Name: ASD01913688
#	Creating user name:	WinNT
#	Creation time:	15. 06. 2019 20:02

#	Modifying user name:	WinNT
#	Modification time:	15. 06. 2019 20:02

#	Program:	/corina/corina34_cracker 3.40 0067  02.08.2006

@<TRIPOS>MOLECULE
ASD01913688
  50   51    0    0    0
SMALL
NO_CHARGES


@<TRIPOS>ATOM
   1 C1            -1.2378     1.3455     0.0832 C.ar    
   2 C2            -0.9887    -0.1408     0.0792 C.3     
   3 O3            -0.4946    -0.5444     1.3579 O.3     
   4 C4            -0.2179    -1.8605     1.5230 C.ar    
   5 N5            -0.4119    -2.6993     0.5171 N.ar    
   6 C6            -0.1580    -3.9865     0.6282 C.ar    
   7 C7             0.3291    -4.5143     1.8244 C.ar    
   8 C8             0.5457    -3.6524     2.9098 C.ar    
   9 C9             0.2715    -2.3103     2.7457 C.ar    
  10 C10            0.6118    -5.9579     1.9461 C.2     
  11 N11            0.9634    -6.4776     3.1389 N.am    
  12 O12            0.5274    -6.6783     0.9703 O.2     
  13 C13            1.2439    -7.9104     3.2597 C.3     
  14 C14            1.6166    -8.2368     4.7073 C.3     
  15 C15            1.9096    -9.7332     4.8334 C.3     
  16 C16            3.0726   -10.1047     3.9112 C.3     
  17 C17            2.2823   -10.0596     6.2810 C.3     
  18 C18            0.6670   -10.5316     4.4343 C.3     
  19 C19           -0.2307     2.2154    -0.2886 C.ar    
  20 C20           -0.4598     3.5811    -0.2849 C.ar    
  21 C21           -1.6979     4.0732     0.0915 C.ar    
  22 C22           -2.7037     3.2010     0.4631 C.ar    
  23 C23           -2.4756     1.8378     0.4535 C.ar    
  24 F24            0.5242     4.4327    -0.6479 F       
  25 C25           -0.3963    -4.8984    -0.5477 C.3     
  26 H26           -1.9209    -0.6648    -0.1320 H       
  27 H27           -0.2534    -0.3840    -0.6877 H       
  28 H28            0.9219    -4.0294     3.8493 H       
  29 H29            0.4268    -1.6178     3.5598 H       
  30 H30            1.0306    -5.9028     3.9174 H       
  31 H31            0.3587    -8.4792     2.9753 H       
  32 H32            2.0724    -8.1750     2.6027 H       
  33 H33            2.5019    -7.6680     4.9916 H       
  34 H34            0.7881    -7.9721     5.3643 H       
  35 H35            3.9578    -9.5358     4.1956 H       
  36 H36            3.2813   -11.1707     4.0011 H       
  37 H37            2.8070    -9.8721     2.8799 H       
  38 H38            1.4539    -9.7949     6.9380 H       
  39 H39            2.4911   -11.1256     6.3709 H       
  40 H40            3.1676    -9.4908     6.5654 H       
  41 H41            0.4015   -10.2990     3.4030 H       
  42 H42            0.8758   -11.5976     4.5241 H       
  43 H43           -0.1614   -10.2669     5.0913 H       
  44 H44            0.7348     1.8305    -0.5818 H       
  45 H45           -1.8776     5.1381     0.0951 H       
  46 H46           -3.6696     3.5847     0.7568 H       
  47 H47           -3.2623     1.1570     0.7436 H       
  48 H48            0.5401    -5.0520    -1.0840 H       
  49 H49           -0.7734    -5.8576    -0.1930 H       
  50 H50           -1.1280    -4.4452    -1.2165 H       
@<TRIPOS>BOND
   1    1    2 1
   2    1   19 ar
   3    1   23 ar
   4    2    3 1
   5    2   26 1
   6    2   27 1
   7    3    4 1
   8    4    5 ar
   9    4    9 ar
  10    5    6 ar
  11    6    7 ar
  12    6   25 1
  13    7    8 ar
  14    7   10 1
  15    8    9 ar
  16    8   28 1
  17    9   29 1
  18   10   11 am
  19   10   12 2
  20   11   13 1
  21   11   30 1
  22   13   14 1
  23   13   31 1
  24   13   32 1
  25   14   15 1
  26   14   33 1
  27   14   34 1
  28   15   16 1
  29   15   17 1
  30   15   18 1
  31   16   35 1
  32   16   36 1
  33   16   37 1
  34   17   38 1
  35   17   39 1
  36   17   40 1
  37   18   41 1
  38   18   42 1
  39   18   43 1
  40   19   20 ar
  41   19   44 1
  42   20   21 ar
  43   20   24 1
  44   21   22 ar
  45   21   45 1
  46   22   23 ar
  47   22   46 1
  48   23   47 1
  49   25   48 1
  50   25   49 1
  51   25   50 1

#	End of record

