#	Name: ASD02030347
#	Creating user name:	WinNT
#	Creation time:	15. 06. 2019 20:15

#	Modifying user name:	WinNT
#	Modification time:	15. 06. 2019 20:15

#	Program:	/corina/corina34_cracker 3.40 0067  02.08.2006

@<TRIPOS>MOLECULE
ASD02030347
  37   39    0    0    0
SMALL
NO_CHARGES


@<TRIPOS>ATOM
   1 N1            -0.1552     1.4579     0.2497 N.am    
   2 C2            -0.1293    -0.0117     0.1948 C.3     
   3 C3            -1.2555    -0.5518     1.0826 C.3     
   4 N4            -2.5282     0.0624     0.6816 N.3     
   5 C5            -2.5069     1.5165     0.8893 C.3     
   6 C6            -1.4334     2.1412    -0.0003 C.3     
   7 C7             0.9616     2.1595     0.5273 C.2     
   8 O8             0.9490     3.3733     0.4611 O.2     
   9 C9             2.2019     1.4531     0.9122 C.2     
  10 N10            3.3855     2.0027     1.0788 N.2     
  11 N11            2.3179     0.1354     1.1595 N.2     
  12 C12            3.5691    -0.0939     1.4670 C.2     
  13 N13            4.2247     1.0836     1.4124 N.pl3   
  14 C14            5.5882     1.2750     1.6735 C.ar    
  15 C15            6.1423     2.5444     1.5818 C.ar    
  16 C16            7.4877     2.7299     1.8405 C.ar    
  17 C17            8.2810     1.6514     2.1904 C.ar    
  18 C18            7.7308     0.3860     2.2822 C.ar    
  19 C19            6.3864     0.1958     2.0300 C.ar    
  20 Cl20           8.1824     4.3166     1.7258 Cl      
  21 C21           -1.2960     3.6293     0.3277 C.3     
  22 H22           -0.2822    -0.3425    -0.8324 H       
  23 H23            0.8312    -0.3749     0.5603 H       
  24 H24           -1.3217    -1.6338     0.9681 H       
  25 H25           -1.0462    -0.3081     2.1242 H       
  26 H26           -2.7525    -0.1628    -0.2760 H       
  27 H27           -3.4808     1.9346     0.6346 H       
  28 H28           -2.2802     1.7315     1.9336 H       
  29 H29           -1.7087     2.0181    -1.0478 H       
  30 H30            3.9984    -1.0519     1.7209 H       
  31 H31            5.5233     3.3860     1.3084 H       
  32 H32            9.3319     1.7981     2.3918 H       
  33 H33            8.3524    -0.4538     2.5555 H       
  34 H34            5.9577    -0.7928     2.1020 H       
  35 H35           -0.8881     3.7438     1.3320 H       
  36 H36           -0.6264     4.0997    -0.3923 H       
  37 H37           -2.2757     4.1044     0.2770 H       
@<TRIPOS>BOND
   1    1    2 1
   2    1    7 am
   3    1    6 1
   4    2    3 1
   5    2   22 1
   6    2   23 1
   7    3    4 1
   8    3   24 1
   9    3   25 1
  10    4    5 1
  11    4   26 1
  12    5    6 1
  13    5   27 1
  14    5   28 1
  15    6   21 1
  16    6   29 1
  17    7    8 2
  18    7    9 1
  19    9   10 2
  20    9   11 1
  21   10   13 1
  22   11   12 2
  23   12   13 1
  24   12   30 1
  25   13   14 1
  26   14   15 ar
  27   14   19 ar
  28   15   16 ar
  29   15   31 1
  30   16   17 ar
  31   16   20 1
  32   17   18 ar
  33   17   32 1
  34   18   19 ar
  35   18   33 1
  36   19   34 1
  37   21   35 1
  38   21   36 1
  39   21   37 1

#	End of record

