#	Name: ASD07930130
#	Creating user name:	WinNT
#	Creation time:	15. 06. 2019 21:11

#	Modifying user name:	WinNT
#	Modification time:	15. 06. 2019 21:11

#	Program:	/corina/corina34_cracker 3.40 0067  02.08.2006

@<TRIPOS>MOLECULE
ASD07930130
  59   62    0    0    0
SMALL
NO_CHARGES


@<TRIPOS>ATOM
   1 C1            -0.6319     0.7379     0.4534 C.2     
   2 C2            -0.3297    -0.6992     0.2722 C.2     
   3 N3             0.4164     1.6257     0.5428 N.am    
   4 N4             0.8918    -1.1563     0.6380 N.am    
   5 C5             1.8509    -0.2137     1.2314 C.3     
   6 C6             1.7869     1.1052     0.4469 C.3     
   7 C7            -1.9214     1.1674     0.5240 C.2     
   8 C8            -2.2122     2.5262     0.6974 C.2     
   9 C9            -1.1875     3.4269     0.7975 C.2     
  10 C10            0.1917     2.9402     0.7127 C.2     
  11 O11           -1.1605    -1.4540    -0.1950 O.2     
  12 O12            1.1260     3.7192     0.7954 O.2     
  13 C13           -1.1383     5.5397     2.0597 C.2     
  14 N14           -1.5445     6.7623     1.8513 N.2     
  15 C15           -2.1230     6.8390     0.6433 C.2     
  16 C16           -2.0763     5.6186     0.0763 C.2     
  17 N17           -1.4518     4.7884     0.9715 N.pl3   
  18 C18           -2.7220     8.0771     0.0275 C.3     
  19 C19            1.2503    -2.5637     0.4455 C.3     
  20 C20            1.7647    -2.7684    -0.9808 C.3     
  21 O21            3.0042    -2.0761    -1.1441 O.3     
  22 C22            4.1329    -2.7349    -0.7699 C.ar    
  23 C23            5.3777    -2.1725    -1.0124 C.ar    
  24 C24            6.5238    -2.8426    -0.6312 C.ar    
  25 C25            6.4307    -4.0756    -0.0077 C.ar    
  26 C26            5.1892    -4.6379     0.2350 C.ar    
  27 C27            4.0410    -3.9671    -0.1401 C.ar    
  28 Si28           5.5038    -0.5099    -1.8547 Si      
  29 C29            5.4092     0.8424    -0.5767 C.3     
  30 C30            7.1271    -0.3947    -2.7616 C.3     
  31 C31            4.1010    -0.3192    -3.0657 C.3     
  32 F32            7.5525    -4.7304     0.3638 F       
  33 H33            1.5893    -0.0328     2.2740 H       
  34 H34            2.8572    -0.6280     1.1698 H       
  35 H35            2.0401     0.9250    -0.5978 H       
  36 H36            2.4846     1.8238     0.8770 H       
  37 H37           -2.7280     0.4535     0.4450 H       
  38 H38           -3.2377     2.8605     0.7514 H       
  39 H39           -0.6337     5.1855     2.9464 H       
  40 H40           -2.4576     5.3459    -0.8967 H       
  41 H41           -1.9577     8.6059    -0.5420 H       
  42 H42           -3.5389     7.7939    -0.6363 H       
  43 H43           -3.1028     8.7269     0.8154 H       
  44 H44            2.0292    -2.8406     1.1559 H       
  45 H45            0.3716    -3.1879     0.6080 H       
  46 H46            1.9160    -3.8323    -1.1633 H       
  47 H47            1.0346    -2.3783    -1.6899 H       
  48 H48            7.4930    -2.4050    -0.8199 H       
  49 H49            5.1180    -5.5996     0.7214 H       
  50 H50            3.0724    -4.4041     0.0530 H       
  51 H51            6.2299     0.7308     0.1318 H       
  52 H52            5.4828     1.8125    -1.0682 H       
  53 H53            4.4594     0.7750    -0.0461 H       
  54 H54            7.1825    -1.1859    -3.5093 H       
  55 H55            7.2007     0.5754    -3.2530 H       
  56 H56            7.9479    -0.5063    -2.0530 H       
  57 H57            3.1515    -0.3714    -2.5329 H       
  58 H58            4.1832     0.6445    -3.5681 H       
  59 H59            4.1475    -1.1193    -3.8045 H       
@<TRIPOS>BOND
   1    1    2 1
   2    1    3 1
   3    1    7 2
   4    2    4 am
   5    2   11 2
   6    3    6 1
   7    3   10 am
   8    4    5 1
   9    4   19 1
  10    5    6 1
  11    5   33 1
  12    5   34 1
  13    6   35 1
  14    6   36 1
  15    7    8 1
  16    7   37 1
  17    8    9 2
  18    8   38 1
  19    9   10 1
  20    9   17 1
  21   10   12 2
  22   13   14 2
  23   13   17 1
  24   13   39 1
  25   14   15 1
  26   15   16 2
  27   15   18 1
  28   16   17 1
  29   16   40 1
  30   18   41 1
  31   18   42 1
  32   18   43 1
  33   19   20 1
  34   19   44 1
  35   19   45 1
  36   20   21 1
  37   20   46 1
  38   20   47 1
  39   21   22 1
  40   22   23 ar
  41   22   27 ar
  42   23   24 ar
  43   23   28 1
  44   24   25 ar
  45   24   48 1
  46   25   26 ar
  47   25   32 1
  48   26   27 ar
  49   26   49 1
  50   27   50 1
  51   28   29 1
  52   28   30 1
  53   28   31 1
  54   29   51 1
  55   29   52 1
  56   29   53 1
  57   30   54 1
  58   30   55 1
  59   30   56 1
  60   31   57 1
  61   31   58 1
  62   31   59 1

#	End of record

