#	Name: ASD02500227
#	Creating user name:	WinNT
#	Creation time:	15. 06. 2019 20:22

#	Modifying user name:	WinNT
#	Modification time:	15. 06. 2019 20:22

#	Program:	/corina/corina34_cracker 3.40 0067  02.08.2006

@<TRIPOS>MOLECULE
ASD02500227
  56   60    0    0    0
SMALL
NO_CHARGES


@<TRIPOS>ATOM
   1 N1            -3.3307     5.6213    -0.1542 N.ar    
   2 C2            -4.4459     6.2729    -0.3776 C.ar    
   3 C3            -5.5721     6.0953     0.4234 C.ar    
   4 C4            -5.5311     5.2227     1.4732 C.ar    
   5 C5            -4.3319     4.5243     1.7099 C.ar    
   6 C6            -4.2143     3.6117     2.7702 C.ar    
   7 C7            -3.0370     2.9561     2.9664 C.ar    
   8 C8            -1.9464     3.1792     2.1287 C.ar    
   9 C9            -2.0255     4.0569     1.0914 C.ar    
  10 C10           -3.2238     4.7529     0.8566 C.ar    
  11 S11           -0.6305     4.3204     0.0477 S.o2    
  12 O12           -0.4445     5.7273    -0.0258 O.2     
  13 O13            0.3790     3.4252     0.4935 O.2     
  14 N14           -1.0563     3.8248    -1.4740 N.am    
  15 C15           -1.2798     2.4749    -1.7292 C.ar    
  16 C16           -0.9685     1.9423    -2.9794 C.ar    
  17 C17           -1.1889     0.6066    -3.2341 C.ar    
  18 C18           -1.7253    -0.2140    -2.2368 C.ar    
  19 C19           -2.0359     0.3240    -0.9851 C.ar    
  20 C20           -1.8081     1.6586    -0.7345 C.ar    
  21 C21           -1.9633    -1.6449    -2.5059 C.2     
  22 O22           -1.6854    -2.4764    -1.6633 O.2     
  23 N23           -2.4887    -2.0304    -3.6856 N.am    
  24 C24           -2.8172    -3.4414    -3.9326 C.3     
  25 C25           -4.2915    -3.5365    -4.3445 C.3     
  26 N26           -4.5467    -2.5534    -5.4067 N.am    
  27 C27           -4.2182    -1.1424    -5.1596 C.3     
  28 C28           -2.7491    -1.0465    -4.7457 C.3     
  29 C29           -5.0722    -2.9390    -6.5864 C.2     
  30 O30           -5.3508    -2.1072    -7.4289 O.2     
  31 S31           -5.8688    -6.5359    -7.9627 S.3     
  32 C32           -5.3953    -6.5216    -6.3220 C.2     
  33 N33           -5.1497    -5.3202    -5.9330 N.2     
  34 C34           -5.3090    -4.3674    -6.8553 C.2     
  35 C35           -5.7074    -4.8368    -8.0590 C.2     
  36 F36           -0.4507     2.7367    -3.9418 F       
  37 H37           -4.4930     6.9663    -1.2044 H       
  38 H38           -6.4765     6.6473     0.2144 H       
  39 H39           -6.3945     5.0730     2.1045 H       
  40 H40           -5.0526     3.4309     3.4267 H       
  41 H41           -2.9475     2.2542     3.7823 H       
  42 H42           -1.0232     2.6473     2.3054 H       
  43 H43           -1.1499     4.4753    -2.1874 H       
  44 H44           -0.9481     0.1938    -4.2026 H       
  45 H45           -2.4502    -0.3077    -0.2133 H       
  46 H46           -2.0438     2.0731     0.2346 H       
  47 H47           -2.1878    -3.8287    -4.7339 H       
  48 H48           -2.6534    -4.0198    -3.0234 H       
  49 H49           -4.5038    -4.5392    -4.7154 H       
  50 H50           -4.9261    -3.3197    -3.4852 H       
  51 H51           -4.3821    -0.5640    -6.0689 H       
  52 H52           -4.8476    -0.7552    -4.3584 H       
  53 H53           -2.5403    -0.0436    -4.3733 H       
  54 H54           -2.1148    -1.2593    -5.6062 H       
  55 H55           -5.3139    -7.3991    -5.6976 H       
  56 H56           -5.8933    -4.2367    -8.9375 H       
@<TRIPOS>BOND
   1    1    2 ar
   2    1   10 ar
   3    2    3 ar
   4    2   37 1
   5    3    4 ar
   6    3   38 1
   7    4    5 ar
   8    4   39 1
   9    5    6 ar
  10    5   10 ar
  11    6    7 ar
  12    6   40 1
  13    7    8 ar
  14    7   41 1
  15    8    9 ar
  16    8   42 1
  17    9   10 ar
  18    9   11 1
  19   11   12 2
  20   11   13 2
  21   11   14 am
  22   14   15 1
  23   14   43 1
  24   15   16 ar
  25   15   20 ar
  26   16   17 ar
  27   16   36 1
  28   17   18 ar
  29   17   44 1
  30   18   19 ar
  31   18   21 1
  32   19   20 ar
  33   19   45 1
  34   20   46 1
  35   21   22 2
  36   21   23 am
  37   23   24 1
  38   23   28 1
  39   24   25 1
  40   24   47 1
  41   24   48 1
  42   25   26 1
  43   25   49 1
  44   25   50 1
  45   26   27 1
  46   26   29 am
  47   27   28 1
  48   27   51 1
  49   27   52 1
  50   28   53 1
  51   28   54 1
  52   29   30 2
  53   29   34 1
  54   31   32 1
  55   31   35 1
  56   32   33 2
  57   32   55 1
  58   33   34 1
  59   34   35 2
  60   35   56 1

#	End of record

