#	Name: ASD01800002
#	Creating user name:	WinNT
#	Creation time:	15. 06. 2019 19:23

#	Modifying user name:	WinNT
#	Modification time:	15. 06. 2019 19:23

#	Program:	/corina/corina34_cracker 3.40 0067  02.08.2006

@<TRIPOS>MOLECULE
ASD01800002
  33   35    0    0    0
SMALL
NO_CHARGES


@<TRIPOS>ATOM
   1 C1            -0.0168     1.3874     0.0097 C.ar    
   2 C2             0.0021    -0.0041     0.0020 C.ar    
   3 C3             1.2187    -0.6828    -0.0132 C.ar    
   4 C4             2.4094     0.0265    -0.0203 C.ar    
   5 C5             2.3939     1.4124    -0.0123 C.ar    
   6 C6             1.1804     2.0967     0.0020 C.ar    
   7 C7             1.1647     3.5807     0.0107 C.ar    
   8 C8            -1.2725    -0.7643     0.0106 C.ar    
   9 C9             2.3623     4.2927     0.0044 C.ar    
  10 C10            2.3418     5.6727     0.0120 C.ar    
  11 C11            1.1352     6.3489     0.0258 C.ar    
  12 C12           -0.0567     5.6471     0.0325 C.ar    
  13 C13           -0.0479     4.2670     0.0192 C.ar    
  14 C14           -1.2557    -2.1574     0.0030 C.ar    
  15 C15           -2.4440    -2.8594     0.0115 C.ar    
  16 C16           -3.6501    -2.1824     0.0276 C.ar    
  17 C17           -3.6726    -0.7994     0.0347 C.ar    
  18 C18           -2.4902    -0.0874     0.0321 C.ar    
  19 O19            3.5947    -0.6383    -0.0348 O.3     
  20 H20           -0.9587     1.9157     0.0170 H       
  21 H21            1.2340    -1.7626    -0.0192 H       
  22 H22            3.3234     1.9623    -0.0171 H       
  23 H23            3.3049     3.7657    -0.0059 H       
  24 H24            3.2695     6.2256     0.0076 H       
  25 H25            1.1237     7.4289     0.0317 H       
  26 H26           -0.9960     6.1801     0.0436 H       
  27 H27           -0.9791     3.7200     0.0244 H       
  28 H28           -0.3146    -2.6871    -0.0100 H       
  29 H29           -2.4322    -3.9394     0.0052 H       
  30 H30           -4.5776    -2.7356     0.0342 H       
  31 H31           -4.6170    -0.2757     0.0470 H       
  32 H32           -2.5088     0.9924     0.0377 H       
  33 H33            3.9296    -0.8260    -0.9223 H       
@<TRIPOS>BOND
   1    1    2 ar
   2    1    6 ar
   3    1   20 1
   4    2    3 ar
   5    2    8 1
   6    3    4 ar
   7    3   21 1
   8    4    5 ar
   9    4   19 1
  10    5    6 ar
  11    5   22 1
  12    6    7 1
  13    7    9 ar
  14    7   13 ar
  15    8   14 ar
  16    8   18 ar
  17    9   10 ar
  18    9   23 1
  19   10   11 ar
  20   10   24 1
  21   11   12 ar
  22   11   25 1
  23   12   13 ar
  24   12   26 1
  25   13   27 1
  26   14   15 ar
  27   14   28 1
  28   15   16 ar
  29   15   29 1
  30   16   17 ar
  31   16   30 1
  32   17   18 ar
  33   17   31 1
  34   18   32 1
  35   19   33 1

#	End of record

