#	Name: ASD01916064
#	Creating user name:	WinNT
#	Creation time:	15. 06. 2019 20:06

#	Modifying user name:	WinNT
#	Modification time:	15. 06. 2019 20:06

#	Program:	/corina/corina34_cracker 3.40 0067  02.08.2006

@<TRIPOS>MOLECULE
ASD01916064
  45   47    0    0    0
SMALL
NO_CHARGES


@<TRIPOS>ATOM
   1 C1            -0.0169     1.3968     0.0097 C.ar    
   2 C2             0.0021    -0.0041     0.0020 C.ar    
   3 N3            -1.1459    -0.6583     0.0095 N.ar    
   4 C4            -2.2953    -0.0124     0.0240 C.ar    
   5 C5            -3.5770    -0.8051     0.0320 C.3     
   6 C6             1.2009     2.1501     0.0021 C.1     
   7 C7             2.1994     2.7676    -0.0041 C.1     
   8 C8             3.4172     3.5209    -0.0117 C.ar    
   9 C9             3.3788     4.9177    -0.0038 C.ar    
  10 C10            5.8186     3.5948    -0.0285 C.ar    
  11 C11            4.5559     5.6365    -0.0112 C.ar    
  12 N12           -2.3598     1.3046     0.0321 N.ar    
  13 C13           -1.2618     2.0396     0.0192 C.ar    
  14 C14            4.6498     2.8626    -0.0212 C.ar    
  15 C15            5.7727     4.9778    -0.0269 C.ar    
  16 C16           -4.3771    -0.4653     1.2919 C.3     
  17 C17           -4.3807    -0.4664    -1.1905 C.2     
  18 N18           -5.7000    -0.2730    -1.1739 N.am    
  19 C19           -6.5176    -0.3188     0.0319 C.3     
  20 C20           -5.7827    -1.0613     1.1488 C.3     
  21 O21           -3.7987    -0.3628    -2.2495 O.2     
  22 C22           -6.3695     0.0034    -2.4473 C.3     
  23 C23           -6.8243     1.1086     0.4895 C.3     
  24 C24           -7.8316    -1.0400    -0.2752 C.3     
  25 H25            0.9395    -0.5403    -0.0102 H       
  26 H26           -3.3441    -1.8699     0.0272 H       
  27 H27            2.4298     5.4331     0.0077 H       
  28 H28            6.7720     3.0874    -0.0408 H       
  29 H29            4.5278     6.7161    -0.0052 H       
  30 H30           -1.3228     3.1178     0.0263 H       
  31 H31            4.6871     1.7833    -0.0225 H       
  32 H32            6.6912     5.5459    -0.0327 H       
  33 H33           -3.8847    -0.8923     2.1656 H       
  34 H34           -4.4467     0.6169     1.4017 H       
  35 H35           -5.7082    -2.1192     0.8972 H       
  36 H36           -6.3268    -0.9433     2.0859 H       
  37 H37           -5.6338     0.0060    -3.2515 H       
  38 H38           -7.1158    -0.7673    -2.6402 H       
  39 H39           -6.8571     0.9770    -2.3977 H       
  40 H40           -7.3644     1.6344    -0.2978 H       
  41 H41           -7.4358     1.0776     1.3913 H       
  42 H42           -5.8911     1.6307     0.7010 H       
  43 H43           -7.6191    -2.0551    -0.6107 H       
  44 H44           -8.4453    -1.0759     0.6248 H       
  45 H45           -8.3664    -0.5029    -1.0585 H       
@<TRIPOS>BOND
   1    1    2 ar
   2    1    6 1
   3    1   13 ar
   4    2    3 ar
   5    2   25 1
   6    3    4 ar
   7    4   12 ar
   8    4    5 1
   9    5   16 1
  10    5   17 1
  11    5   26 1
  12    6    7 3
  13    7    8 1
  14    8    9 ar
  15    8   14 ar
  16    9   11 ar
  17    9   27 1
  18   10   15 ar
  19   10   14 ar
  20   10   28 1
  21   11   15 ar
  22   11   29 1
  23   12   13 ar
  24   13   30 1
  25   14   31 1
  26   15   32 1
  27   16   20 1
  28   16   33 1
  29   16   34 1
  30   17   18 am
  31   17   21 2
  32   18   19 1
  33   18   22 1
  34   19   20 1
  35   19   23 1
  36   19   24 1
  37   20   35 1
  38   20   36 1
  39   22   37 1
  40   22   38 1
  41   22   39 1
  42   23   40 1
  43   23   41 1
  44   23   42 1
  45   24   43 1
  46   24   44 1
  47   24   45 1

#	End of record

