#	Name: ASD01881327
#	Creating user name:	WinNT
#	Creation time:	15. 06. 2019 19:42

#	Modifying user name:	WinNT
#	Modification time:	15. 06. 2019 19:42

#	Program:	/corina/corina34_cracker 3.40 0067  02.08.2006

@<TRIPOS>MOLECULE
ASD01881327
  60   61    0    0    0
SMALL
NO_CHARGES


@<TRIPOS>ATOM
   1 C1            -0.0180     1.4732     0.0101 C.2     
   2 C2             0.0021    -0.0041     0.0020 C.ar    
   3 C3             1.2187    -0.6881    -0.0133 C.ar    
   4 C4             1.2294    -2.0724    -0.0209 C.ar    
   5 C5             0.0327    -2.7768    -0.0133 C.ar    
   6 C6            -1.1732    -2.1008     0.0019 C.ar    
   7 C7            -1.1958    -0.7211     0.0154 C.ar    
   8 O8             1.0256     2.0948     0.0035 O.2     
   9 O9            -1.1936     2.1308     0.0193 O.3     
  10 C10            0.0486    -4.2836    -0.0221 C.3     
  11 O11            2.4118    -2.7424    -0.0362 O.3     
  12 C12            3.6039    -1.9544    -0.0438 C.3     
  13 C13            4.8246    -2.8766    -0.0608 C.3     
  14 C14            6.1010    -2.0330    -0.0689 C.3     
  15 C15            7.3218    -2.9551    -0.0860 C.3     
  16 O16            8.5139    -2.1672    -0.0936 O.3     
  17 C17            9.6942    -2.8360    -0.1089 C.ar    
  18 C18           10.8883    -2.1289    -0.1169 C.ar    
  19 C19           12.0934    -2.8090    -0.1325 C.ar    
  20 C20           12.0973    -4.2158    -0.1402 C.ar    
  21 C21           10.8816    -4.9129    -0.1319 C.ar    
  22 C22            9.7013    -4.2283    -0.1107 C.ar    
  23 C23           13.3658    -4.9483    -0.1572 C.2     
  24 C24           13.3656    -6.4553    -0.1653 C.3     
  25 C25           14.8080    -6.9654    -0.1829 C.3     
  26 C26           15.5055    -6.5677     1.1195 C.3     
  27 O27           14.4166    -4.3417    -0.1647 O.2     
  28 C28           14.8084    -8.4895    -0.3169 C.3     
  29 C29           10.8727    -0.6220    -0.1091 C.3     
  30 O30           13.2634    -2.1235    -0.1409 O.3     
  31 H31            2.1488    -0.1391    -0.0195 H       
  32 H32           -2.1005    -2.6544     0.0077 H       
  33 H33           -2.1395    -0.1963     0.0321 H       
  34 H34           -1.1561     3.0971     0.0244 H       
  35 H35            0.0624    -4.6528     1.0034 H       
  36 H36           -0.8425    -4.6534    -0.5294 H       
  37 H37            0.9373    -4.6346    -0.5466 H       
  38 H38            3.6149    -1.3206    -0.9305 H       
  39 H39            3.6325    -1.3303     0.8494 H       
  40 H40            4.8137    -3.5104     0.8259 H       
  41 H41            4.7960    -3.5008    -0.9540 H       
  42 H42            6.1120    -1.3992    -0.9557 H       
  43 H43            6.1296    -1.4088     0.8242 H       
  44 H44            7.3108    -3.5889     0.8007 H       
  45 H45            7.2931    -3.5793    -0.9791 H       
  46 H46           10.8789    -5.9929    -0.1377 H       
  47 H47            8.7670    -4.7699    -0.0996 H       
  48 H48           12.8609    -6.8234     0.7279 H       
  49 H49           12.8426    -6.8138    -1.0519 H       
  50 H50           15.3384    -6.5262    -1.0279 H       
  51 H51           15.5052    -5.4819     1.2149 H       
  52 H52           14.9751    -7.0068     1.9644 H       
  53 H53           16.5331    -6.9311     1.1069 H       
  54 H54           14.3114    -8.7728    -1.2447 H       
  55 H55           15.8359    -8.8529    -0.3294 H       
  56 H56           14.2780    -8.9286     0.5281 H       
  57 H57           10.8789    -0.2639     0.9204 H       
  58 H58           11.7538    -0.2468    -0.6296 H       
  59 H59            9.9740    -0.2654    -0.6124 H       
  60 H60           13.6117    -1.9292     0.7401 H       
@<TRIPOS>BOND
   1    1    2 1
   2    1    8 2
   3    1    9 1
   4    2    3 ar
   5    2    7 ar
   6    3    4 ar
   7    3   31 1
   8    4    5 ar
   9    4   11 1
  10    5    6 ar
  11    5   10 1
  12    6    7 ar
  13    6   32 1
  14    7   33 1
  15    9   34 1
  16   10   35 1
  17   10   36 1
  18   10   37 1
  19   11   12 1
  20   12   13 1
  21   12   38 1
  22   12   39 1
  23   13   14 1
  24   13   40 1
  25   13   41 1
  26   14   15 1
  27   14   42 1
  28   14   43 1
  29   15   16 1
  30   15   44 1
  31   15   45 1
  32   16   17 1
  33   17   18 ar
  34   17   22 ar
  35   18   19 ar
  36   18   29 1
  37   19   20 ar
  38   19   30 1
  39   20   21 ar
  40   20   23 1
  41   21   22 ar
  42   21   46 1
  43   22   47 1
  44   23   24 1
  45   23   27 2
  46   24   25 1
  47   24   48 1
  48   24   49 1
  49   25   26 1
  50   25   28 1
  51   25   50 1
  52   26   51 1
  53   26   52 1
  54   26   53 1
  55   28   54 1
  56   28   55 1
  57   28   56 1
  58   29   57 1
  59   29   58 1
  60   29   59 1
  61   30   60 1

#	End of record

