#	Name: ASD01884620
#	Creating user name:	WinNT
#	Creation time:	15. 06. 2019 19:48

#	Modifying user name:	WinNT
#	Modification time:	15. 06. 2019 19:48

#	Program:	/corina/corina34_cracker 3.40 0067  02.08.2006

@<TRIPOS>MOLECULE
ASD01884620
  65   68    0    0    0
SMALL
NO_CHARGES


@<TRIPOS>ATOM
   1 C1            -0.1220     1.9931     0.4581 C.2     
   2 C2            -0.3329     0.6167     0.4381 C.2     
   3 C3            -1.6225     0.1274     0.6502 C.2     
   4 C4            -2.6493     0.9864     0.8714 C.2     
   5 N5            -2.4517     2.3269     0.8922 N.am    
   6 C6            -1.2265     2.8514     0.6992 C.2     
   7 O7            -1.0682     4.0599     0.7217 O.2     
   8 C8            -3.5880     3.2195     1.1340 C.3     
   9 C9             1.1872     2.5328     0.2450 C.1     
  10 N10            2.2258     2.9609     0.0760 N.1     
  11 C11            0.8135    -0.3296     0.1907 C.3     
  12 N12            1.3561    -0.7882     1.4765 N.3     
  13 C13            2.3126    -1.8869     1.2827 C.3     
  14 C14            2.9129    -2.2815     2.6342 C.3     
  15 N15            1.8341    -2.6813     3.5485 N.3     
  16 C16            0.8776    -1.5825     3.7423 C.3     
  17 C17            0.2773    -1.1880     2.3908 C.3     
  18 N18            2.3711    -3.1352     4.8212 N.3     
  19 C19           -3.7286     3.4705     2.6367 C.3     
  20 O20           -2.5826     4.1807     3.1103 O.3     
  21 C21           -2.5491     4.4854     4.4343 C.ar    
  22 C22           -1.4663     5.1738     4.9617 C.ar    
  23 C23           -1.4347     5.4822     6.3079 C.ar    
  24 C24           -2.4811     5.1054     7.1295 C.ar    
  25 C25           -3.5612     4.4188     6.6063 C.ar    
  26 C26           -3.6004     4.1134     5.2596 C.ar    
  27 C27            1.3097    -3.6872     5.6736 C.3     
  28 C28            3.4470    -4.1148     4.6192 C.3     
  29 C29            0.7114    -4.9001     5.0088 C.ar    
  30 C30            1.2148    -6.1579     5.2836 C.ar    
  31 C31            0.6660    -7.2704     4.6738 C.ar    
  32 C32           -0.3866    -7.1253     3.7895 C.ar    
  33 C33           -0.8906    -5.8676     3.5154 C.ar    
  34 C34           -0.3446    -4.7555     4.1285 C.ar    
  35 H35           -1.8037    -0.9373     0.6380 H       
  36 H36           -3.6426     0.5945     1.0334 H       
  37 H37           -3.4213     4.1669     0.6214 H       
  38 H38           -4.4999     2.7573     0.7559 H       
  39 H39            0.4597    -1.1875    -0.3810 H       
  40 H40            1.5941     0.1841    -0.3705 H       
  41 H41            1.7983    -2.7445     0.8490 H       
  42 H42            3.1083    -1.5624     0.6122 H       
  43 H43            3.6010    -3.1156     2.4969 H       
  44 H44            3.4503    -1.4318     3.0553 H       
  45 H45            0.0819    -1.9071     4.4128 H       
  46 H46            1.3919    -0.7250     4.1760 H       
  47 H47           -0.4108    -0.3539     2.5282 H       
  48 H48           -0.2601    -2.0376     1.9697 H       
  49 H49           -4.6252     4.0614     2.8240 H       
  50 H50           -3.8063     2.5168     3.1587 H       
  51 H51           -0.6486     5.4680     4.3205 H       
  52 H52           -0.5918     6.0178     6.7191 H       
  53 H53           -2.4545     5.3474     8.1817 H       
  54 H54           -4.3769     4.1249     7.2501 H       
  55 H55           -4.4443     3.5771     4.8514 H       
  56 H56            1.7297    -3.9717     6.6384 H       
  57 H57            0.5350    -2.9350     5.8222 H       
  58 H58            4.2516    -3.6573     4.0436 H       
  59 H59            3.8308    -4.4377     5.5870 H       
  60 H60            3.0570    -4.9763     4.0773 H       
  61 H61            2.0371    -6.2713     5.9745 H       
  62 H62            1.0598    -8.2530     4.8880 H       
  63 H63           -0.8149    -7.9944     3.3125 H       
  64 H64           -1.7127    -5.7542     2.8242 H       
  65 H65           -0.7384    -3.7729     3.9144 H       
@<TRIPOS>BOND
   1    1    2 2
   2    1    9 1
   3    1    6 1
   4    2    3 1
   5    2   11 1
   6    3    4 2
   7    3   35 1
   8    4    5 1
   9    4   36 1
  10    5    8 1
  11    5    6 am
  12    6    7 2
  13    8   19 1
  14    8   37 1
  15    8   38 1
  16    9   10 3
  17   11   12 1
  18   11   39 1
  19   11   40 1
  20   12   13 1
  21   12   17 1
  22   13   14 1
  23   13   41 1
  24   13   42 1
  25   14   15 1
  26   14   43 1
  27   14   44 1
  28   15   16 1
  29   15   18 1
  30   16   17 1
  31   16   45 1
  32   16   46 1
  33   17   47 1
  34   17   48 1
  35   18   27 1
  36   18   28 1
  37   19   20 1
  38   19   49 1
  39   19   50 1
  40   20   21 1
  41   21   22 ar
  42   21   26 ar
  43   22   23 ar
  44   22   51 1
  45   23   24 ar
  46   23   52 1
  47   24   25 ar
  48   24   53 1
  49   25   26 ar
  50   25   54 1
  51   26   55 1
  52   27   29 1
  53   27   56 1
  54   27   57 1
  55   28   58 1
  56   28   59 1
  57   28   60 1
  58   29   30 ar
  59   29   34 ar
  60   30   31 ar
  61   30   61 1
  62   31   32 ar
  63   31   62 1
  64   32   33 ar
  65   32   63 1
  66   33   34 ar
  67   33   64 1
  68   34   65 1

#	End of record

