#	Name: ASD00910006
#	Creating user name:	WinNT
#	Creation time:	15. 06. 2019 18:53

#	Modifying user name:	WinNT
#	Modification time:	15. 06. 2019 18:53

#	Program:	/corina/corina34_cracker 3.40 0067  02.08.2006

@<TRIPOS>MOLECULE
ASD00910006
  52   51    0    0    0
SMALL
NO_CHARGES


@<TRIPOS>ATOM
   1 N1            -0.0178     1.4648     0.0101 N.3     
   2 C2             0.0021    -0.0041     0.0020 C.3     
   3 C3             0.8136    -0.5019     1.1702 C.2     
   4 O4             0.4935    -1.5189     1.7385 O.2     
   5 O5             1.8920     0.1846     1.5794 O.3     
   6 C6             0.6299    -0.4984    -1.3027 C.3     
   7 C7             2.0609     0.0316    -1.4130 C.3     
   8 C8             2.6888    -0.4627    -2.7177 C.3     
   9 C9             4.1198     0.0673    -2.8280 C.3     
  10 N10            4.7226    -0.4073    -4.0807 N.3     
  11 C11           -1.4289    -0.5341     0.1123 C.3     
  12 C12           -2.0987     0.0601     1.3530 C.3     
  13 C13           -3.5297    -0.4700     1.4632 C.3     
  14 N14           -4.2533    -0.1895     0.2159 N.3     
  15 C15           -4.2399     0.2182     2.6306 C.3     
  16 C16           -5.6709    -0.3118     2.7409 C.3     
  17 C17           -6.3812     0.3764     3.9083 C.3     
  18 C18           -7.8122    -0.1537     4.0186 C.3     
  19 N19           -8.4941     0.5071     5.1395 N.3     
  20 C20           -3.4974    -1.9577     1.7016 C.2     
  21 O21           -2.5287    -2.4664     2.2142 O.2     
  22 O22           -4.5446    -2.7175     1.3444 O.3     
  23 H23            0.9191     1.8392     0.0032 H       
  24 H24           -0.5563     1.8234    -0.7642 H       
  25 H25            2.3808    -0.1739     2.3328 H       
  26 H26            0.6447    -1.5883    -1.3087 H       
  27 H27            2.0461     1.1215    -1.4070 H       
  28 H28            2.7036    -1.5526    -2.7237 H       
  29 H29            2.1018    -0.1027    -3.5627 H       
  30 H30            4.1050     1.1572    -2.8220 H       
  31 H31            4.7067    -0.2927    -1.9831 H       
  32 H32            4.1612    -0.1411    -4.8758 H       
  33 H33            5.6688    -0.0704    -4.1771 H       
  34 H34           -1.9917    -0.2485    -0.7764 H       
  35 H35           -1.5359    -0.2256     2.2417 H       
  36 H36           -4.2888     0.8022     0.0337 H       
  37 H37           -3.8414    -0.6853    -0.5603 H       
  38 H38           -3.7031     0.0101     3.5561 H       
  39 H39           -4.2633     1.2943     2.4582 H       
  40 H40           -6.2078    -0.1037     1.8154 H       
  41 H41           -5.8443     0.1683     4.8338 H       
  42 H42           -8.3491     0.0544     3.0931 H       
  43 H43           -7.7888    -1.2297     4.1910 H       
  44 H44           -9.4418     0.1738     5.2333 H       
  45 H45           -7.9804     0.3830     5.9990 H       
  46 H46           -4.4777    -3.6666     1.5173 H       
  47 H47            0.0430    -0.1384    -2.1477 H       
  48 H48            2.6479    -0.3284    -0.5681 H       
  49 H49           -1.4085    -1.6207     0.1957 H       
  50 H50           -2.1192     1.1467     1.2695 H       
  51 H51           -5.6475    -1.3879     2.9133 H       
  52 H52           -6.4046     1.4524     3.7359 H       
@<TRIPOS>BOND
   1    1    2 1
   2    1   23 1
   3    1   24 1
   4    2   11 1
   5    2    3 1
   6    2    6 1
   7    3    4 2
   8    3    5 1
   9    5   25 1
  10    6   26 1
  11    6   47 1
  12    6    7 1
  13    7   27 1
  14    7   48 1
  15    7    8 1
  16    8   28 1
  17    8   29 1
  18    8    9 1
  19    9   30 1
  20    9   31 1
  21    9   10 1
  22   10   32 1
  23   10   33 1
  24   11   12 1
  25   11   34 1
  26   11   49 1
  27   12   13 1
  28   12   35 1
  29   12   50 1
  30   13   14 1
  31   13   15 1
  32   13   20 1
  33   14   36 1
  34   14   37 1
  35   15   16 1
  36   15   38 1
  37   15   39 1
  38   16   17 1
  39   16   40 1
  40   16   51 1
  41   17   18 1
  42   17   41 1
  43   17   52 1
  44   18   19 1
  45   18   42 1
  46   18   43 1
  47   19   44 1
  48   19   45 1
  49   20   21 2
  50   20   22 1
  51   22   46 1

#	End of record

