#	Name: ASD01811298
#	Creating user name:	WinNT
#	Creation time:	15. 06. 2019 19:26

#	Modifying user name:	WinNT
#	Modification time:	15. 06. 2019 19:26

#	Program:	/corina/corina34_cracker 3.40 0067  02.08.2006

@<TRIPOS>MOLECULE
ASD01811298
  52   55    0    0    0
SMALL
NO_CHARGES


@<TRIPOS>ATOM
   1 C1            -0.7556    -0.0048     0.7745 C.1     
   2 C2            -0.6548     1.4186     0.6541 C.ar    
   3 C3             0.5966     2.0249     0.5275 C.ar    
   4 C4             0.6864     3.3966     0.4119 C.ar    
   5 C5            -0.4599     4.1713     0.4217 C.ar    
   6 C6            -1.7032     3.5772     0.5472 C.ar    
   7 C7            -1.8079     2.2060     0.6569 C.ar    
   8 N8            -0.8355    -1.1339     0.8700 N.1     
   9 N9            -1.4185     8.2859     0.1539 N.am    
  10 C10           -0.9750     7.6499    -1.0941 C.3     
  11 C11           -1.1140     6.1311    -0.9500 C.3     
  12 C12           -0.3539     5.6693     0.2955 C.3     
  13 C13           -0.9571     6.3296     1.5374 C.3     
  14 C14           -0.8164     7.8506     1.4214 C.3     
  15 C15           -2.3558     9.2542     0.1357 C.2     
  16 C16           -2.8599     9.7712    -1.1546 C.ar    
  17 C17           -4.2191    10.0381    -1.3186 C.ar    
  18 C18           -4.6842    10.5226    -2.5315 C.ar    
  19 C19           -3.7966    10.7408    -3.5791 C.ar    
  20 C20           -2.4499    10.4762    -3.4164 C.ar    
  21 C21           -1.9762     9.9991    -2.2109 C.ar    
  22 O22           -2.7868     9.7026     1.1801 O.2     
  23 C23           -4.3047    11.2670    -4.8967 C.3     
  24 N24           -6.0456    10.7913    -2.7012 N.pl3   
  25 C25           -6.9508    10.4332    -1.7148 C.2     
  26 N26           -6.6491     9.9125    -0.5489 N.2     
  27 C27           -7.7783     9.6952     0.1459 C.2     
  28 C28           -8.8198    10.0910    -0.6058 C.2     
  29 N29           -8.3027    10.5674    -1.7888 N.pl3   
  30 H30            1.4922     1.4214     0.5204 H       
  31 H31            1.6537     3.8668     0.3140 H       
  32 H32           -2.5939     4.1879     0.5545 H       
  33 H33           -2.7793     1.7431     0.7499 H       
  34 H34           -1.5946     7.9966    -1.9212 H       
  35 H35            0.0676     7.9051    -1.2839 H       
  36 H36           -2.1676     5.8700    -0.8509 H       
  37 H37           -0.6989     5.6425    -1.8315 H       
  38 H38            0.6948     5.9529     0.2069 H       
  39 H39           -2.0122     6.0665     1.6131 H       
  40 H40           -0.4304     5.9822     2.4262 H       
  41 H41            0.2391     8.1221     1.4368 H       
  42 H42           -1.3313     8.3297     2.2541 H       
  43 H43           -4.9069     9.8676    -0.5036 H       
  44 H44           -1.7653    10.6473    -4.2339 H       
  45 H45           -0.9224     9.7982    -2.0862 H       
  46 H46           -4.2779    12.3566    -4.8874 H       
  47 H47           -3.6740    10.8949    -5.7041 H       
  48 H48           -5.3296    10.9300    -5.0516 H       
  49 H49           -6.3566    11.2284    -3.5094 H       
  50 H50           -7.8388     9.2740     1.1386 H       
  51 H51           -9.8636    10.0476    -0.3318 H       
  52 H52           -8.8066    10.9281    -2.5349 H       
@<TRIPOS>BOND
   1    1    2 1
   2    1    8 3
   3    2    3 ar
   4    2    7 ar
   5    3    4 ar
   6    3   30 1
   7    4    5 ar
   8    4   31 1
   9    5    6 ar
  10    5   12 1
  11    6    7 ar
  12    6   32 1
  13    7   33 1
  14    9   10 1
  15    9   14 1
  16    9   15 am
  17   10   11 1
  18   10   34 1
  19   10   35 1
  20   11   12 1
  21   11   36 1
  22   11   37 1
  23   12   13 1
  24   12   38 1
  25   13   14 1
  26   13   39 1
  27   13   40 1
  28   14   41 1
  29   14   42 1
  30   15   16 1
  31   15   22 2
  32   16   17 ar
  33   16   21 ar
  34   17   18 ar
  35   17   43 1
  36   18   19 ar
  37   18   24 1
  38   19   20 ar
  39   19   23 1
  40   20   21 ar
  41   20   44 1
  42   21   45 1
  43   23   46 1
  44   23   47 1
  45   23   48 1
  46   24   25 1
  47   24   49 1
  48   25   26 2
  49   25   29 1
  50   26   27 1
  51   27   28 2
  52   27   50 1
  53   28   29 1
  54   28   51 1
  55   29   52 1

#	End of record

