#	Name: ASD03090020
#	Creating user name:	WinNT
#	Creation time:	15. 06. 2019 20:28

#	Modifying user name:	WinNT
#	Modification time:	15. 06. 2019 20:28

#	Program:	/corina/corina34_cracker 3.40 0067  02.08.2006

@<TRIPOS>MOLECULE
ASD03090020
  51   54    0    0    0
SMALL
NO_CHARGES


@<TRIPOS>ATOM
   1 C1            -0.0169     1.3914     0.0097 C.ar    
   2 C2             0.0021    -0.0041     0.0020 C.ar    
   3 C3             1.2368    -0.6634    -0.0133 C.ar    
   4 C4             2.3894     0.1027    -0.0202 C.ar    
   5 C5             2.2856     1.4819    -0.0118 C.ar    
   6 N6             1.1076     2.0763     0.0026 N.ar    
   7 C7            -1.2606    -0.7730     0.0104 C.2     
   8 O8            -1.2322    -1.9882     0.0036 O.2     
   9 N9            -2.4431    -0.1266     0.0256 N.am    
  10 C10            3.5384     2.3195    -0.0192 C.3     
  11 F11            3.9135     2.5857    -1.3404 F       
  12 F12            3.2975     3.5247     0.6491 F       
  13 F13            4.5671     1.6255     0.6268 F       
  14 C14           -3.6944    -0.8886     0.0339 C.3     
  15 N15           -8.0647     2.6721    -0.1984 N.pl3   
  16 C16           -8.2057     2.7837    -1.5546 C.2     
  17 C17           -7.2828     2.0302    -2.1732 C.2     
  18 C18           -6.4868     1.3843    -1.1263 C.ar    
  19 C19           -5.4034     0.5016    -1.1374 C.ar    
  20 C20           -4.8623     0.0636     0.0506 C.ar    
  21 C21           -5.3834     0.4912     1.2616 C.ar    
  22 C22           -6.4601     1.3684     1.2961 C.ar    
  23 C23           -7.0227     1.8239     0.0956 C.ar    
  24 C24           -9.2428     3.6270    -2.2506 C.3     
  25 F25           -8.7306     4.9105    -2.4684 F       
  26 F26           -9.5725     3.0419    -3.4779 F       
  27 F27          -10.3881     3.7113    -1.4515 F       
  28 C28           -8.3126     1.4729     2.9776 C.ar    
  29 C29           -7.0108     1.8210     2.5958 C.ar    
  30 C30           -6.2410     2.6008     3.4599 C.ar    
  31 C31           -6.8011     2.9983     4.6637 C.ar    
  32 C32           -8.0924     2.6152     4.9705 C.ar    
  33 N33           -8.8013     1.8775     4.1365 N.ar    
  34 O34           -9.0788     0.7204     2.1494 O.3     
  35 C35          -10.3972     0.4000     2.5980 C.3     
  36 H36           -0.9620     1.9140     0.0170 H       
  37 H37            1.2887    -1.7421    -0.0192 H       
  38 H38            3.3597    -0.3714    -0.0316 H       
  39 H39           -2.4658     0.8431     0.0310 H       
  40 H40           -3.7463    -1.5116    -0.8590 H       
  41 H41           -3.7286    -1.5212     0.9209 H       
  42 H42           -8.6150     3.1268     0.4582 H       
  43 H43           -7.1522     1.9205    -3.2396 H       
  44 H44           -4.9914     0.1631    -2.0766 H       
  45 H45           -4.9493     0.1393     2.1858 H       
  46 H46           -5.2333     2.8872     3.1973 H       
  47 H47           -6.2329     3.6020     5.3559 H       
  48 H48           -8.5293     2.9247     5.9085 H       
  49 H49          -10.9010    -0.2040     1.8433 H       
  50 H50          -10.3374    -0.1601     3.5311 H       
  51 H51          -10.9589     1.3197     2.7616 H       
@<TRIPOS>BOND
   1    1    2 ar
   2    1    6 ar
   3    1   36 1
   4    2    3 ar
   5    2    7 1
   6    3    4 ar
   7    3   37 1
   8    4    5 ar
   9    4   38 1
  10    5    6 ar
  11    5   10 1
  12    7    8 2
  13    7    9 am
  14    9   14 1
  15    9   39 1
  16   10   11 1
  17   10   12 1
  18   10   13 1
  19   14   20 1
  20   14   40 1
  21   14   41 1
  22   15   16 1
  23   15   23 1
  24   15   42 1
  25   16   17 2
  26   16   24 1
  27   17   18 1
  28   17   43 1
  29   18   19 ar
  30   18   23 ar
  31   19   20 ar
  32   19   44 1
  33   20   21 ar
  34   21   22 ar
  35   21   45 1
  36   22   23 ar
  37   22   29 1
  38   24   25 1
  39   24   26 1
  40   24   27 1
  41   28   29 ar
  42   28   33 ar
  43   28   34 1
  44   29   30 ar
  45   30   31 ar
  46   30   46 1
  47   31   32 ar
  48   31   47 1
  49   32   33 ar
  50   32   48 1
  51   34   35 1
  52   35   49 1
  53   35   50 1
  54   35   51 1

#	End of record

