#	Name: ASD01120130
#	Creating user name:	WinNT
#	Creation time:	15. 06. 2019 18:59

#	Modifying user name:	WinNT
#	Modification time:	15. 06. 2019 18:59

#	Program:	/corina/corina34_cracker 3.40 0067  02.08.2006

@<TRIPOS>MOLECULE
ASD01120130
  22   23    0    0    0
SMALL
NO_CHARGES


@<TRIPOS>ATOM
   1 N1            -0.0167     1.3813     0.0096 N.pl3   
   2 C2             0.0021    -0.0041     0.0020 C.2     
   3 N3             1.0712    -0.7389    -0.0121 N.2     
   4 C4             0.8936    -2.0592    -0.0175 C.2     
   5 C5            -0.3868    -2.4666    -0.0075 C.2     
   6 S6            -1.4213    -1.0406     0.0177 S.3     
   7 C7             2.0297    -3.0126    -0.0340 C.ar    
   8 C8             3.3446    -2.5365    -0.0439 C.ar    
   9 C9             4.4007    -3.4314    -0.0588 C.ar    
  10 C10            4.1537    -4.7963    -0.0638 C.ar    
  11 C11            2.8484    -5.2697    -0.0544 C.ar    
  12 C12            1.7900    -4.3851    -0.0337 C.ar    
  13 O13            5.1923    -5.6727    -0.0783 O.3     
  14 O14            3.5849    -1.1992    -0.0395 O.3     
  15 H15            0.8166     1.8776     0.0043 H       
  16 H16           -0.8633     1.8548     0.0162 H       
  17 H17           -0.7240    -3.4926    -0.0098 H       
  18 H18            5.4172    -3.0667    -0.0668 H       
  19 H19            2.6613    -6.3334    -0.0590 H       
  20 H20            0.7758    -4.7563    -0.0264 H       
  21 H21            5.5013    -5.9311     0.8008 H       
  22 H22            3.6627    -0.8165     0.8452 H       
@<TRIPOS>BOND
   1    1    2 1
   2    1   15 1
   3    1   16 1
   4    2    3 2
   5    2    6 1
   6    3    4 1
   7    4    5 2
   8    4    7 1
   9    5    6 1
  10    5   17 1
  11    7    8 ar
  12    7   12 ar
  13    8    9 ar
  14    8   14 1
  15    9   10 ar
  16    9   18 1
  17   10   11 ar
  18   10   13 1
  19   11   12 ar
  20   11   19 1
  21   12   20 1
  22   13   21 1
  23   14   22 1

#	End of record

