#	Name: ASD01814274
#	Creating user name:	WinNT
#	Creation time:	15. 06. 2019 19:32

#	Modifying user name:	WinNT
#	Modification time:	15. 06. 2019 19:32

#	Program:	/corina/corina34_cracker 3.40 0067  02.08.2006

@<TRIPOS>MOLECULE
ASD01814274
  61   66    0    0    0
SMALL
NO_CHARGES


@<TRIPOS>ATOM
   1 N1            -0.3151     2.0480     2.1453 N.2     
   2 C2            -0.3899     0.9574     2.8710 C.2     
   3 C3             0.7045     0.5485     3.6485 C.2     
   4 C4             1.8398     1.2902     3.6432 C.2     
   5 N5             1.8909     2.4210     2.8789 N.pl3   
   6 C6             0.8012     2.7885     2.1324 C.2     
   7 N7             2.8915     3.3749     2.6662 N.2     
   8 C8             2.4404     4.2869     1.8287 C.2     
   9 C9             1.1432     3.9613     1.4697 C.2     
  10 C10            2.8335     5.5597     1.1199 C.3     
  11 N11            1.6915     5.9887     0.3066 N.am    
  12 C12            0.6253     5.0031     0.5117 C.3     
  13 C13            1.6329     7.0815    -0.4801 C.2     
  14 O14            0.6559     7.2770    -1.1773 O.2     
  15 C15            2.7530     8.0398    -0.4954 C.ar    
  16 C16            2.5074     9.4134    -0.3541 C.ar    
  17 C17            4.0654     7.5836    -0.6448 C.ar    
  18 C18            5.1082     8.4829    -0.6579 C.ar    
  19 C19            4.8617     9.8422    -0.5232 C.ar    
  20 C20            3.5669    10.3059    -0.3692 C.ar    
  21 O21            1.2375     9.8662    -0.2036 O.3     
  22 Cl22           0.6056    -0.8941     4.6091 Cl      
  23 F23            5.8915    10.7166    -0.5368 F       
  24 C24           -1.6565     0.1408     2.8700 C.3     
  25 C25            3.0287     0.8727     4.4698 C.3     
  26 C26            1.0492    11.2827    -0.2070 C.3     
  27 C27           -0.2245    11.6254    -0.9851 C.3     
  28 C28            0.9247    11.7835     1.2348 C.3     
  29 C29           -1.4381    11.0715    -0.2216 C.3     
  30 C30           -0.3669    11.2189     1.8478 C.3     
  31 C31           -1.1247     9.6083     0.1672 C.3     
  32 C32           -0.4169     9.7057     1.5347 C.3     
  33 N33           -1.5054    11.7889     1.0793 N.3     
  34 C34           -2.7817    11.5289     1.7585 C.3     
  35 F35            0.8781     9.1829     1.4510 F       
  36 H36            3.0760     6.3302     1.8517 H       
  37 H37            3.6949     5.3742     0.4783 H       
  38 H38            0.3663     4.5354    -0.4382 H       
  39 H39           -0.2521     5.4914     0.9357 H       
  40 H40            4.2616     6.5268    -0.7497 H       
  41 H41            6.1221     8.1291    -0.7732 H       
  42 H42            3.3822    11.3644    -0.2611 H       
  43 H43           -2.3902     0.6091     2.2139 H       
  44 H44           -1.4396    -0.8658     2.5124 H       
  45 H45           -2.0558     0.0883     3.8828 H       
  46 H46            2.7939    -0.0473     5.0052 H       
  47 H47            3.8846     0.7045     3.8162 H       
  48 H48            3.2674     1.6589     5.1860 H       
  49 H49            1.9049    11.7611    -0.6835 H       
  50 H50           -0.3150    12.7076    -1.0789 H       
  51 H51           -0.1794    11.1738    -1.9762 H       
  52 H52            1.7829    11.4438     1.8146 H       
  53 H53            0.8859    12.8728     1.2408 H       
  54 H54           -2.3594    11.1565    -0.7979 H       
  55 H55           -0.4366    11.4212     2.9166 H       
  56 H56           -2.0467     9.0340     0.2574 H       
  57 H57           -0.4638     9.1531    -0.5704 H       
  58 H58           -0.9908     9.1793     2.2972 H       
  59 H59           -2.8836    10.4596     1.9434 H       
  60 H60           -2.8044    12.0655     2.7070 H       
  61 H61           -3.6041    11.8688     1.1290 H       
@<TRIPOS>BOND
   1    1    2 2
   2    1    6 1
   3    2    3 1
   4    2   24 1
   5    3    4 2
   6    3   22 1
   7    4    5 1
   8    4   25 1
   9    5    7 1
  10    5    6 1
  11    6    9 2
  12    7    8 2
  13    8   10 1
  14    8    9 1
  15    9   12 1
  16   10   11 1
  17   10   36 1
  18   10   37 1
  19   11   12 1
  20   11   13 am
  21   12   38 1
  22   12   39 1
  23   13   14 2
  24   13   15 1
  25   15   17 ar
  26   15   16 ar
  27   16   20 ar
  28   16   21 1
  29   17   18 ar
  30   17   40 1
  31   18   19 ar
  32   18   41 1
  33   19   20 ar
  34   19   23 1
  35   20   42 1
  36   21   26 1
  37   24   43 1
  38   24   44 1
  39   24   45 1
  40   25   46 1
  41   25   47 1
  42   25   48 1
  43   26   27 1
  44   26   28 1
  45   26   49 1
  46   27   29 1
  47   27   50 1
  48   27   51 1
  49   28   30 1
  50   28   52 1
  51   28   53 1
  52   29   31 1
  53   29   33 1
  54   29   54 1
  55   30   32 1
  56   30   33 1
  57   30   55 1
  58   31   32 1
  59   31   56 1
  60   31   57 1
  61   32   35 1
  62   32   58 1
  63   33   34 1
  64   34   59 1
  65   34   60 1
  66   34   61 1

#	End of record

