#	Name: ASD06660236
#	Creating user name:	WinNT
#	Creation time:	15. 06. 2019 21:08

#	Modifying user name:	WinNT
#	Modification time:	15. 06. 2019 21:08

#	Program:	/corina/corina34_cracker 3.40 0067  02.08.2006

@<TRIPOS>MOLECULE
ASD06660236
  69   72    0    0    0
SMALL
NO_CHARGES


@<TRIPOS>ATOM
   1 C1            -0.4343     1.5270     1.0386 C.2     
   2 C2            -0.2897     0.0819     0.6363 C.3     
   3 C3            -1.3070    -0.2470    -0.4581 C.3     
   4 O4             0.4985     2.2848     0.9148 O.2     
   5 O5            -1.6012     1.9735     1.5294 O.3     
   6 C6            -1.2618    -1.7231    -0.7587 C.ar    
   7 C7            -2.0473    -2.5987    -0.0306 C.ar    
   8 C8            -2.0101    -3.9513    -0.3008 C.ar    
   9 C9            -1.1784    -4.4351    -1.3108 C.ar    
  10 C10           -0.3892    -3.5471    -2.0417 C.ar    
  11 C11           -0.4392    -2.1961    -1.7654 C.ar    
  12 O12           -0.3159    -6.3076    -2.5892 O.3     
  13 C13           -1.1333    -5.8848    -1.6054 C.2     
  14 N14           -1.8772    -6.6695    -0.9063 N.2     
  15 C15           -1.9135    -8.1180    -1.0918 C.3     
  16 C16           -1.3303    -8.4795    -2.4616 C.3     
  17 C17           -0.0157    -7.7062    -2.6401 C.3     
  18 C18           -1.0576    -9.9837    -2.5263 C.3     
  19 N19           -0.6132   -10.3418    -3.8756 N.pl3   
  20 C20           -0.3040   -11.6629    -4.1777 C.ar    
  21 C21           -0.4187   -12.6402    -3.1940 C.ar    
  22 C22           -0.1077   -13.9506    -3.5083 C.ar    
  23 C23            0.3091   -14.2411    -4.8009 C.ar    
  24 C24            0.4003   -13.2219    -5.7270 C.ar    
  25 N25            0.0919   -11.9809    -5.4004 N.ar    
  26 C26            2.0927    -0.2862     0.9910 C.2     
  27 C27            3.4724    -0.4290     0.4792 C.ar    
  28 C28            4.0427    -1.6961     0.3450 C.ar    
  29 C29            5.3302    -1.8223    -0.1336 C.ar    
  30 C30            6.0564    -0.6964    -0.4799 C.ar    
  31 C31            5.4972     0.5621    -0.3493 C.ar    
  32 C32            4.2082     0.7020     0.1227 C.ar    
  33 O33            1.8852    -0.2911     2.1887 O.2     
  34 N34            1.0651    -0.1507     0.1296 N.am    
  35 C35            3.5985     2.0734     0.2590 C.3     
  36 C36            3.2536    -2.9232     0.7226 C.3     
  37 C37            2.4140    -3.3775    -0.4730 C.3     
  38 H38           -0.4683    -0.5559     1.5020 H       
  39 H39           -2.3066     0.0241    -0.1184 H       
  40 H40           -1.0649     0.3150    -1.3601 H       
  41 H41           -1.6459     2.9081     1.7736 H       
  42 H42           -2.6908    -2.2228     0.7511 H       
  43 H43           -2.6232    -4.6340     0.2688 H       
  44 H44            0.2569    -3.9157    -2.8247 H       
  45 H45            0.1683    -1.5071    -2.3333 H       
  46 H46           -1.3259    -8.5984    -0.3095 H       
  47 H47           -2.9451    -8.4651    -1.0340 H       
  48 H48           -2.0323    -8.1981    -3.2465 H       
  49 H49            0.4295    -7.9527    -3.6040 H       
  50 H50            0.6750    -7.9643    -1.8374 H       
  51 H51           -0.2809   -10.2434    -1.8071 H       
  52 H52           -1.9707   -10.5290    -2.2878 H       
  53 H53           -0.5348    -9.6571    -4.5581 H       
  54 H54           -0.7457   -12.3789    -2.1984 H       
  55 H55           -0.1869   -14.7303    -2.7653 H       
  56 H56            0.5597   -15.2543    -5.0784 H       
  57 H57            0.7240   -13.4434    -6.7333 H       
  58 H58            5.7726    -2.8020    -0.2379 H       
  59 H59            7.0644    -0.8007    -0.8534 H       
  60 H60            6.0693     1.4368    -0.6213 H       
  61 H61            1.2225    -0.2071    -0.8259 H       
  62 H62            3.8145     2.4702     1.2509 H       
  63 H63            4.0207     2.7355    -0.4970 H       
  64 H64            2.5193     2.0065     0.1215 H       
  65 H65            3.9383    -3.7212     1.0099 H       
  66 H66            2.5965    -2.6891     1.5601 H       
  67 H67            3.0734    -3.7068    -1.2760 H       
  68 H68            1.7687    -4.2026    -0.1714 H       
  69 H69            1.8015    -2.5467    -0.8235 H       
@<TRIPOS>BOND
   1    1    2 1
   2    1    4 2
   3    1    5 1
   4    2    3 1
   5    2   34 1
   6    2   38 1
   7    3    6 1
   8    3   39 1
   9    3   40 1
  10    5   41 1
  11    6    7 ar
  12    6   11 ar
  13    7    8 ar
  14    7   42 1
  15    8    9 ar
  16    8   43 1
  17    9   10 ar
  18    9   13 1
  19   10   11 ar
  20   10   44 1
  21   11   45 1
  22   12   13 1
  23   12   17 1
  24   13   14 2
  25   14   15 1
  26   15   16 1
  27   15   46 1
  28   15   47 1
  29   16   17 1
  30   16   18 1
  31   16   48 1
  32   17   49 1
  33   17   50 1
  34   18   19 1
  35   18   51 1
  36   18   52 1
  37   19   20 1
  38   19   53 1
  39   20   21 ar
  40   20   25 ar
  41   21   22 ar
  42   21   54 1
  43   22   23 ar
  44   22   55 1
  45   23   24 ar
  46   23   56 1
  47   24   25 ar
  48   24   57 1
  49   26   27 1
  50   26   33 2
  51   26   34 am
  52   27   28 ar
  53   27   32 ar
  54   28   29 ar
  55   28   36 1
  56   29   30 ar
  57   29   58 1
  58   30   31 ar
  59   30   59 1
  60   31   32 ar
  61   31   60 1
  62   32   35 1
  63   34   61 1
  64   35   62 1
  65   35   63 1
  66   35   64 1
  67   36   37 1
  68   36   65 1
  69   36   66 1
  70   37   67 1
  71   37   68 1
  72   37   69 1

#	End of record

