#	Name: ASD04640019
#	Creating user name:	WinNT
#	Creation time:	15. 06. 2019 20:52

#	Modifying user name:	WinNT
#	Modification time:	15. 06. 2019 20:52

#	Program:	/corina/corina34_cracker 3.40 0067  02.08.2006

@<TRIPOS>MOLECULE
ASD04640019
  34   35    0    0    0
SMALL
NO_CHARGES


@<TRIPOS>ATOM
   1 C1            -0.0167     1.3838     0.0097 C.ar    
   2 C2             0.0021    -0.0041     0.0020 C.ar    
   3 C3             1.1976    -0.6884    -0.0165 C.ar    
   4 C4             2.3999     0.0212    -0.0281 C.ar    
   5 C5             2.3756     1.4154    -0.0190 C.ar    
   6 C6             1.1683     2.0920     0.0021 C.ar    
   7 C7            -1.1783     3.5393     0.4454 C.3     
   8 C8            -1.3534     2.0814     0.0199 C.3     
   9 C9             1.1938     3.5982     0.0221 C.3     
  10 N10           -0.1110     4.1393    -0.3706 N.3     
  11 C11           -0.1272     5.6043    -0.2639 C.3     
  12 C12            1.1332     6.1770    -0.9151 C.3     
  13 C13            1.1163     7.7029    -0.8040 C.3     
  14 C14            2.3768     8.2757    -1.4552 C.3     
  15 C15            3.6495    -0.6779    -0.0489 C.1     
  16 N16            4.6408    -1.2325    -0.0654 N.1     
  17 H17           -0.9285    -0.5522     0.0110 H       
  18 H18            1.2047    -1.7683    -0.0216 H       
  19 H19            3.3026     1.9695    -0.0280 H       
  20 H20           -2.1101     4.0818     0.2857 H       
  21 H21           -0.9020     3.5825     1.4990 H       
  22 H22           -1.7877     2.0458    -0.9792 H       
  23 H23           -2.0192     1.5774     0.7204 H       
  24 H24            1.4373     3.9405     1.0279 H       
  25 H25            1.9547     3.9542    -0.6725 H       
  26 H26           -1.0086     5.9958    -0.7718 H       
  27 H27           -0.1559     5.8917     0.7871 H       
  28 H28            2.0146     5.7855    -0.4072 H       
  29 H29            1.1618     5.8896    -1.9662 H       
  30 H30            0.2350     8.0945    -1.3119 H       
  31 H31            1.0877     7.9903     0.2471 H       
  32 H32            3.2582     7.8841    -0.9473 H       
  33 H33            2.4054     7.9882    -2.5062 H       
  34 H34            2.3648     9.3627    -1.3760 H       
@<TRIPOS>BOND
   1    1    2 ar
   2    1    6 ar
   3    1    8 1
   4    2    3 ar
   5    2   17 1
   6    3    4 ar
   7    3   18 1
   8    4    5 ar
   9    4   15 1
  10    5    6 ar
  11    5   19 1
  12    6    9 1
  13    7    8 1
  14    7   10 1
  15    7   20 1
  16    7   21 1
  17    8   22 1
  18    8   23 1
  19    9   10 1
  20    9   24 1
  21    9   25 1
  22   10   11 1
  23   11   12 1
  24   11   26 1
  25   11   27 1
  26   12   13 1
  27   12   28 1
  28   12   29 1
  29   13   14 1
  30   13   30 1
  31   13   31 1
  32   14   32 1
  33   14   33 1
  34   14   34 1
  35   15   16 3

#	End of record

