#	Name: ASD07930888
#	Creating user name:	WinNT
#	Creation time:	15. 06. 2019 21:13

#	Modifying user name:	WinNT
#	Modification time:	15. 06. 2019 21:13

#	Program:	/corina/corina34_cracker 3.40 0067  02.08.2006

@<TRIPOS>MOLECULE
ASD07930888
  56   60    0    0    0
SMALL
NO_CHARGES


@<TRIPOS>ATOM
   1 N1            -0.0156     1.2970     0.0092 N.2     
   2 C2             0.0021    -0.0041     0.0020 C.2     
   3 N3             1.1480    -0.7297    -0.0124 N.am    
   4 C4             2.3519    -0.1117    -0.0201 C.2     
   5 C5             2.3587     1.3569    -0.0128 C.ar    
   6 C6             3.5563     2.0887    -0.0204 C.ar    
   7 C7             3.5523     3.4430    -0.0140 C.ar    
   8 C8             2.3428     4.1689     0.0006 C.ar    
   9 C9             1.1059     3.4790     0.0087 C.ar    
  10 C10            1.1175     2.0190     0.0022 C.ar    
  11 C11           -0.0902     4.2034     0.0237 C.ar    
  12 C12           -0.0542     5.5674     0.0302 C.ar    
  13 C13            1.1589     6.2482     0.0222 C.ar    
  14 C14            2.3424     5.5722     0.0077 C.ar    
  15 O15            3.3897    -0.7488    -0.0323 O.2     
  16 C16            4.8626     4.1874    -0.0220 C.3     
  17 C17            6.0183     3.6658     2.1421 C.ar    
  18 C18            5.2506     4.5366     1.3917 C.ar    
  19 C19            4.8427     5.7353     1.9559 C.ar    
  20 C20            5.2238     6.0147     3.2596 C.ar    
  21 C21            5.9921     5.0955     3.9482 C.ar    
  22 N22            6.3618     3.9644     3.3796 N.ar    
  23 C23            6.4120     5.3886     5.3655 C.3     
  24 O24            5.8965     6.6612     5.7615 O.3     
  25 C25            1.0819    -2.1932    -0.0191 C.3     
  26 C26            0.3502    -2.6765     1.2346 C.3     
  27 C27            0.2811    -4.2049     1.2276 C.3     
  28 C28           -0.4741    -4.6756    -0.0170 C.3     
  29 C29            0.2577    -4.1923    -1.2708 C.3     
  30 C30            0.3267    -2.6639    -1.2637 C.3     
  31 O31            1.0555    -2.2369     2.3970 O.3     
  32 H32           -0.9405    -0.5313     0.0082 H       
  33 H33            4.4990     1.5619    -0.0312 H       
  34 H34           -1.0381     3.6857     0.0296 H       
  35 H35           -0.9788     6.1253     0.0414 H       
  36 H36            1.1630     7.3282     0.0273 H       
  37 H37            3.2763     6.1145     0.0020 H       
  38 H38            5.6346     3.5592    -0.4661 H       
  39 H39            4.7575     5.1016    -0.6063 H       
  40 H40            6.3364     2.7279     1.7114 H       
  41 H41            4.2426     6.4352     1.3933 H       
  42 H42            4.9242     6.9392     3.7307 H       
  43 H43            6.0208     4.6161     6.0275 H       
  44 H44            7.5002     5.4025     5.4265 H       
  45 H45            6.1284     6.9156     6.6652 H       
  46 H46            2.0921    -2.6025    -0.0307 H       
  47 H47           -0.6600    -2.2672     1.2462 H       
  48 H48            1.2913    -4.6142     1.2160 H       
  49 H49           -0.2402    -4.5492     2.1208 H       
  50 H50           -0.5232    -5.7645    -0.0220 H       
  51 H51           -1.4842    -4.2663    -0.0055 H       
  52 H52            1.2679    -4.6016    -1.2823 H       
  53 H53           -0.2803    -4.5276    -2.1574 H       
  54 H54           -0.6835    -2.2546    -1.2522 H       
  55 H55            0.8480    -2.3196    -2.1569 H       
  56 H56            0.6474    -2.5079     3.2307 H       
@<TRIPOS>BOND
   1    1    2 2
   2    1   10 1
   3    2    3 1
   4    2   32 1
   5    3    4 am
   6    3   25 1
   7    4    5 1
   8    4   15 2
   9    5    6 ar
  10    5   10 ar
  11    6    7 ar
  12    6   33 1
  13    7    8 ar
  14    7   16 1
  15    8    9 ar
  16    8   14 ar
  17    9   10 ar
  18    9   11 ar
  19   11   12 ar
  20   11   34 1
  21   12   13 ar
  22   12   35 1
  23   13   14 ar
  24   13   36 1
  25   14   37 1
  26   16   18 1
  27   16   38 1
  28   16   39 1
  29   17   18 ar
  30   17   22 ar
  31   17   40 1
  32   18   19 ar
  33   19   20 ar
  34   19   41 1
  35   20   21 ar
  36   20   42 1
  37   21   22 ar
  38   21   23 1
  39   23   24 1
  40   23   43 1
  41   23   44 1
  42   24   45 1
  43   25   26 1
  44   25   30 1
  45   25   46 1
  46   26   27 1
  47   26   31 1
  48   26   47 1
  49   27   28 1
  50   27   48 1
  51   27   49 1
  52   28   29 1
  53   28   50 1
  54   28   51 1
  55   29   30 1
  56   29   52 1
  57   29   53 1
  58   30   54 1
  59   30   55 1
  60   31   56 1

#	End of record

