#	Name: ASD01230249
#	Creating user name:	WinNT
#	Creation time:	15. 06. 2019 19:12

#	Modifying user name:	WinNT
#	Modification time:	15. 06. 2019 19:12

#	Program:	/corina/corina34_cracker 3.40 0067  02.08.2006

@<TRIPOS>MOLECULE
ASD01230249
  38   40    0    0    0
SMALL
NO_CHARGES


@<TRIPOS>ATOM
   1 C1            -0.2101     1.3426     1.5456 C.ar    
   2 C2            -0.1485     0.1192     0.8631 C.ar    
   3 C3             1.0863    -0.3286     0.3943 C.ar    
   4 C4             2.2039     0.4589     0.6245 C.ar    
   5 C5             2.0649     1.6529     1.3048 C.ar    
   6 N6             0.8860     2.0572     1.7397 N.ar    
   7 N7            -1.4301     1.8096     2.0155 N.pl3   
   8 C8            -1.3750    -0.6849     0.6442 C.ar    
   9 C9            -1.6792    -1.1620    -0.6300 C.ar    
  10 C10           -2.8204    -1.9098    -0.8304 C.ar    
  11 C11           -3.6663    -2.1874     0.2351 C.ar    
  12 C12           -3.3663    -1.7132     1.5052 C.ar    
  13 C13           -2.2234    -0.9701     1.7131 C.ar    
  14 O14           -4.7902    -2.9241     0.0345 O.3     
  15 C15           -5.9409    -2.2647    -0.2611 C.ar    
  16 C16           -5.9235    -0.8919    -0.4567 C.ar    
  17 C17           -7.0990    -0.2222    -0.7580 C.ar    
  18 C18           -8.2903    -0.9266    -0.8631 C.ar    
  19 C19           -8.3053    -2.2942    -0.6673 C.ar    
  20 C20           -7.1337    -2.9652    -0.3729 C.ar    
  21 O21           -7.0853     1.1231    -0.9499 O.3     
  22 C22           -8.3334     1.7474    -1.2572 C.3     
  23 H23            1.1699    -1.2663    -0.1349 H       
  24 H24            3.1752     0.1412     0.2751 H       
  25 H25            2.9357     2.2662     1.4840 H       
  26 H26           -2.2364     1.2900     1.8714 H       
  27 H27           -1.4763     2.6555     2.4880 H       
  28 H28           -1.0220    -0.9458    -1.4593 H       
  29 H29           -3.0566    -2.2797    -1.8172 H       
  30 H30           -4.0263    -1.9305     2.3320 H       
  31 H31           -1.9882    -0.6053     2.7021 H       
  32 H32           -4.9956    -0.3455    -0.3742 H       
  33 H33           -9.2065    -0.4052    -1.0979 H       
  34 H34           -9.2334    -2.8404    -0.7489 H       
  35 H35           -7.1471    -4.0350    -0.2250 H       
  36 H36           -8.7342     1.3242    -2.1783 H       
  37 H37           -9.0363     1.5749    -0.4422 H       
  38 H38           -8.1818     2.8191    -1.3856 H       
@<TRIPOS>BOND
   1    1    2 ar
   2    1    6 ar
   3    1    7 1
   4    2    3 ar
   5    2    8 1
   6    3    4 ar
   7    3   23 1
   8    4    5 ar
   9    4   24 1
  10    5    6 ar
  11    5   25 1
  12    7   26 1
  13    7   27 1
  14    8    9 ar
  15    8   13 ar
  16    9   10 ar
  17    9   28 1
  18   10   11 ar
  19   10   29 1
  20   11   12 ar
  21   11   14 1
  22   12   13 ar
  23   12   30 1
  24   13   31 1
  25   14   15 1
  26   15   16 ar
  27   15   20 ar
  28   16   17 ar
  29   16   32 1
  30   17   18 ar
  31   17   21 1
  32   18   19 ar
  33   18   33 1
  34   19   20 ar
  35   19   34 1
  36   20   35 1
  37   21   22 1
  38   22   36 1
  39   22   37 1
  40   22   38 1

#	End of record

