#	Name: ASD05570006
#	Creating user name:	WinNT
#	Creation time:	15. 06. 2019 21:01

#	Modifying user name:	WinNT
#	Modification time:	15. 06. 2019 21:01

#	Program:	/corina/corina34_cracker 3.40 0067  02.08.2006

@<TRIPOS>MOLECULE
ASD05570006
  31   33    0    0    0
SMALL
NO_CHARGES


@<TRIPOS>ATOM
   1 N1             1.2823     1.2280    -2.7799 N.am    
   2 C2             1.1011    -0.0815    -2.5581 C.2     
   3 N3             1.6934    -0.7503    -1.5587 N.am    
   4 C4             2.5266    -0.1343    -0.6951 C.2     
   5 C5             2.7755     1.3056    -0.8746 C.2     
   6 C6             2.0891     1.9708    -1.9944 C.2     
   7 O7             2.2459     3.1589    -2.2061 O.2     
   8 O8             0.3607    -0.6945    -3.3020 O.2     
   9 O9             3.0581    -0.7523     0.2086 O.2     
  10 C10            3.6233     2.0084    -0.0215 C.2     
  11 C11            3.7007     3.4044    -0.1048 C.2     
  12 O12            2.6600     4.2467    -0.2852 O.3     
  13 C13            4.8610     4.1641    -0.0104 C.2     
  14 C14            4.4814     5.4964    -0.1467 C.2     
  15 C15            3.1107     5.5121    -0.3153 C.2     
  16 C16            2.2805     6.7168    -0.4988 C.ar    
  17 C17            1.3620     6.7830    -1.5505 C.ar    
  18 C18            0.5890     7.9120    -1.7165 C.ar    
  19 C19            0.7201     8.9806    -0.8439 C.ar    
  20 C20            1.6278     8.9231     0.2000 C.ar    
  21 C21            2.4041     7.7963     0.3821 C.ar    
  22 Cl22           3.5415     7.7251     1.6917 Cl      
  23 Cl23          -0.2580    10.3983    -1.0611 Cl      
  24 H24            0.8259     1.6503    -3.5244 H       
  25 H25            1.5186    -1.6986    -1.4540 H       
  26 H26            4.2210     1.4768     0.7042 H       
  27 H27            5.8637     3.7924     0.1403 H       
  28 H28            5.1349     6.3559    -0.1217 H       
  29 H29            1.2585     5.9515    -2.2318 H       
  30 H30           -0.1206     7.9641    -2.5290 H       
  31 H31            1.7252     9.7596     0.8762 H       
@<TRIPOS>BOND
   1    1    2 am
   2    1    6 am
   3    1   24 1
   4    2    3 am
   5    2    8 2
   6    3    4 am
   7    3   25 1
   8    4    5 1
   9    4    9 2
  10    5    6 1
  11    5   10 2
  12    6    7 2
  13   10   11 1
  14   10   26 1
  15   11   12 1
  16   11   13 2
  17   12   15 1
  18   13   14 1
  19   13   27 1
  20   14   15 2
  21   14   28 1
  22   15   16 1
  23   16   17 ar
  24   16   21 ar
  25   17   18 ar
  26   17   29 1
  27   18   19 ar
  28   18   30 1
  29   19   20 ar
  30   19   23 1
  31   20   21 ar
  32   20   31 1
  33   21   22 1

#	End of record

