#	Name: ASD01890545
#	Creating user name:	WinNT
#	Creation time:	15. 06. 2019 19:51

#	Modifying user name:	WinNT
#	Modification time:	15. 06. 2019 19:51

#	Program:	/corina/corina34_cracker 3.40 0067  02.08.2006

@<TRIPOS>MOLECULE
ASD01890545
  24   25    0    0    0
SMALL
NO_CHARGES


@<TRIPOS>ATOM
   1 C1            -0.0184     1.5084     0.0103 C.2     
   2 C2             0.0021    -0.0041     0.0020 C.3     
   3 C3            -0.8921    -0.5103     1.1413 C.3     
   4 C4            -2.2769     0.1358     1.0043 C.3     
   5 C5            -2.1019     1.6363     0.9266 C.2     
   6 O6             1.0093     2.1435     0.0039 O.2     
   7 O7            -2.7304     2.3731     1.6490 O.2     
   8 O8            -1.2209     2.1304     0.0195 O.3     
   9 C9            -1.0227    -2.0090     1.0535 C.ar    
  10 C10           -0.6001    -2.8031     2.1051 C.ar    
  11 C11           -0.7200    -4.1786     2.0243 C.ar    
  12 C12           -1.2625    -4.7598     0.8921 C.ar    
  13 C13           -1.6847    -3.9650    -0.1585 C.ar    
  14 C14           -1.5697    -2.5899    -0.0749 C.ar    
  15 Cl15          -1.4129    -6.4863     0.7896 Cl      
  16 Cl16           0.0810    -2.0728     3.5251 Cl      
  17 H17           -0.3778    -0.3701    -0.9518 H       
  18 H18            1.0222    -0.3572     0.1528 H       
  19 H19           -0.4534    -0.2348     2.1003 H       
  20 H20           -2.7604    -0.2239     0.0960 H       
  21 H21           -2.8864    -0.1173     1.8717 H       
  22 H22           -0.3900    -4.7987     2.8447 H       
  23 H23           -2.1078    -4.4187    -1.0426 H       
  24 H24           -1.9038    -1.9696    -0.8934 H       
@<TRIPOS>BOND
   1    1    2 1
   2    1    6 2
   3    1    8 1
   4    2    3 1
   5    2   17 1
   6    2   18 1
   7    3    4 1
   8    3    9 1
   9    3   19 1
  10    4    5 1
  11    4   20 1
  12    4   21 1
  13    5    7 2
  14    5    8 1
  15    9   10 ar
  16    9   14 ar
  17   10   11 ar
  18   10   16 1
  19   11   12 ar
  20   11   22 1
  21   12   13 ar
  22   12   15 1
  23   13   14 ar
  24   13   23 1
  25   14   24 1

#	End of record

