#	Name: ASD07301091
#	Creating user name:	WinNT
#	Creation time:	15. 06. 2019 21:10

#	Modifying user name:	WinNT
#	Modification time:	15. 06. 2019 21:10

#	Program:	/corina/corina34_cracker 3.40 0067  02.08.2006

@<TRIPOS>MOLECULE
ASD07301091
  29   29    0    0    0
SMALL
NO_CHARGES


@<TRIPOS>ATOM
   1 C1            -0.0171     1.4644     0.0520 C.2     
   2 C2             0.0021    -0.0041     0.0013 C.2     
   3 C3             1.2763    -0.6358    -0.0567 C.2     
   4 C4             2.3775     0.1598    -0.0609 C.2     
   5 N5             2.2578     1.5100    -0.0109 N.pl3   
   6 N6             1.1293     2.1154     0.0415 N.2     
   7 C7            -1.2959     2.1971     0.1075 C.2     
   8 O8            -2.3463     1.5864     0.1116 O.2     
   9 O9            -1.2994     3.5439     0.1537 O.3     
  10 C10            3.3555     3.6651    -0.1128 C.ar    
  11 C11            3.4252     2.2809    -0.0170 C.ar    
  12 C12            4.6748     1.6720     0.0733 C.ar    
  13 C13            5.8016     2.4778     0.0637 C.ar    
  14 C14            5.6508     3.8484    -0.0343 C.ar    
  15 N15            4.4530     4.3944    -0.1179 N.ar    
  16 O16           -1.0314    -0.6549     0.0090 O.2     
  17 O17            1.3876    -1.9899    -0.1057 O.3     
  18 C18            2.7092    -2.5306    -0.1620 C.3     
  19 H19            3.3594    -0.2878    -0.1043 H       
  20 H20           -2.1619     3.9797     0.1891 H       
  21 H21            2.3924     4.1480    -0.1878 H       
  22 H22            4.7630     0.5983     0.1493 H       
  23 H23            6.7866     2.0402     0.1325 H       
  24 H24            6.5260     4.4811    -0.0422 H       
  25 H25            3.2146    -2.1627    -1.0549 H       
  26 H26            3.2657    -2.2228     0.7233 H       
  27 H27            2.6554    -3.6187    -0.1972 H       
  28 Cl28          11.7866     9.4811     5.7233 Cl      
  29 H29           11.7866    10.8511     5.7233 H       
@<TRIPOS>BOND
   1    1    2 1
   2    1    6 2
   3    1    7 1
   4    2    3 1
   5    2   16 2
   6    3    4 2
   7    3   17 1
   8    4    5 1
   9    4   19 1
  10    5    6 1
  11    5   11 1
  12    7    8 2
  13    7    9 1
  14    9   20 1
  15   10   11 ar
  16   10   15 ar
  17   10   21 1
  18   11   12 ar
  19   12   13 ar
  20   12   22 1
  21   13   14 ar
  22   13   23 1
  23   14   15 ar
  24   14   24 1
  25   17   18 1
  26   18   25 1
  27   18   26 1
  28   18   27 1
  29   28   29 1

#	End of record

