#	Name: ASD01150910
#	Creating user name:	WinNT
#	Creation time:	15. 06. 2019 19:05

#	Modifying user name:	WinNT
#	Modification time:	15. 06. 2019 19:05

#	Program:	/corina/corina34_cracker 3.40 0067  02.08.2006

@<TRIPOS>MOLECULE
ASD01150910
  51   53    0    0    0
SMALL
NO_CHARGES


@<TRIPOS>ATOM
   1 C1             0.2966     1.5143     0.0007 C.ar    
   2 C2             0.6508     0.0795    -0.0175 C.2     
   3 N3            -0.3006    -0.8521     0.1911 N.am    
   4 O4             1.8000    -0.2603    -0.2205 O.2     
   5 C5             0.0325    -2.2015     0.1740 C.2     
   6 N6             1.2495    -2.7092    -0.0356 N.2     
   7 C7             1.2045    -4.0248     0.0166 C.2     
   8 N8            -0.0698    -4.4218     0.2670 N.pl3   
   9 C9            -0.8403    -3.2630     0.3780 C.2     
  10 C10           -2.2239    -3.1860     0.6351 C.2     
  11 O11           -2.9436    -4.3165     0.8026 O.3     
  12 O12           -2.7705    -2.1000     0.7062 O.2     
  13 C13           -4.3409    -4.1638     1.0602 C.3     
  14 C14           -4.9836    -5.5430     1.2204 C.3     
  15 S15            2.5821    -5.1009    -0.2045 S.3     
  16 C16            3.8903    -3.8826    -0.4882 C.3     
  17 C17           -0.5440    -5.8015     0.4007 C.3     
  18 C18           -0.4472    -6.2284     1.8427 C.ar    
  19 C19           -1.5142    -6.0235     2.6973 C.ar    
  20 C20           -1.4254    -6.4151     4.0201 C.ar    
  21 C21           -0.2697    -7.0120     4.4881 C.ar    
  22 C22            0.7970    -7.2177     3.6332 C.ar    
  23 C23            0.7066    -6.8300     2.3094 C.ar    
  24 C24            0.5656     2.3168    -1.1092 C.ar    
  25 C25            0.2325     3.6555    -1.0857 C.ar    
  26 C26           -0.3669     4.2028     0.0347 C.ar    
  27 C27           -0.6363     3.4127     1.1385 C.ar    
  28 C28           -0.3137     2.0717     1.1259 C.ar    
  29 N29            1.2072     1.7331    -2.3086 N.pl3   
  30 O30            1.5603     2.4560    -3.2231 O.2     
  31 O31            1.3821     0.5299    -2.3810 O.2     
  32 H32           -1.2177    -0.5809     0.3531 H       
  33 H33           -4.4809    -3.5891     1.9757 H       
  34 H34           -4.8088    -3.6396     0.2269 H       
  35 H35           -4.5157    -6.0673     2.0537 H       
  36 H36           -6.0494    -5.4266     1.4169 H       
  37 H37           -4.8435    -6.1177     0.3049 H       
  38 H38            3.6476    -3.2872    -1.3683 H       
  39 H39            3.9732    -3.2296     0.3806 H       
  40 H40            4.8377    -4.3973    -0.6477 H       
  41 H41           -1.5816    -5.8625     0.0726 H       
  42 H42            0.0709    -6.4582    -0.2147 H       
  43 H43           -2.4171    -5.5572     2.3317 H       
  44 H44           -2.2588    -6.2544     4.6879 H       
  45 H45           -0.2000    -7.3172     5.5217 H       
  46 H46            1.7000    -7.6837     3.9990 H       
  47 H47            1.5399    -6.9908     1.6416 H       
  48 H48            0.4404     4.2777    -1.9436 H       
  49 H49           -0.6253     5.2513     0.0481 H       
  50 H50           -1.1041     3.8463     2.0101 H       
  51 H51           -0.5249     1.4562     1.9878 H       
@<TRIPOS>BOND
   1    1    2 1
   2    1   24 ar
   3    1   28 ar
   4    2    3 am
   5    2    4 2
   6    3    5 1
   7    3   32 1
   8    5    6 1
   9    5    9 2
  10    6    7 2
  11    7    8 1
  12    7   15 1
  13    8    9 1
  14    8   17 1
  15    9   10 1
  16   10   11 1
  17   10   12 2
  18   11   13 1
  19   13   14 1
  20   13   33 1
  21   13   34 1
  22   14   35 1
  23   14   36 1
  24   14   37 1
  25   15   16 1
  26   16   38 1
  27   16   39 1
  28   16   40 1
  29   17   18 1
  30   17   41 1
  31   17   42 1
  32   18   19 ar
  33   18   23 ar
  34   19   20 ar
  35   19   43 1
  36   20   21 ar
  37   20   44 1
  38   21   22 ar
  39   21   45 1
  40   22   23 ar
  41   22   46 1
  42   23   47 1
  43   24   25 ar
  44   24   29 1
  45   25   26 ar
  46   25   48 1
  47   26   27 ar
  48   26   49 1
  49   27   28 ar
  50   27   50 1
  51   28   51 1
  52   29   30 2
  53   29   31 2

#	End of record

