#	Name: ASD04220039
#	Creating user name:	WinNT
#	Creation time:	15. 06. 2019 20:48

#	Modifying user name:	WinNT
#	Modification time:	15. 06. 2019 20:48

#	Program:	/corina/corina34_cracker 3.40 0067  02.08.2006

@<TRIPOS>MOLECULE
ASD04220039
 144  148    0    0    0
SMALL
NO_CHARGES


@<TRIPOS>ATOM
   1 S1            -0.3659    -3.2285     4.5568 S.o2    
   2 S2            -4.3124    -2.2158     5.7059 S.o2    
   3 S3            -0.3741     0.5496     3.3149 S.o2    
   4 S4             1.5204     8.8507     9.4946 S.o2    
   5 S5            -8.8548    -4.0442    15.9503 S.o2    
   6 S6            -1.2730    -3.0635    12.9330 S.o2    
   7 S7             0.8539     5.4983     1.1488 S.o2    
   8 S8           -10.1217    -6.8322     7.4619 S.o2    
   9 O9            -0.2473    -1.6420     9.0365 O.3     
  10 O10           -0.3717    -0.1302     7.2630 O.3     
  11 O11           -3.8766    -1.6081     9.5386 O.3     
  12 O12           -0.4193     2.6667     6.7289 O.3     
  13 O13            1.5470     3.6432     5.9377 O.3     
  14 O14           -3.6345    -2.7862     6.9435 O.3     
  15 O15           -4.8022    -3.7202     9.8971 O.3     
  16 O16           -7.2090    -5.0471    12.3203 O.3     
  17 O17            1.3692     7.1917     5.0422 O.3     
  18 O18           -0.1203     0.5789     4.8153 O.3     
  19 O19           -9.3336    -5.3998    11.4215 O.3     
  20 O20            2.8271     1.5848     6.7488 O.3     
  21 O21           -5.3690    -0.6133    11.7549 O.3     
  22 O22           -7.5866    -2.2233    12.5748 O.3     
  23 O23           -1.3254    -2.7757    11.4394 O.3     
  24 O24            1.3661     4.9064     8.4976 O.3     
  25 O25            3.4230     7.6577     6.0478 O.3     
  26 O26           -9.1767    -7.9134    14.7110 O.3     
  27 O27           -9.1908    -9.0038    12.0667 O.3     
  28 O28            1.4907     5.9418     2.4582 O.3     
  29 O29           -0.3795     1.7250    10.2552 O.3     
  30 O30           -1.0469    -4.5849     4.6716 O.3     
  31 O31           -1.9462     2.3247     8.8167 O.2     
  32 O32            0.9139    -3.3699     5.1579 O.2     
  33 O33           -0.5512    -2.7989     3.2150 O.2     
  34 O34           -5.8443    -7.0992    10.7189 O.3     
  35 O35           -3.3332    -2.3588     4.5495 O.3     
  36 O36           -9.3934    -6.4907     8.7540 O.3     
  37 O37           -5.7452    -5.9405     8.8397 O.2     
  38 O38           -5.4055    -3.0758     5.4148 O.2     
  39 O39           -4.4604    -0.8214     5.9362 O.2     
  40 O40            0.7139    -0.3125     2.6907 O.3     
  41 O41            0.2810     8.2531    10.1452 O.3     
  42 O42           -1.5967    -0.1500     3.1282 O.2     
  43 O43           -0.1563     1.8729     2.8452 O.2     
  44 O44          -10.0693    -4.6506    16.6386 O.3     
  45 O45           -2.6861    -2.8979    13.4736 O.3     
  46 O46            1.0573     9.8173     8.5616 O.2     
  47 O47            2.4194     9.1586    10.5511 O.2     
  48 O48           -9.3452    -3.0072    15.1115 O.2     
  49 O49           -7.8840    -3.8290    16.9654 O.2     
  50 O50           -0.9518    -4.4414    13.0650 O.2     
  51 O51           -0.4966    -2.0253    13.5148 O.2     
  52 O52           -0.5258     6.1371     1.0797 O.3     
  53 O53            1.6219     6.0883     0.1090 O.2     
  54 O54            0.6424     4.0975     1.2598 O.2     
  55 O55          -11.4772    -6.1419     7.5127 O.3     
  56 O56           -9.3928    -6.2086     6.4135 O.2     
  57 O57          -10.3808    -8.2287     7.5045 O.2     
  58 N58           -1.2150    -2.1716     5.5077 N.am    
  59 N59            2.2358     7.6494     8.6071 N.am    
  60 N60           -8.2315    -5.2033    14.9451 N.am    
  61 C61           -2.6262    -2.0677     9.0219 C.3     
  62 C62           -2.6247    -1.9392     7.4955 C.3     
  63 C63           -1.2530    -2.3610     6.9599 C.3     
  64 C64           -0.1706    -1.5001     7.6166 C.3     
  65 C65           -1.4908    -1.2182     9.5989 C.3     
  66 C66            0.7287     0.7215     7.5882 C.3     
  67 C67            1.6946     0.7857     6.4010 C.3     
  68 C68            0.9736     1.4123     5.2036 C.3     
  69 C69           -4.4579    -2.4773    10.5126 C.3     
  70 C70            0.4481     2.7943     5.6004 C.3     
  71 C71            0.2127     2.1302     7.8929 C.3     
  72 C72           -6.6686    -4.1163    11.3803 C.3     
  73 C73           -5.7190    -1.8280    11.0885 C.3     
  74 C74           -6.3691    -2.7907    12.0870 C.3     
  75 C75            1.1936     5.0198     6.0872 C.3     
  76 C76           -5.3708    -4.6772    10.7931 C.3     
  77 C77            1.8626     5.5865     7.3432 C.3     
  78 C78           -1.4478    -1.3885    11.1188 C.3     
  79 C79            1.6723     5.8066     4.8643 C.3     
  80 C80            1.5402     7.0802     7.4502 C.3     
  81 C81           -8.6117    -4.8960    12.5472 C.3     
  82 C82           -9.0133    -5.6778    13.8007 C.3     
  83 C83           -8.7369    -7.1674    13.5743 C.3     
  84 C84            2.0055     7.7874     6.1746 C.3     
  85 C85           -9.4985    -7.6333    12.3296 C.3     
  86 C86           -9.0782    -6.7759    11.1330 C.3     
  87 C87           -0.7836     2.0672     9.0218 C.2     
  88 C88            0.9628     5.2857     3.6127 C.3     
  89 C89           -5.6671    -5.9516    10.0454 C.2     
  90 C90           -9.8787    -7.1955     9.8985 C.3     
  91 C91            3.9907     8.4675     5.0163 C.3     
  92 H92           -2.4788    -3.1114     9.2997 H       
  93 H93           -2.8240    -0.9045     7.2166 H       
  94 H94           -1.0772    -3.4107     7.1951 H       
  95 H95            0.8110    -1.8245     7.2713 H       
  96 H96           -1.6614    -0.1696     9.3551 H       
  97 H97            1.2495     0.3267     8.4605 H       
  98 H98            2.0239    -0.2211     6.1440 H       
  99 H99            1.6695     1.5116     4.3706 H       
 100 H100          -3.7416    -2.6550    11.3148 H       
 101 H101          -0.1030     3.2272     4.7655 H       
 102 H102           1.0478     2.7691     8.1801 H       
 103 H103          -7.3888    -3.9477    10.5796 H       
 104 H104          -6.4187    -1.6119    10.2811 H       
 105 H105          -5.6882    -2.9671    12.9196 H       
 106 H106           0.1112     5.1101     6.1788 H       
 107 H107          -4.6667    -4.8837    11.5991 H       
 108 H108           2.9418     5.4491     7.2750 H       
 109 H109          -2.3658    -0.9945    11.5547 H       
 110 H110          -0.5924    -0.8457    11.5211 H       
 111 H111          -1.6873    -1.4272     5.1032 H       
 112 H112           2.7491     5.6818     4.7504 H       
 113 H113           0.4650     7.2130     7.5700 H       
 114 H114          -8.8458    -3.8406    12.6864 H       
 115 H115         -10.0749    -5.5293    13.9981 H       
 116 H116          -7.6678    -7.3217    13.4282 H       
 117 H117           1.7402     8.8433     6.2270 H       
 118 H118         -10.5702    -7.5262    12.4971 H       
 119 H119          -8.0143    -6.9158    10.9414 H       
 120 H120          -0.1053     5.4889     3.6895 H       
 121 H121           1.1229     4.2111     3.5250 H       
 122 H122           3.4814     1.6686     6.0417 H       
 123 H123           3.1153     7.3227     8.8533 H       
 124 H124          -4.9473     0.0420    11.1824 H       
 125 H125          -7.3487    -5.5680    15.1141 H       
 126 H126          -7.4712    -1.3804    13.0344 H       
 127 H127         -10.9319    -6.9595    10.0509 H       
 128 H128          -9.7659    -8.2679     9.7395 H       
 129 H129           1.7478     5.2153     9.3307 H       
 130 H130          -9.0320    -8.8665    14.6358 H       
 131 H131          -9.6396    -9.3657    11.2904 H       
 132 H132          -1.0549     1.6983    10.9468 H       
 133 H133          -0.6261    -5.2817     4.1496 H       
 134 H134          -6.0968    -7.8768    10.2024 H       
 135 H135          -3.6682    -2.0234     3.7067 H       
 136 H136           3.5552     8.1909     4.0561 H       
 137 H137           3.7808     9.5172     5.2215 H       
 138 H138           5.0691     8.3120     4.9845 H       
 139 H139           0.6452    -0.3980     1.7299 H       
 140 H140          -0.2158     8.8770    10.6919 H       
 141 H141         -10.5128    -4.0509    17.2540 H       
 142 H142          -2.7653    -3.0599    14.4236 H       
 143 H143          -1.0211     5.9178     0.2787 H       
 144 H144         -12.0262    -6.2952     6.7316 H       
@<TRIPOS>BOND
   1    1   30 1
   2    1   32 2
   3    1   33 2
   4    1   58 am
   5    2   14 1
   6    2   35 1
   7    2   38 2
   8    2   39 2
   9    3   18 1
  10    3   40 1
  11    3   42 2
  12    3   43 2
  13    4   41 1
  14    4   46 2
  15    4   47 2
  16    4   59 am
  17    5   44 1
  18    5   48 2
  19    5   49 2
  20    5   60 am
  21    6   23 1
  22    6   45 1
  23    6   50 2
  24    6   51 2
  25    7   28 1
  26    7   52 1
  27    7   53 2
  28    7   54 2
  29    8   36 1
  30    8   55 1
  31    8   56 2
  32    8   57 2
  33    9   64 1
  34    9   65 1
  35   10   64 1
  36   10   66 1
  37   11   61 1
  38   11   69 1
  39   12   70 1
  40   12   71 1
  41   13   70 1
  42   13   75 1
  43   14   62 1
  44   15   69 1
  45   15   76 1
  46   16   72 1
  47   16   81 1
  48   17   79 1
  49   17   84 1
  50   18   68 1
  51   19   81 1
  52   19   86 1
  53   20  122 1
  54   20   67 1
  55   21  124 1
  56   21   73 1
  57   22  126 1
  58   22   74 1
  59   23   78 1
  60   24  129 1
  61   24   77 1
  62   25   91 1
  63   25   84 1
  64   26  130 1
  65   26   83 1
  66   27  131 1
  67   27   85 1
  68   28   88 1
  69   29   87 1
  70   29  132 1
  71   30  133 1
  72   31   87 2
  73   34   89 1
  74   34  134 1
  75   35  135 1
  76   36   90 1
  77   37   89 2
  78   40  139 1
  79   41  140 1
  80   44  141 1
  81   45  142 1
  82   52  143 1
  83   55  144 1
  84   58  111 1
  85   58   63 1
  86   59  123 1
  87   59   80 1
  88   60  125 1
  89   60   82 1
  90   61   62 1
  91   61   92 1
  92   61   65 1
  93   62   63 1
  94   62   93 1
  95   63   64 1
  96   63   94 1
  97   64   95 1
  98   65   78 1
  99   65   96 1
 100   66   67 1
 101   66   97 1
 102   66   71 1
 103   67   68 1
 104   67   98 1
 105   68   70 1
 106   68   99 1
 107   69   73 1
 108   69  100 1
 109   70  101 1
 110   71   87 1
 111   71  102 1
 112   72   74 1
 113   72  103 1
 114   72   76 1
 115   73   74 1
 116   73  104 1
 117   74  105 1
 118   75   77 1
 119   75  106 1
 120   75   79 1
 121   76   89 1
 122   76  107 1
 123   77   80 1
 124   77  108 1
 125   78  109 1
 126   78  110 1
 127   79   88 1
 128   79  112 1
 129   80   84 1
 130   80  113 1
 131   81   82 1
 132   81  114 1
 133   82   83 1
 134   82  115 1
 135   83   85 1
 136   83  116 1
 137   84  117 1
 138   85   86 1
 139   85  118 1
 140   86   90 1
 141   86  119 1
 142   88  120 1
 143   88  121 1
 144   90  127 1
 145   90  128 1
 146   91  136 1
 147   91  137 1
 148   91  138 1

#	End of record

