#	Name: ASD05940101
#	Creating user name:	WinNT
#	Creation time:	15. 06. 2019 21:04

#	Modifying user name:	WinNT
#	Modification time:	15. 06. 2019 21:04

#	Program:	/corina/corina34_cracker 3.40 0067  02.08.2006

@<TRIPOS>MOLECULE
ASD05940101
  47   47    0    0    0
SMALL
NO_CHARGES


@<TRIPOS>ATOM
   1 C1            -0.2145     1.3380     0.0469 C.ar    
   2 C2            -0.2842    -0.0404     0.0714 C.ar    
   3 C3             1.0200     1.9697    -0.0275 C.ar    
   4 C4             2.1844     1.2146    -0.0773 C.ar    
   5 C5             2.1148    -0.1639    -0.0529 C.ar    
   6 C6             0.8803    -0.7955     0.0216 C.ar    
   7 N7             0.8096    -2.1942     0.0464 N.am    
   8 C8             1.7534    -2.9053     0.6947 C.2     
   9 C9             1.6224    -4.4021     0.8102 C.3     
  10 O10            2.7081    -2.3404     1.1851 O.2     
  11 N11            1.0906     3.3684    -0.0528 N.am    
  12 C12            0.1857     4.1012     0.6258 C.2     
  13 C13            0.1908     5.6035     0.5068 C.3     
  14 O14           -0.6327     3.5516     1.3324 O.2     
  15 C15           -0.9286     6.1874     1.3710 C.3     
  16 C16           -0.9234     7.7126     1.2502 C.3     
  17 C17           -1.2705     8.1116    -0.1855 C.3     
  18 C18           -1.9595     8.3036     2.2084 C.3     
  19 C19            3.8782    -7.0380     2.4802 C.3     
  20 C20            2.6838    -6.4799     1.7038 C.3     
  21 C21            2.8168    -4.9602     1.5866 C.3     
  22 H22           -1.1203     1.9252     0.0811 H       
  23 H23           -1.2442    -0.5317     0.1297 H       
  24 H24            3.1445     1.7058    -0.1356 H       
  25 H25            3.0203    -0.7511    -0.0920 H       
  26 H26            0.0814    -2.6511    -0.4029 H       
  27 H27            0.7001    -4.6465     1.3372 H       
  28 H28            1.5990    -4.8428    -0.1865 H       
  29 H29            1.7908     3.8096    -0.5588 H       
  30 H30            1.1514     5.9916     0.8456 H       
  31 H31            0.0314     5.8861    -0.5338 H       
  32 H32           -1.8892     5.7993     1.0322 H       
  33 H33           -0.7692     5.9048     2.4116 H       
  34 H34            0.0656     8.0938     1.5043 H       
  35 H35           -2.2595     7.7304    -0.4396 H       
  36 H36           -1.2668     9.1982    -0.2716 H       
  37 H37           -0.5324     7.6906    -0.8682 H       
  38 H38           -1.7122     8.0193     3.2312 H       
  39 H39           -1.9558     9.3902     2.1223 H       
  40 H40           -2.9485     7.9224     1.9543 H       
  41 H41            3.9017    -6.5973     3.4769 H       
  42 H42            3.7835    -8.1206     2.5638 H       
  43 H43            4.8005    -6.7935     1.9532 H       
  44 H44            2.6604    -6.9205     0.7071 H       
  45 H45            1.7616    -6.7243     2.2309 H       
  46 H46            3.7390    -4.7158     1.0595 H       
  47 H47            2.8402    -4.5195     2.5833 H       
@<TRIPOS>BOND
   1    1    2 ar
   2    1    3 ar
   3    1   22 1
   4    2    6 ar
   5    2   23 1
   6    3    4 ar
   7    3   11 1
   8    4    5 ar
   9    4   24 1
  10    5    6 ar
  11    5   25 1
  12    6    7 1
  13    7    8 am
  14    7   26 1
  15    8    9 1
  16    8   10 2
  17    9   21 1
  18    9   27 1
  19    9   28 1
  20   11   12 am
  21   11   29 1
  22   12   13 1
  23   12   14 2
  24   13   15 1
  25   13   30 1
  26   13   31 1
  27   15   16 1
  28   15   32 1
  29   15   33 1
  30   16   17 1
  31   16   18 1
  32   16   34 1
  33   17   35 1
  34   17   36 1
  35   17   37 1
  36   18   38 1
  37   18   39 1
  38   18   40 1
  39   19   20 1
  40   19   41 1
  41   19   42 1
  42   19   43 1
  43   20   21 1
  44   20   44 1
  45   20   45 1
  46   21   46 1
  47   21   47 1

#	End of record

