#	Name: ASD01510076
#	Creating user name:	WinNT
#	Creation time:	15. 06. 2019 19:21

#	Modifying user name:	WinNT
#	Modification time:	15. 06. 2019 19:21

#	Program:	/corina/corina34_cracker 3.40 0067  02.08.2006

@<TRIPOS>MOLECULE
ASD01510076
  40   42    0    0    0
SMALL
NO_CHARGES


@<TRIPOS>ATOM
   1 N1            -0.0167     1.3811     0.0096 N.pl3   
   2 C2             0.0021    -0.0041     0.0020 C.ar    
   3 C3             1.2151    -0.6961    -0.0133 C.ar    
   4 C4             1.1860    -2.0773    -0.0205 C.ar    
   5 N5             0.0174    -2.7011    -0.0127 N.ar    
   6 C6            -1.1189    -2.0187     0.0018 C.ar    
   7 N7            -1.1339    -0.6938     0.0147 N.ar    
   8 S8            -2.6473    -2.8954     0.0110 S.3     
   9 C9            -2.0495    -4.5528    -0.0040 C.ar    
  10 C10           -1.7966    -5.2300     1.1856 C.ar    
  11 C11           -2.0308    -4.5558     2.5129 C.3     
  12 N12           -1.3484    -6.4734     1.1354 N.ar    
  13 C13           -1.1404    -7.0732    -0.0270 C.ar    
  14 N14           -1.3699    -6.4602    -1.1783 N.ar    
  15 C15           -1.8244    -5.2183    -1.2058 C.ar    
  16 C16           -2.0831    -4.5288    -2.5207 C.3     
  17 N17           -0.6694    -8.3774    -0.0389 N.3     
  18 C18           -0.5035    -8.8652    -1.4158 C.3     
  19 C19            0.0730   -10.2831    -1.3832 C.3     
  20 O20           -0.7876   -11.1245    -0.6108 O.3     
  21 C21           -0.9709   -10.6793     0.7359 C.3     
  22 C22           -1.5580    -9.2654     0.7248 C.3     
  23 H23            0.8166     1.8775     0.0043 H       
  24 H24           -0.8632     1.8547     0.0162 H       
  25 H25            2.1546    -0.1635    -0.0197 H       
  26 H26            2.1062    -2.6425    -0.0326 H       
  27 H27           -3.0538    -4.7423     2.8396 H       
  28 H28           -1.3351    -4.9550     3.2509 H       
  29 H29           -1.8728    -3.4824     2.4080 H       
  30 H30           -3.1106    -4.7156    -2.8329 H       
  31 H31           -1.9278    -3.4561    -2.4051 H       
  32 H32           -1.3980    -4.9160    -3.2749 H       
  33 H33           -1.4715    -8.8772    -1.9167 H       
  34 H34            0.1780    -8.2074    -1.9552 H       
  35 H35            0.1443   -10.6704    -2.3996 H       
  36 H36            1.0643   -10.2626    -0.9304 H       
  37 H37           -1.6546   -11.3532     1.2522 H       
  38 H38           -0.0100   -10.6704     1.2503 H       
  39 H39           -1.6462    -8.8999     1.7479 H       
  40 H40           -2.5429    -9.2839     0.2581 H       
@<TRIPOS>BOND
   1    1    2 1
   2    1   23 1
   3    1   24 1
   4    2    3 ar
   5    2    7 ar
   6    3    4 ar
   7    3   25 1
   8    4    5 ar
   9    4   26 1
  10    5    6 ar
  11    6    7 ar
  12    6    8 1
  13    8    9 1
  14    9   10 ar
  15    9   15 ar
  16   10   11 1
  17   10   12 ar
  18   11   27 1
  19   11   28 1
  20   11   29 1
  21   12   13 ar
  22   13   14 ar
  23   13   17 1
  24   14   15 ar
  25   15   16 1
  26   16   30 1
  27   16   31 1
  28   16   32 1
  29   17   18 1
  30   17   22 1
  31   18   19 1
  32   18   33 1
  33   18   34 1
  34   19   20 1
  35   19   35 1
  36   19   36 1
  37   20   21 1
  38   21   22 1
  39   21   37 1
  40   21   38 1
  41   22   39 1
  42   22   40 1

#	End of record

