#	Name: ASD01815614
#	Creating user name:	WinNT
#	Creation time:	15. 06. 2019 19:33

#	Modifying user name:	WinNT
#	Modification time:	15. 06. 2019 19:33

#	Program:	/corina/corina34_cracker 3.40 0067  02.08.2006

@<TRIPOS>MOLECULE
ASD01815614
  37   39    0    0    0
SMALL
NO_CHARGES


@<TRIPOS>ATOM
   1 C1             1.7237     2.4339     0.9723 C.ar    
   2 C2             1.2348     1.1371     1.0368 C.ar    
   3 C3             2.0270     0.0669     0.6759 C.ar    
   4 C4             3.3338     0.2844     0.2403 C.ar    
   5 C5             3.8245     1.5991     0.1762 C.ar    
   6 C6             3.0114     2.6709     0.5449 C.ar    
   7 N7             4.1367    -0.7760    -0.1229 N.pl3   
   8 C8             5.3971    -0.6200    -0.5464 C.2     
   9 C9             5.9892     0.6227    -0.6515 C.2     
  10 C10            5.2083     1.8155    -0.2862 C.2     
  11 O11            5.6850     2.9343    -0.3617 O.2     
  12 C12            7.3761     0.7523    -1.1203 C.2     
  13 O13            8.0118    -0.2398    -1.4194 O.2     
  14 O14            7.9432     1.9713    -1.2187 O.3     
  15 C15            3.5871    -2.1316    -0.0416 C.3     
  16 C16            3.7172    -2.6426     1.3702 C.ar    
  17 C17            4.9611    -2.6958     1.9754 C.ar    
  18 C18            5.0791    -3.1656     3.2727 C.ar    
  19 C19            3.9555    -3.5806     3.9616 C.ar    
  20 C20            2.7137    -3.5269     3.3561 C.ar    
  21 C21            2.5939    -3.0529     2.0632 C.ar    
  22 F22            1.5376    -1.1904     0.7447 F       
  23 C23            1.4890    -3.9803     4.1082 C.3     
  24 F24            6.0591    -2.2902     1.3008 F       
  25 F25            1.8595    -4.4086     5.3875 F       
  26 F26            0.5872    -2.9162     4.2156 F       
  27 F27            0.8836    -5.0371     3.4198 F       
  28 H28            1.0900     3.2617     1.2543 H       
  29 H29            0.2234     0.9635     1.3734 H       
  30 H30            3.3895     3.6813     0.4949 H       
  31 H31            5.9699    -1.4955    -0.8144 H       
  32 H32            8.8574     2.0062    -1.5318 H       
  33 H33            2.5351    -2.1149    -0.3264 H       
  34 H34            4.1361    -2.7874    -0.7174 H       
  35 H35            6.0491    -3.2079     3.7458 H       
  36 H36            4.0474    -3.9474     4.9733 H       
  37 H37            1.6234    -3.0114     1.5912 H       
@<TRIPOS>BOND
   1    1    2 ar
   2    1    6 ar
   3    1   28 1
   4    2    3 ar
   5    2   29 1
   6    3    4 ar
   7    3   22 1
   8    4    5 ar
   9    4    7 1
  10    5    6 ar
  11    5   10 1
  12    6   30 1
  13    7    8 1
  14    7   15 1
  15    8    9 2
  16    8   31 1
  17    9   10 1
  18    9   12 1
  19   10   11 2
  20   12   13 2
  21   12   14 1
  22   14   32 1
  23   15   16 1
  24   15   33 1
  25   15   34 1
  26   16   17 ar
  27   16   21 ar
  28   17   18 ar
  29   17   24 1
  30   18   19 ar
  31   18   35 1
  32   19   20 ar
  33   19   36 1
  34   20   21 ar
  35   20   23 1
  36   21   37 1
  37   23   25 1
  38   23   26 1
  39   23   27 1

#	End of record

