#	Name: ASD01911972
#	Creating user name:	WinNT
#	Creation time:	15. 06. 2019 19:58

#	Modifying user name:	WinNT
#	Modification time:	15. 06. 2019 19:58

#	Program:	/corina/corina34_cracker 3.40 0067  02.08.2006

@<TRIPOS>MOLECULE
ASD01911972
  41   43    0    0    0
SMALL
NO_CHARGES


@<TRIPOS>ATOM
   1 C1             0.7763     1.1503    -0.1309 C.ar    
   2 C2             0.5678    -0.2269    -0.1277 C.ar    
   3 C3             1.6761    -1.0618    -0.2491 C.ar    
   4 N4             2.8775    -0.5204    -0.3621 N.ar    
   5 C5             3.0330     0.7883    -0.3609 C.ar    
   6 N6             2.0102     1.6119    -0.2482 N.ar    
   7 N7            -0.7195    -0.7571    -0.0055 N.pl3   
   8 C8            -0.9079    -2.1428    -0.0044 C.ar    
   9 C9            -1.3089    -4.1879    -1.2006 C.ar    
  10 C10           -1.2835    -4.8901    -0.0106 C.ar    
  11 C11           -1.0751    -4.2207     1.1888 C.ar    
  12 C12           -0.8873    -2.8458     1.1917 C.ar    
  13 N13           -1.0498    -4.9332     2.3928 N.am    
  14 C14           -1.5526    -4.3797     3.5140 C.2     
  15 C15           -1.6204    -5.1709     4.7645 C.ar    
  16 O16           -1.9504    -3.2314     3.4992 O.2     
  17 N17           -1.1844    -6.4245     4.7745 N.ar    
  18 C18           -1.1218    -2.8177    -1.2021 C.ar    
  19 F19           -1.1471    -2.1340    -2.3671 F       
  20 C20           -1.8717     0.1388     0.1215 C.3     
  21 C21           -1.2268    -7.1611     5.8634 C.ar    
  22 C22           -1.7320    -6.6509     7.0484 C.ar    
  23 C23           -2.1982    -5.3458     7.0824 C.ar    
  24 C24           -2.1360    -4.5911     5.9217 C.ar    
  25 C25           -2.7546    -4.7591     8.3542 C.3     
  26 F26           -2.7004    -5.7170     9.3723 F       
  27 F27           -1.9966    -3.6427     8.7234 F       
  28 F28           -4.0832    -4.3730     8.1473 F       
  29 H29           -0.0575     1.8311    -0.0434 H       
  30 H30            1.5563    -2.1351    -0.2505 H       
  31 H31            4.0279     1.1980    -0.4546 H       
  32 H32           -1.4708    -4.7108    -2.1316 H       
  33 H33           -1.4303    -5.9601    -0.0125 H       
  34 H34           -0.7252    -2.3239     2.1232 H       
  35 H35           -0.6704    -5.8255     2.4204 H       
  36 H36           -2.2599     0.3742    -0.8694 H       
  37 H37           -2.6487    -0.3496     0.7096 H       
  38 H38           -1.5637     1.0585     0.6189 H       
  39 H39           -0.8631    -8.1775     5.8333 H       
  40 H40           -1.7627    -7.2642     7.9368 H       
  41 H41           -2.4903    -3.5709     5.9122 H       
@<TRIPOS>BOND
   1    1    2 ar
   2    1    6 ar
   3    1   29 1
   4    2    3 ar
   5    2    7 1
   6    3    4 ar
   7    3   30 1
   8    4    5 ar
   9    5    6 ar
  10    5   31 1
  11    7    8 1
  12    7   20 1
  13    8   18 ar
  14    8   12 ar
  15    9   10 ar
  16    9   18 ar
  17    9   32 1
  18   10   11 ar
  19   10   33 1
  20   11   12 ar
  21   11   13 1
  22   12   34 1
  23   13   14 am
  24   13   35 1
  25   14   15 1
  26   14   16 2
  27   15   17 ar
  28   15   24 ar
  29   17   21 ar
  30   18   19 1
  31   20   36 1
  32   20   37 1
  33   20   38 1
  34   21   22 ar
  35   21   39 1
  36   22   23 ar
  37   22   40 1
  38   23   24 ar
  39   23   25 1
  40   24   41 1
  41   25   26 1
  42   25   27 1
  43   25   28 1

#	End of record

