#	Name: ASD02448008
#	Creating user name:	WinNT
#	Creation time:	15. 06. 2019 20:21

#	Modifying user name:	WinNT
#	Modification time:	15. 06. 2019 20:21

#	Program:	/corina/corina34_cracker 3.40 0067  02.08.2006

@<TRIPOS>MOLECULE
ASD02448008
  68   73    0    0    0
SMALL
NO_CHARGES


@<TRIPOS>ATOM
   1 C1            -0.0094     1.3525     0.0412 C.ar    
   2 C2             0.0091    -0.0276     0.0179 C.ar    
   3 C3             1.2205    -0.7057     0.0106 C.ar    
   4 C4             2.4137     0.0037     0.0272 C.ar    
   5 C5             2.3961     1.3838     0.0505 C.ar    
   6 C6             1.1843     2.0628     0.0574 C.ar    
   7 N7             1.1660     3.4606     0.0805 N.am    
   8 C8             0.1060     4.3574    -0.3982 C.3     
   9 C9             0.4731     5.7916    -0.1919 C.2     
  10 N10            1.6707     5.9884     0.3771 N.am    
  11 S11            2.3401     4.4917     0.6649 S.o2    
  12 O12           -0.2556     6.7058    -0.5145 O.2     
  13 O13            2.3947     4.3208     2.0745 O.2     
  14 O14            3.4652     4.3637    -0.1936 O.2     
  15 N15            1.2388    -2.1090    -0.0130 N.pl3   
  16 C16            0.6283    -2.9438     0.8838 C.2     
  17 C17            1.8608    -2.8909    -0.9336 C.2     
  18 N18            1.6574    -4.1427    -0.6302 N.2     
  19 C19            0.9018    -4.2134     0.4843 C.2     
  20 C20            0.4493    -5.4568     1.1554 C.ar    
  21 C21            0.8039    -6.7016     0.6353 C.ar    
  22 C22           -0.3265    -5.3853     2.3104 C.ar    
  23 C23           -0.7451    -6.5449     2.9310 C.ar    
  24 C24           -0.3957    -7.7780     2.4082 C.ar    
  25 C25            0.3799    -7.8556     1.2640 C.ar    
  26 Cl26          -0.9252    -9.2323     3.1945 Cl      
  27 Cl27           1.7759    -6.7998    -0.7998 Cl      
  28 C28            2.6557    -2.3929    -2.1131 C.3     
  29 C29            1.7741    -2.3594    -3.3349 C.ar    
  30 C30            0.9822    -1.2528    -3.5831 C.ar    
  31 C31            1.7639    -3.4330    -4.2069 C.ar    
  32 C32            0.9584    -3.4076    -5.3274 C.ar    
  33 C33            0.1545    -2.2979    -5.5793 C.ar    
  34 C34            0.1726    -1.2170    -4.7003 C.ar    
  35 C35           -0.7133    -2.2647    -6.7827 C.ar    
  36 C36           -0.7260    -3.3450    -7.6646 C.ar    
  37 C37           -1.5192    -1.1588    -7.0296 C.ar    
  38 C38           -2.3321    -1.1347    -8.1626 C.ar    
  39 C39           -2.3314    -2.2205    -9.0410 C.ar    
  40 C40           -1.5326    -3.3171    -8.7855 C.ar    
  41 C41           -3.1920     0.0360    -8.4326 C.2     
  42 O42           -3.9764     0.0573    -9.5275 O.3     
  43 O43           -3.1916     0.9793    -7.6673 O.2     
  44 C44           -4.7948     1.2396    -9.7292 C.3     
  45 H45           -0.9518     1.8801     0.0424 H       
  46 H46           -0.9189    -0.5799     0.0058 H       
  47 H47            3.3558    -0.5242     0.0223 H       
  48 H48            3.3244     1.9356     0.0638 H       
  49 H49           -0.0584     4.1804    -1.4611 H       
  50 H50           -0.8149     4.1430     0.1441 H       
  51 H51            2.0725     6.8462     0.5859 H       
  52 H52            0.0427    -2.6503     1.7425 H       
  53 H53           -0.5997    -4.4239     2.7197 H       
  54 H54           -1.3462    -6.4900     3.8266 H       
  55 H55            0.6498    -8.8201     0.8600 H       
  56 H56            3.0255    -1.3891    -1.9043 H       
  57 H57            3.4984    -3.0608    -2.2914 H       
  58 H58            0.9973    -0.4153    -2.9013 H       
  59 H59            2.3877    -4.2926    -4.0109 H       
  60 H60            0.9515    -4.2463    -6.0078 H       
  61 H61           -0.4486    -0.3543    -4.8908 H       
  62 H62           -0.1031    -4.2058    -7.4707 H       
  63 H63           -1.5160    -0.3221    -6.3467 H       
  64 H64           -2.9600    -2.2042    -9.9191 H       
  65 H65           -1.5347    -4.1545    -9.4675 H       
  66 H66           -4.1524     2.1163    -9.8120 H       
  67 H67           -5.3761     1.1274   -10.6444 H       
  68 H68           -5.4702     1.3628    -8.8825 H       
@<TRIPOS>BOND
   1    1    2 ar
   2    1    6 ar
   3    1   45 1
   4    2    3 ar
   5    2   46 1
   6    3    4 ar
   7    3   15 1
   8    4    5 ar
   9    4   47 1
  10    5    6 ar
  11    5   48 1
  12    6    7 1
  13    7    8 1
  14    7   11 am
  15    8    9 1
  16    8   49 1
  17    8   50 1
  18    9   10 am
  19    9   12 2
  20   10   11 am
  21   10   51 1
  22   11   13 2
  23   11   14 2
  24   15   16 1
  25   15   17 1
  26   16   19 2
  27   16   52 1
  28   17   18 2
  29   17   28 1
  30   18   19 1
  31   19   20 1
  32   20   21 ar
  33   20   22 ar
  34   21   27 1
  35   21   25 ar
  36   22   23 ar
  37   22   53 1
  38   23   24 ar
  39   23   54 1
  40   24   25 ar
  41   24   26 1
  42   25   55 1
  43   28   29 1
  44   28   56 1
  45   28   57 1
  46   29   30 ar
  47   29   31 ar
  48   30   34 ar
  49   30   58 1
  50   31   32 ar
  51   31   59 1
  52   32   33 ar
  53   32   60 1
  54   33   34 ar
  55   33   35 1
  56   34   61 1
  57   35   36 ar
  58   35   37 ar
  59   36   40 ar
  60   36   62 1
  61   37   38 ar
  62   37   63 1
  63   38   39 ar
  64   38   41 1
  65   39   40 ar
  66   39   64 1
  67   40   65 1
  68   41   42 1
  69   41   43 2
  70   42   44 1
  71   44   66 1
  72   44   67 1
  73   44   68 1

#	End of record

