#	Name: ASD01813277
#	Creating user name:	WinNT
#	Creation time:	15. 06. 2019 19:30

#	Modifying user name:	WinNT
#	Modification time:	15. 06. 2019 19:30

#	Program:	/corina/corina34_cracker 3.40 0067  02.08.2006

@<TRIPOS>MOLECULE
ASD01813277
  52   55    0    0    0
SMALL
NO_CHARGES


@<TRIPOS>ATOM
   1 C1             0.0451     1.5047     0.0053 C.3     
   2 C2             0.0457    -0.0023    -0.0021 C.ar    
   3 C3            -0.0403    -0.7059    -1.1900 C.ar    
   4 C4            -0.0371    -2.0917    -1.1677 C.ar    
   5 N5             0.0461    -2.7551    -0.0339 N.ar    
   6 C6             0.1305    -2.1259     1.1313 C.ar    
   7 C7             0.2320    -2.5797     2.5301 C.2     
   8 C8             0.2869    -1.4547     3.3008 C.2     
   9 N9             0.2290    -0.3561     2.5122 N.pl3   
  10 C10            0.2631     1.0254     2.9983 C.3     
  11 C11            0.2766     1.0275     4.5053 C.ar    
  12 C12           -0.9089     1.1449     5.2065 C.ar    
  13 C13           -0.8977     1.1470     6.5884 C.ar    
  14 C14            0.3015     1.0308     7.2707 C.ar    
  15 F15            0.3137     1.0322     8.6216 F       
  16 C16            1.4883     0.9128     6.5673 C.ar    
  17 C17            1.4741     0.9062     5.1854 C.ar    
  18 C18            0.1387    -0.7221     1.1861 C.ar    
  19 C19            0.2668    -3.9707     3.0022 C.2     
  20 O20            0.2093    -4.8861     2.2027 O.2     
  21 N21            0.3624    -4.2327     4.3208 N.am    
  22 C22            0.3972    -5.6196     4.7914 C.3     
  23 H23           -0.2396    -6.2350     4.1559 H       
  24 C24            1.8339    -6.1422     4.7328 C.3     
  25 C25            1.8702    -7.5907     5.2243 C.3     
  26 C26            1.3634    -7.6526     6.6666 C.3     
  27 C27           -0.0733    -7.1299     6.7253 C.3     
  28 C28           -0.1096    -5.6815     6.2338 C.3     
  29 H29            0.5272    -5.0661     6.8693 H       
  30 O30           -1.4515    -5.1933     6.2886 O.3     
  31 H31            1.0722     1.8683     0.0374 H       
  32 H32           -0.4424     1.8722    -0.8977 H       
  33 H33           -0.4949     1.8635     0.8815 H       
  34 H34           -0.1099    -0.1782    -2.1297 H       
  35 H35           -0.1044    -2.6371    -2.0974 H       
  36 H36            0.3647    -1.4428     4.3779 H       
  37 H37            1.1606     1.5195     2.6262 H       
  38 H38           -0.6189     1.5578     2.6422 H       
  39 H39           -1.8443     1.2355     4.6742 H       
  40 H40           -1.8240     1.2394     7.1361 H       
  41 H41            2.4243     0.8225     7.0983 H       
  42 H42            2.3993     0.8100     4.6365 H       
  43 H43            0.4083    -3.5029     4.9581 H       
  44 H44            2.1949    -6.0981     3.7052 H       
  45 H45            2.4707    -5.5268     5.3683 H       
  46 H46            1.2334    -8.2061     4.5888 H       
  47 H47            2.8937    -7.9630     5.1825 H       
  48 H48            1.3893    -8.6845     7.0168 H       
  49 H49            2.0002    -7.0372     7.3022 H       
  50 H50           -0.7101    -7.7453     6.0898 H       
  51 H51           -0.4343    -7.1740     7.7529 H       
  52 H52           -1.8378    -5.2035     7.1750 H       
@<TRIPOS>BOND
   1    1    2 1
   2    1   31 1
   3    1   32 1
   4    1   33 1
   5    2   18 ar
   6    2    3 ar
   7    3    4 ar
   8    3   34 1
   9    4    5 ar
  10    4   35 1
  11    5    6 ar
  12    6   18 ar
  13    6    7 1
  14    7    8 2
  15    7   19 1
  16    8    9 1
  17    8   36 1
  18    9   10 1
  19    9   18 1
  20   10   11 1
  21   10   37 1
  22   10   38 1
  23   11   17 ar
  24   11   12 ar
  25   12   13 ar
  26   12   39 1
  27   13   14 ar
  28   13   40 1
  29   14   15 1
  30   14   16 ar
  31   16   17 ar
  32   16   41 1
  33   17   42 1
  34   19   20 2
  35   19   21 am
  36   21   22 1
  37   21   43 1
  38   22   23 1
  39   22   28 1
  40   22   24 1
  41   24   25 1
  42   24   44 1
  43   24   45 1
  44   25   26 1
  45   25   46 1
  46   25   47 1
  47   26   27 1
  48   26   48 1
  49   26   49 1
  50   27   28 1
  51   27   50 1
  52   27   51 1
  53   28   29 1
  54   28   30 1
  55   30   52 1

#	End of record

