#	Name: ASD01151115
#	Creating user name:	WinNT
#	Creation time:	15. 06. 2019 19:05

#	Modifying user name:	WinNT
#	Modification time:	15. 06. 2019 19:05

#	Program:	/corina/corina34_cracker 3.40 0067  02.08.2006

@<TRIPOS>MOLECULE
ASD01151115
  44   47    0    0    0
SMALL
NO_CHARGES


@<TRIPOS>ATOM
   1 N1            -0.0164     1.3597     0.0095 N.pl3   
   2 C2             0.0021    -0.0041     0.0020 C.2     
   3 N3             1.1521    -0.6894    -0.0131 N.2     
   4 C4             2.3189    -0.0940    -0.0214 C.2     
   5 C5             2.3837     1.3203    -0.0143 C.ar    
   6 C6             3.6096     1.9980    -0.0225 C.ar    
   7 C7             3.6286     3.3616    -0.0153 C.ar    
   8 C8             2.4386     4.0892     0.0006 C.ar    
   9 C9             1.2163     3.4390     0.0090 C.ar    
  10 C10            1.1783     2.0530     0.0018 C.ar    
  11 N11           -1.3501     1.7805     0.0301 N.2     
  12 C12           -2.1356     0.7378     0.0355 C.2     
  13 C13           -1.3404    -0.4245     0.0132 C.2     
  14 C14           -1.8204    -1.8092     0.0100 C.2     
  15 O15           -1.0245    -2.7286    -0.0109 O.2     
  16 O16           -3.1446    -2.0639     0.0303 O.3     
  17 O17            2.4794     5.4462     0.0084 O.3     
  18 C18            3.7714     6.0565    -0.0004 C.3     
  19 C19           -3.5477    -3.4589     0.0258 C.3     
  20 C20           -5.0519    -3.5472     0.0505 C.ar    
  21 C21           -5.6747    -4.7871     0.0510 C.ar    
  22 C22           -7.0594    -4.8650     0.0737 C.ar    
  23 C23           -7.8150    -3.7085     0.0958 C.ar    
  24 C24           -7.1921    -2.4743     0.0948 C.ar    
  25 C25           -5.8116    -2.3940     0.0784 C.ar    
  26 O26           -4.9293    -5.9232     0.0288 O.3     
  27 C27           -5.6379    -7.1642     0.0307 C.3     
  28 H28            3.2267    -0.6790    -0.0332 H       
  29 H29            4.5359     1.4430    -0.0341 H       
  30 H30            4.5742     3.8832    -0.0216 H       
  31 H31            0.2982     4.0077     0.0214 H       
  32 H32           -3.2152     0.7624     0.0509 H       
  33 H33            3.6611     7.1409     0.0072 H       
  34 H34            4.3280     5.7417     0.8824 H       
  35 H35            4.3108     5.7524    -0.8975 H       
  36 H36           -3.1700    -3.9433    -0.8746 H       
  37 H37           -3.1399    -3.9577     0.9050 H       
  38 H38           -7.5466    -5.8289     0.0738 H       
  39 H39           -8.8932    -3.7686     0.1135 H       
  40 H40           -7.7844    -1.5714     0.1114 H       
  41 H41           -5.3272    -1.4287     0.0826 H       
  42 H42           -6.2489    -7.2323     0.9308 H       
  43 H43           -6.2795    -7.2176    -0.8488 H       
  44 H44           -4.9258    -7.9892     0.0117 H       
@<TRIPOS>BOND
   1    1    2 1
   2    1   10 1
   3    1   11 1
   4    2    3 1
   5    2   13 2
   6    3    4 2
   7    4    5 1
   8    4   28 1
   9    5    6 ar
  10    5   10 ar
  11    6    7 ar
  12    6   29 1
  13    7    8 ar
  14    7   30 1
  15    8    9 ar
  16    8   17 1
  17    9   10 ar
  18    9   31 1
  19   11   12 2
  20   12   13 1
  21   12   32 1
  22   13   14 1
  23   14   15 2
  24   14   16 1
  25   16   19 1
  26   17   18 1
  27   18   33 1
  28   18   34 1
  29   18   35 1
  30   19   20 1
  31   19   36 1
  32   19   37 1
  33   20   21 ar
  34   20   25 ar
  35   21   22 ar
  36   21   26 1
  37   22   23 ar
  38   22   38 1
  39   23   24 ar
  40   23   39 1
  41   24   25 ar
  42   24   40 1
  43   25   41 1
  44   26   27 1
  45   27   42 1
  46   27   43 1
  47   27   44 1

#	End of record

