#	Name: ASD01410059
#	Creating user name:	WinNT
#	Creation time:	15. 06. 2019 19:16

#	Modifying user name:	WinNT
#	Modification time:	15. 06. 2019 19:16

#	Program:	/corina/corina34_cracker 3.40 0067  02.08.2006

@<TRIPOS>MOLECULE
ASD01410059
  34   35    0    0    0
SMALL
NO_CHARGES


@<TRIPOS>ATOM
   1 C1            -0.0277     1.4074    -0.0675 C.ar    
   2 C2            -0.0048     0.0235    -0.0690 C.ar    
   3 C3            -1.1887    -0.6883    -0.0491 C.ar    
   4 C4            -2.4029    -0.0148    -0.0271 C.ar    
   5 C5            -2.4246     1.3739    -0.0251 C.ar    
   6 C6            -1.2380     2.0822    -0.0398 C.ar    
   7 N7            -3.6019    -0.7337    -0.0074 N.pl3   
   8 C8            -4.8823    -0.0222     0.0158 C.3     
   9 C9            -6.0113    -1.0202     0.0339 C.2     
  10 N10           -7.2890    -0.5919     0.0567 N.am    
  11 C11           -8.3326    -1.5089    -0.0398 C.ar    
  12 C12           -8.1945    -2.6424    -0.8292 C.ar    
  13 C13           -9.2304    -3.5502    -0.9235 C.ar    
  14 C14          -10.4133    -3.3388    -0.2340 C.ar    
  15 C15          -10.5688    -2.2193     0.5546 C.ar    
  16 C16           -9.5273    -1.2947     0.6651 C.ar    
  17 C17           -9.6866    -0.0955     1.5070 C.2     
  18 O18          -10.8738     0.1671     2.0878 O.3     
  19 O19           -8.7473     0.6564     1.6774 O.2     
  20 O20           -5.7702    -2.2087     0.0280 O.2     
  21 Cl21          -1.2637     3.8180    -0.0368 Cl      
  22 F22            1.1312     2.1013    -0.0874 F       
  23 H23            0.9395    -0.5004    -0.0862 H       
  24 H24           -1.1699    -1.7682    -0.0510 H       
  25 H25           -3.3678     1.8996    -0.0084 H       
  26 H26           -3.5860    -1.7036    -0.0091 H       
  27 H27           -4.9349     0.6021     0.9078 H       
  28 H28           -4.9657     0.6047    -0.8719 H       
  29 H29           -7.4817     0.3551     0.1403 H       
  30 H30           -7.2758    -2.8141    -1.3704 H       
  31 H31           -9.1180    -4.4305    -1.5389 H       
  32 H32          -11.2177    -4.0548    -0.3152 H       
  33 H33          -11.4931    -2.0591     1.0897 H       
  34 H34          -10.9299     0.9652     2.6310 H       
@<TRIPOS>BOND
   1    1    2 ar
   2    1   22 1
   3    1    6 ar
   4    2    3 ar
   5    2   23 1
   6    3    4 ar
   7    3   24 1
   8    4    5 ar
   9    4    7 1
  10    5    6 ar
  11    5   25 1
  12    6   21 1
  13    7    8 1
  14    7   26 1
  15    8    9 1
  16    8   27 1
  17    8   28 1
  18    9   10 am
  19    9   20 2
  20   10   11 1
  21   10   29 1
  22   11   12 ar
  23   11   16 ar
  24   12   13 ar
  25   12   30 1
  26   13   14 ar
  27   13   31 1
  28   14   15 ar
  29   14   32 1
  30   15   16 ar
  31   15   33 1
  32   16   17 1
  33   17   18 1
  34   17   19 2
  35   18   34 1

#	End of record

