#	Name: ASD01810865
#	Creating user name:	WinNT
#	Creation time:	15. 06. 2019 19:25

#	Modifying user name:	WinNT
#	Modification time:	15. 06. 2019 19:25

#	Program:	/corina/corina34_cracker 3.40 0067  02.08.2006

@<TRIPOS>MOLECULE
ASD01810865
  28   29    0    0    0
SMALL
NO_CHARGES


@<TRIPOS>ATOM
   1 C1            -0.0180     1.4730     0.0101 C.2     
   2 C2             0.0021    -0.0041     0.0020 C.ar    
   3 C3             1.2188    -0.6888    -0.0133 C.ar    
   4 C4             1.2303    -2.0682    -0.0203 C.ar    
   5 C5             0.0396    -2.7731    -0.0127 C.ar    
   6 C6            -1.1697    -2.1009     0.0020 C.ar    
   7 C7            -1.1956    -0.7217     0.0154 C.ar    
   8 O8             1.0256     2.0946     0.0035 O.2     
   9 O9            -1.1936     2.1307     0.0193 O.3     
  10 C10            0.0601    -4.2800    -0.0210 C.3     
  11 C11           -0.6243    -4.9121     1.2025 C.3     
  12 C12           -1.2031    -5.9610     0.2384 C.3     
  13 C13           -1.0575    -4.9066    -0.8714 C.3     
  14 C14           -1.1373     3.5816     0.0269 C.3     
  15 H15            2.1488    -0.1398    -0.0199 H       
  16 H16            2.1707    -2.5992    -0.0321 H       
  17 H17           -2.0953    -2.6572     0.0071 H       
  18 H18           -2.1401    -0.1983     0.0318 H       
  19 H19            1.0492    -4.6887    -0.2277 H       
  20 H20            0.0752    -5.3256     1.9290 H       
  21 H21           -1.3809    -4.2732     1.6581 H       
  22 H22           -0.5600    -6.8304     0.1018 H       
  23 H23           -2.2377    -6.2283     0.4538 H       
  24 H24           -1.9326    -4.2662    -0.9828 H       
  25 H25           -0.7077    -5.3157    -1.8192 H       
  26 H26           -2.1501     3.9844     0.0339 H       
  27 H27           -0.6055     3.9199     0.9162 H       
  28 H28           -0.6140     3.9295    -0.8637 H       
@<TRIPOS>BOND
   1    1    2 1
   2    1    8 2
   3    1    9 1
   4    2    3 ar
   5    2    7 ar
   6    3    4 ar
   7    3   15 1
   8    4    5 ar
   9    4   16 1
  10    5    6 ar
  11    5   10 1
  12    6    7 ar
  13    6   17 1
  14    7   18 1
  15    9   14 1
  16   10   11 1
  17   10   13 1
  18   10   19 1
  19   11   12 1
  20   11   20 1
  21   11   21 1
  22   12   13 1
  23   12   22 1
  24   12   23 1
  25   13   24 1
  26   13   25 1
  27   14   26 1
  28   14   27 1
  29   14   28 1

#	End of record

