#	Name: ASD09690004
#	Creating user name:	WinNT
#	Creation time:	15. 06. 2019 21:22

#	Modifying user name:	WinNT
#	Modification time:	15. 06. 2019 21:22

#	Program:	/corina/corina34_cracker 3.40 0067  02.08.2006

@<TRIPOS>MOLECULE
ASD09690004
  46   48    0    0    0
SMALL
NO_CHARGES


@<TRIPOS>ATOM
   1 P1            -0.0180     1.4758     0.0102 P.3     
   2 O2             0.0021    -0.0041     0.0020 O.2     
   3 O3             1.4924     2.0330    -0.0013 O.3     
   4 O4            -0.7967     2.0091    -1.2942 O.3     
   5 O5            -0.7716     1.9950     1.3348 O.3     
   6 P6            -2.0773     1.5092     2.1417 P.3     
   7 O7            -3.1301     1.1090     1.1816 O.2     
   8 O8            -1.6956     0.2531     3.0739 O.3     
   9 O9            -2.6194     2.7146     3.0611 O.3     
  10 P10           -3.9992     2.9913     3.8432 P.3     
  11 O11           -4.4124     1.7661     4.5632 O.2     
  12 O12           -5.1416     3.4039     2.7865 O.3     
  13 O13           -3.7869     4.1884     4.8987 O.3     
  14 C14           -4.7977     4.6015     5.8205 C.3     
  15 C15           -4.2691     5.7569     6.6729 C.3     
  16 O16           -4.0509     6.9300     5.8600 O.3     
  17 C17           -5.3414     6.2180     7.6927 C.3     
  18 C18           -4.9205     7.6824     7.9661 C.3     
  19 C19           -4.0592     8.0620     6.7460 C.3     
  20 N20           -4.6415     9.2220     6.0667 N.pl3   
  21 C21           -5.5003     9.1894     5.0065 C.2     
  22 N22           -5.8165    10.4023     4.6577 N.2     
  23 C23           -5.1822    11.2825     5.4699 C.2     
  24 C24           -5.1495    12.6939     5.5587 C.2     
  25 O25           -5.7945    13.3835     4.7874 O.2     
  26 N26           -4.3860    13.2589     6.5200 N.am    
  27 C27           -3.6693    12.4784     7.3772 C.2     
  28 N28           -2.9031    13.0799     8.3438 N.pl3   
  29 N29           -3.6911    11.1662     7.3051 N.2     
  30 C30           -4.4283    10.5363     6.3829 C.2     
  31 H31            2.0070     1.7589    -0.7727 H       
  32 H32           -0.8486     2.9728    -1.3546 H       
  33 H33           -1.0099     0.4433     3.7286 H       
  34 H34           -4.9375     4.2004     2.2775 H       
  35 H35           -5.6793     4.9299     5.2700 H       
  36 H36           -5.0637     3.7652     6.4670 H       
  37 H37           -3.3504     5.4671     7.1829 H       
  38 H38           -6.3386     6.1752     7.2547 H       
  39 H39           -5.2926     5.6225     8.6044 H       
  40 H40           -5.7979     8.3262     8.0289 H       
  41 H41           -4.3333     7.7459     8.8822 H       
  42 H42           -3.0424     8.2893     7.0663 H       
  43 H43           -5.8631     8.2914     4.5287 H       
  44 H44           -4.3475    14.2249     6.6001 H       
  45 H45           -2.8771    14.0473     8.4097 H       
  46 H46           -2.3875    12.5377     8.9611 H       
@<TRIPOS>BOND
   1    1    2 2
   2    1    3 1
   3    1    4 1
   4    1    5 1
   5    3   31 1
   6    4   32 1
   7    5    6 1
   8    6    7 2
   9    6    8 1
  10    6    9 1
  11    8   33 1
  12    9   10 1
  13   10   11 2
  14   10   12 1
  15   10   13 1
  16   12   34 1
  17   13   14 1
  18   14   15 1
  19   14   35 1
  20   14   36 1
  21   15   16 1
  22   15   17 1
  23   15   37 1
  24   16   19 1
  25   17   18 1
  26   17   38 1
  27   17   39 1
  28   18   19 1
  29   18   40 1
  30   18   41 1
  31   19   20 1
  32   19   42 1
  33   20   21 1
  34   20   30 1
  35   21   22 2
  36   21   43 1
  37   22   23 1
  38   23   24 1
  39   23   30 2
  40   24   25 2
  41   24   26 am
  42   26   27 1
  43   26   44 1
  44   27   28 1
  45   27   29 2
  46   28   45 1
  47   28   46 1
  48   29   30 1

#	End of record

