#	Name: ASD00121001
#	Creating user name:	WinNT
#	Creation time:	15. 06. 2019 18:31

#	Modifying user name:	WinNT
#	Modification time:	15. 06. 2019 18:31

#	Program:	/corina/corina34_cracker 3.40 0067  02.08.2006

@<TRIPOS>MOLECULE
ASD00121001
  46   50    0    0    0
SMALL
NO_CHARGES


@<TRIPOS>ATOM
   1 C1            -0.0291     1.2998     0.3368 C.2     
   2 N2             0.0021    -0.0041     0.0020 N.am    
   3 C3             1.2786    -0.6831    -0.2161 C.3     
   4 C4             2.2442     0.2184    -0.9812 C.3     
   5 C5             2.3568     1.5600    -0.3041 C.ar    
   6 C6             3.5337     2.2715    -0.3076 C.ar    
   7 C7             3.5829     3.5071     0.3320 C.ar    
   8 C8             2.4685     4.0301     0.9560 C.ar    
   9 C9             1.2829     3.3243     0.9598 C.ar    
  10 C10            1.2253     2.0821     0.3317 C.ar    
  11 C11            4.7824     1.7885    -0.9854 C.3     
  12 C12            4.5870     0.4972    -1.7573 C.3     
  13 C13            3.6270    -0.4367    -1.0241 C.3     
  14 O14           -1.0810     1.8305     0.6358 O.2     
  15 N15           -2.3253    -1.9156     1.7211 N.3     
  16 C16           -2.0916    -0.5925     1.1269 C.3     
  17 C17           -1.2517    -0.7477    -0.1442 C.3     
  18 C18           -0.9450    -2.2356    -0.3562 C.3     
  19 C19           -2.2717    -2.9963    -0.4754 C.3     
  20 C20           -3.0830    -2.7793     0.8051 C.3     
  21 C21           -1.0590    -2.5488     2.1144 C.3     
  22 C22           -0.1894    -2.7591     0.8717 C.3     
  23 H23            1.8811     0.3562    -1.9997 H       
  24 H24           -1.8076    -0.3620    -0.9987 H       
  25 H25            1.7167    -0.9426     0.7476 H       
  26 H26            1.1074    -1.5943    -0.7892 H       
  27 H27            4.5076     4.0650     0.3402 H       
  28 H28            2.5246     4.9929     1.4422 H       
  29 H29            0.4080     3.7306     1.4455 H       
  30 H30            5.1263     2.5594    -1.6750 H       
  31 H31            5.5518     1.6310    -0.2295 H       
  32 H32            4.1810     0.7267    -2.7425 H       
  33 H33            5.5502     0.0006    -1.8746 H       
  34 H34            3.9841    -0.6041    -0.0080 H       
  35 H35            3.5652    -1.3872    -1.5540 H       
  36 H36           -3.0475    -0.1320     0.8772 H       
  37 H37           -1.5594     0.0374     1.8398 H       
  38 H38           -0.3527    -2.3709    -1.2611 H       
  39 H39           -2.8325    -2.6206    -1.3311 H       
  40 H40           -2.0723    -4.0600    -0.6055 H       
  41 H41           -3.2712    -3.7404     1.2836 H       
  42 H42           -4.0320    -2.3035     0.5580 H       
  43 H43           -0.5345    -1.9052     2.8207 H       
  44 H44           -1.2638    -3.5118     2.5822 H       
  45 H45            0.0184    -3.8219     0.7469 H       
  46 H46            0.7471    -2.2129     0.9845 H       
@<TRIPOS>BOND
   1    1    2 am
   2    1   10 1
   3    1   14 2
   4    2    3 1
   5    2   17 1
   6    3    4 1
   7    3   25 1
   8    3   26 1
   9    4    5 1
  10    4   13 1
  11    4   23 1
  12    5    6 ar
  13    5   10 ar
  14    6    7 ar
  15    6   11 1
  16    7    8 ar
  17    7   27 1
  18    8    9 ar
  19    8   28 1
  20    9   10 ar
  21    9   29 1
  22   11   12 1
  23   11   30 1
  24   11   31 1
  25   12   13 1
  26   12   32 1
  27   12   33 1
  28   13   34 1
  29   13   35 1
  30   15   16 1
  31   15   20 1
  32   15   21 1
  33   16   17 1
  34   16   36 1
  35   16   37 1
  36   17   18 1
  37   17   24 1
  38   18   19 1
  39   18   22 1
  40   18   38 1
  41   19   20 1
  42   19   39 1
  43   19   40 1
  44   20   41 1
  45   20   42 1
  46   21   22 1
  47   21   43 1
  48   21   44 1
  49   22   45 1
  50   22   46 1

#	End of record

