#	Name: ASD00170693
#	Creating user name:	WinNT
#	Creation time:	15. 06. 2019 18:32

#	Modifying user name:	WinNT
#	Modification time:	15. 06. 2019 18:32

#	Program:	/corina/corina34_cracker 3.40 0067  02.08.2006

@<TRIPOS>MOLECULE
ASD00170693
  38   39    0    0    0
SMALL
NO_CHARGES


@<TRIPOS>ATOM
   1 Cl1           -3.1409     5.4405    -5.0215 Cl      
   2 C2            -2.2533     5.5977    -3.5379 C.ar    
   3 C3            -1.0627     6.3042    -3.5165 C.ar    
   4 C4            -0.3494     6.4335    -2.3380 C.ar    
   5 C5            -0.8209     5.8590    -1.1759 C.ar    
   6 C6            -2.0207     5.1456    -1.1899 C.ar    
   7 C7            -2.7388     5.0227    -2.3800 C.ar    
   8 C8            -2.5316     4.5271     0.0530 C.2     
   9 O9            -1.8596     4.5557     1.0682 O.2     
  10 C10           -3.8435     3.8814     0.0627 C.2     
  11 C11           -4.0279     2.5270    -0.0922 C.2     
  12 N12           -3.0110     1.6118    -0.2747 N.pl3   
  13 S13           -5.6853     2.1349    -0.0270 S.3     
  14 C14           -6.1532     3.8087     0.2121 C.2     
  15 C15           -5.0895     4.5975     0.2424 C.2     
  16 C16           -5.1684     6.0902     0.4340 C.3     
  17 C17           -5.1042     6.4169     1.9273 C.3     
  18 C18           -3.7870     5.8973     2.5069 C.3     
  19 C19           -5.1844     7.9324     2.1218 C.3     
  20 C20           -6.2771     5.7476     2.6467 C.3     
  21 Br21          -7.9368     4.4059     0.4076 Br      
  22 H22           -0.6891     6.7560    -4.4235 H       
  23 H23            0.5790     6.9852    -2.3280 H       
  24 H24           -0.2626     5.9606    -0.2570 H       
  25 H25           -3.6679     4.4724    -2.3973 H       
  26 H26           -2.0957     1.9172    -0.3741 H       
  27 H27           -3.2116     0.6632    -0.3035 H       
  28 H28           -4.3329     6.5670    -0.0785 H       
  29 H29           -6.1068     6.4604     0.0211 H       
  30 H30           -2.9514     6.3741     1.9944 H       
  31 H31           -3.7413     6.1300     3.5708 H       
  32 H32           -3.7299     4.8177     2.3683 H       
  33 H33           -6.1228     8.3025     1.7089 H       
  34 H34           -5.1387     8.1651     3.1857 H       
  35 H35           -4.3488     8.4091     1.6094 H       
  36 H36           -6.2200     4.6680     2.5081 H       
  37 H37           -6.2313     5.9803     3.7106 H       
  38 H38           -7.2155     6.1178     2.2338 H       
@<TRIPOS>BOND
   1    1    2 1
   2    2    3 ar
   3    2    7 ar
   4    3    4 ar
   5    3   22 1
   6    4    5 ar
   7    4   23 1
   8    5    6 ar
   9    5   24 1
  10    6    7 ar
  11    6    8 1
  12    7   25 1
  13    8    9 2
  14    8   10 1
  15   10   11 2
  16   10   15 1
  17   11   12 1
  18   11   13 1
  19   12   26 1
  20   12   27 1
  21   13   14 1
  22   14   15 2
  23   14   21 1
  24   15   16 1
  25   16   17 1
  26   16   28 1
  27   16   29 1
  28   17   18 1
  29   17   19 1
  30   17   20 1
  31   18   30 1
  32   18   31 1
  33   18   32 1
  34   19   33 1
  35   19   34 1
  36   19   35 1
  37   20   36 1
  38   20   37 1
  39   20   38 1

#	End of record

