#	Name: ASD01150451
#	Creating user name:	WinNT
#	Creation time:	15. 06. 2019 19:04

#	Modifying user name:	WinNT
#	Modification time:	15. 06. 2019 19:04

#	Program:	/corina/corina34_cracker 3.40 0067  02.08.2006

@<TRIPOS>MOLECULE
ASD01150451
  38   40    0    0    0
SMALL
NO_CHARGES


@<TRIPOS>ATOM
   1 C1             0.7848     1.4587     0.0733 C.ar    
   2 C2             0.9416     0.1403     0.4533 C.ar    
   3 C3             2.6648     0.7819     1.9911 C.ar    
   4 C4             2.5135     2.1021     1.6154 C.ar    
   5 C5             1.5714     2.4454     0.6540 C.ar    
   6 N6             1.4156     3.7821     0.2710 N.am    
   7 C7             0.1841     4.3204     0.2298 C.2     
   8 N8            -0.0024     5.6027    -0.1345 N.am    
   9 C9             1.0554     6.3718    -0.4659 C.2     
  10 C10            2.4051     5.7891    -0.4224 C.2     
  11 N11            2.5445     4.5416    -0.0584 N.2     
  12 O12            0.8949     7.5319    -0.7967 O.2     
  13 C13           -1.3553     6.1636    -0.1717 C.3     
  14 O14           -0.7773     3.6372     0.5263 O.2     
  15 C15           -1.6200     6.9217     1.1035 C.ar    
  16 C16           -1.3879     8.2830     1.1589 C.ar    
  17 C17           -1.6305     8.9791     2.3284 C.ar    
  18 C18           -2.1054     8.3133     3.4441 C.ar    
  19 C19           -2.3380     6.9505     3.3893 C.ar    
  20 C20           -2.1009     6.2557     2.2171 C.ar    
  21 O21            3.4905     6.5375    -0.7502 O.3     
  22 C22            4.7655     5.8958    -0.6820 C.3     
  23 Cl23          -2.4089     9.1874     4.9130 Cl      
  24 C24            1.8800    -0.1980     1.4110 C.ar    
  25 Cl25          -2.3929     4.5459     2.1472 Cl      
  26 H26            0.0546     1.7217    -0.6777 H       
  27 H27            0.3303    -0.6274     0.0022 H       
  28 H28            3.3970     0.5143     2.7385 H       
  29 H29            3.1266     2.8669     2.0688 H       
  30 H30           -1.4450     6.8400    -1.0218 H       
  31 H31           -2.0807     5.3563    -0.2717 H       
  32 H32           -1.0165     8.8030     0.2883 H       
  33 H33           -1.4489    10.0428     2.3711 H       
  34 H34           -2.7087     6.4303     4.2601 H       
  35 H35            4.9445     5.5506     0.3363 H       
  36 H36            4.7806     5.0443    -1.3622 H       
  37 H37            5.5440     6.6031    -0.9680 H       
  38 H38            2.0001    -1.2297     1.7069 H       
@<TRIPOS>BOND
   1    1    2 ar
   2    1    5 ar
   3    1   26 1
   4    2   24 ar
   5    2   27 1
   6    3    4 ar
   7    3   24 ar
   8    3   28 1
   9    4    5 ar
  10    4   29 1
  11    5    6 1
  12    6    7 am
  13    6   11 1
  14    7    8 am
  15    7   14 2
  16    8    9 am
  17    8   13 1
  18    9   10 1
  19    9   12 2
  20   10   11 2
  21   10   21 1
  22   13   15 1
  23   13   30 1
  24   13   31 1
  25   15   16 ar
  26   15   20 ar
  27   16   17 ar
  28   16   32 1
  29   17   18 ar
  30   17   33 1
  31   18   19 ar
  32   18   23 1
  33   19   20 ar
  34   19   34 1
  35   20   25 1
  36   21   22 1
  37   22   35 1
  38   22   36 1
  39   22   37 1
  40   24   38 1

#	End of record

