#	Name: ASD03320190
#	Creating user name:	WinNT
#	Creation time:	15. 06. 2019 20:36

#	Modifying user name:	WinNT
#	Modification time:	15. 06. 2019 20:36

#	Program:	/corina/corina34_cracker 3.40 0067  02.08.2006

@<TRIPOS>MOLECULE
ASD03320190
  47   49    0    0    0
SMALL
NO_CHARGES


@<TRIPOS>ATOM
   1 C1             0.0374     1.4089    -0.2226 C.ar    
   2 C2            -0.1013     0.0202    -0.1921 C.ar    
   3 N3            -1.2712    -0.5363     0.0463 N.ar    
   4 C4            -2.3545     0.1814     0.2654 C.ar    
   5 C5            -2.3053     1.5749     0.2536 C.ar    
   6 C6            -1.0865     2.2077     0.0107 C.ar    
   7 C7             1.3537     2.0257    -0.4914 C.2     
   8 O8             1.4641     3.2361    -0.5158 O.2     
   9 N9             2.4313     1.2462    -0.7093 N.am    
  10 C10            3.6564     1.8271    -1.0596 C.ar    
  11 C11           -3.5316     2.3733     0.5015 C.ar    
  12 C12            4.0232     3.0532    -0.5207 C.ar    
  13 C13            5.2313     3.6254    -0.8667 C.ar    
  14 C14            6.0784     2.9759    -1.7528 C.ar    
  15 C15            5.7126     1.7510    -2.2916 C.ar    
  16 C16            4.5076     1.1746    -1.9418 C.ar    
  17 O17            7.2674     3.5404    -2.0937 O.3     
  18 C18            8.0899     2.8166    -3.0111 C.3     
  19 F19            7.3999     2.6376    -4.2149 F       
  20 F20            9.2661     3.5353    -3.2502 F       
  21 F21            8.4089     1.5681    -2.4664 F       
  22 C22           -3.6561     3.1597     1.6493 C.ar    
  23 N23           -4.7655     3.8554     1.8313 N.ar    
  24 C24           -5.7440     3.8138     0.9489 C.ar    
  25 N25           -5.6672     3.0847    -0.1467 N.ar    
  26 C26           -4.5907     2.3637    -0.4093 C.ar    
  27 C27           -3.6649    -0.5136     0.5320 C.3     
  28 C28           -4.5890    -0.2641    -0.5862 C.1     
  29 N29           -5.3023    -0.0715    -1.4492 N.1     
  30 C30           -3.4253    -2.0185     0.6695 C.3     
  31 C31           -4.2742     0.0262     1.8274 C.3     
  32 H32            0.7613    -0.6058    -0.3665 H       
  33 H33           -1.0142     3.2852    -0.0053 H       
  34 H34            2.3583     0.2827    -0.6234 H       
  35 H35            3.3636     3.5593     0.1686 H       
  36 H36            5.5167     4.5790    -0.4476 H       
  37 H37            6.3724     1.2462    -2.9817 H       
  38 H38            4.2230     0.2210    -2.3613 H       
  39 H39           -2.8588     3.1985     2.3768 H       
  40 H40           -6.6363     4.3948     1.1294 H       
  41 H41           -4.5351     1.7688    -1.3090 H       
  42 H42           -2.7409    -2.2033     1.4976 H       
  43 H43           -4.3730    -2.5212     0.8624 H       
  44 H44           -2.9912    -2.4031    -0.2534 H       
  45 H45           -4.4449     1.0983     1.7295 H       
  46 H46           -5.2220    -0.4765     2.0203 H       
  47 H47           -3.5899    -0.1585     2.6555 H       
@<TRIPOS>BOND
   1    1    2 ar
   2    1    7 1
   3    1    6 ar
   4    2    3 ar
   5    2   32 1
   6    3    4 ar
   7    4    5 ar
   8    4   27 1
   9    5    6 ar
  10    5   11 1
  11    6   33 1
  12    7    8 2
  13    7    9 am
  14    9   10 1
  15    9   34 1
  16   10   12 ar
  17   10   16 ar
  18   11   22 ar
  19   11   26 ar
  20   12   13 ar
  21   12   35 1
  22   13   14 ar
  23   13   36 1
  24   14   15 ar
  25   14   17 1
  26   15   16 ar
  27   15   37 1
  28   16   38 1
  29   17   18 1
  30   18   19 1
  31   18   20 1
  32   18   21 1
  33   22   23 ar
  34   22   39 1
  35   23   24 ar
  36   24   25 ar
  37   24   40 1
  38   25   26 ar
  39   26   41 1
  40   27   28 1
  41   27   30 1
  42   27   31 1
  43   28   29 3
  44   30   42 1
  45   30   43 1
  46   30   44 1
  47   31   45 1
  48   31   46 1
  49   31   47 1

#	End of record

