#	Name: ASD02030671
#	Creating user name:	WinNT
#	Creation time:	15. 06. 2019 20:15

#	Modifying user name:	WinNT
#	Modification time:	15. 06. 2019 20:15

#	Program:	/corina/corina34_cracker 3.40 0067  02.08.2006

@<TRIPOS>MOLECULE
ASD02030671
  53   55    0    0    0
SMALL
NO_CHARGES


@<TRIPOS>ATOM
   1 N1            -0.2613     1.6925    -0.0243 N.am    
   2 C2            -0.2195     0.3463    -0.0755 C.2     
   3 C3            -1.4636    -0.4364     0.0604 C.ar    
   4 O4             0.8430    -0.2234    -0.2336 O.2     
   5 C5            -1.4224    -1.8321     0.0076 C.ar    
   6 C6            -2.5855    -2.5587     0.1347 C.ar    
   7 C7            -3.7988    -1.9057     0.3148 C.ar    
   8 C8            -3.8442    -0.5177     0.3674 C.ar    
   9 C9            -2.6848     0.2161     0.2478 C.ar    
  10 O10           -4.9432    -2.6256     0.4393 O.3     
  11 C11           -5.0628    -3.3994     1.5355 C.2     
  12 N12           -6.1247    -4.2184     1.6697 N.am    
  13 O13           -4.2132    -3.3589     2.4033 O.2     
  14 C14            0.9277     2.4300    -0.0286 C.ar    
  15 C15            0.9723     3.6670    -0.6708 C.ar    
  16 C16            2.1247     4.3987    -0.6839 C.ar    
  17 C17            3.2681     3.9070    -0.0500 C.ar    
  18 C18            3.2316     2.6601     0.6006 C.ar    
  19 C19            2.0488     1.9289     0.6093 C.ar    
  20 C20            4.6329     4.4127     0.1201 C.2     
  21 C21            5.3076     3.4921     0.8260 C.2     
  22 N22            4.4850     2.4392     1.1265 N.pl3   
  23 C23           -6.2548    -5.0598     2.8619 C.3     
  24 C24           -7.6064    -4.7949     3.5282 C.3     
  25 C25           -6.1650    -6.5330     2.4586 C.3     
  26 C26           -7.1490    -4.2672     0.6234 C.3     
  27 C27           -7.8224    -2.8984     0.5047 C.3     
  28 C28           -6.4972    -4.6324    -0.7117 C.3     
  29 H29           -1.1158     2.1501     0.0114 H       
  30 H30           -0.4799    -2.3403    -0.1330 H       
  31 H31           -2.5545    -3.6375     0.0941 H       
  32 H32           -4.7893    -0.0140     0.5068 H       
  33 H33           -2.7209     1.2947     0.2888 H       
  34 H34            0.0891     4.0486    -1.1614 H       
  35 H35            2.1523     5.3557    -1.1838 H       
  36 H36            2.0074     0.9706     1.1054 H       
  37 H37            5.0222     5.3487    -0.2523 H       
  38 H38            6.3446     3.5715     1.1172 H       
  39 H39            4.7474     1.6528     1.6300 H       
  40 H40           -5.4526    -4.8251     3.5615 H       
  41 H41           -8.4083    -5.1136     2.8623 H       
  42 H42           -7.6665    -5.3531     4.4625 H       
  43 H43           -7.7072    -3.7294     3.7343 H       
  44 H44           -6.9113    -6.7464     1.6934 H       
  45 H45           -5.1704    -6.7418     2.0644 H       
  46 H46           -6.3492    -7.1603     3.3307 H       
  47 H47           -7.8957    -5.0184     0.8807 H       
  48 H48           -7.0643    -2.1341     0.3341 H       
  49 H49           -8.5222    -2.9091    -0.3309 H       
  50 H50           -8.3604    -2.6771     1.4265 H       
  51 H51           -6.0883    -5.6410    -0.6526 H       
  52 H52           -7.2440    -4.5890    -1.5045 H       
  53 H53           -5.6949    -3.9273    -0.9293 H       
@<TRIPOS>BOND
   1    1    2 am
   2    1   14 1
   3    1   29 1
   4    2    3 1
   5    2    4 2
   6    3    5 ar
   7    3    9 ar
   8    5    6 ar
   9    5   30 1
  10    6    7 ar
  11    6   31 1
  12    7    8 ar
  13    7   10 1
  14    8    9 ar
  15    8   32 1
  16    9   33 1
  17   10   11 1
  18   11   12 am
  19   11   13 2
  20   12   23 1
  21   12   26 1
  22   14   15 ar
  23   14   19 ar
  24   15   16 ar
  25   15   34 1
  26   16   17 ar
  27   16   35 1
  28   17   18 ar
  29   17   20 1
  30   18   19 ar
  31   18   22 1
  32   19   36 1
  33   20   21 2
  34   20   37 1
  35   21   22 1
  36   21   38 1
  37   22   39 1
  38   23   24 1
  39   23   25 1
  40   23   40 1
  41   24   41 1
  42   24   42 1
  43   24   43 1
  44   25   44 1
  45   25   45 1
  46   25   46 1
  47   26   27 1
  48   26   28 1
  49   26   47 1
  50   27   48 1
  51   27   49 1
  52   27   50 1
  53   28   51 1
  54   28   52 1
  55   28   53 1

#	End of record

