#	Name: ASD02560035
#	Creating user name:	WinNT
#	Creation time:	15. 06. 2019 20:24

#	Modifying user name:	WinNT
#	Modification time:	15. 06. 2019 20:24

#	Program:	/corina/corina34_cracker 3.40 0067  02.08.2006

@<TRIPOS>MOLECULE
ASD02560035
  40   43    0    0    0
SMALL
NO_CHARGES


@<TRIPOS>ATOM
   1 C1            -0.0168     1.3873     0.0097 C.ar    
   2 C2             0.0021    -0.0041     0.0020 C.ar    
   3 N3            -1.1827    -0.7342     0.0387 N.pl3   
   4 C4            -2.0375    -0.6468     1.1274 C.ar    
   5 C5            -2.6350     0.5758     1.4595 C.ar    
   6 C6            -2.3894     1.7753     0.6321 C.2     
   7 N7            -1.2260     2.1015     0.0021 N.pl3   
   8 C8             1.1854     2.0854     0.0019 C.ar    
   9 C9             2.3701     1.3662    -0.0254 C.ar    
  10 C10            2.3182    -0.0196    -0.0447 C.ar    
  11 N11            1.1588    -0.6553    -0.0312 N.ar    
  12 N12           -2.2864    -1.7248     1.8574 N.ar    
  13 C13           -3.0796    -1.6836     2.9109 C.ar    
  14 C14           -3.6909    -0.5087     3.3049 C.ar    
  15 C15           -3.4719     0.6488     2.5729 C.ar    
  16 N16           -3.2734     2.7188     0.3780 N.2     
  17 C17           -2.7168     3.6479    -0.4073 C.2     
  18 C18           -1.4440     3.2861    -0.6571 C.2     
  19 C19           -0.4472     4.0385    -1.5004 C.3     
  20 C20           -1.5310    -1.6051    -1.0866 C.3     
  21 C21           -0.9580    -3.0032    -0.8459 C.3     
  22 O22            3.4726    -0.7327    -0.0784 O.3     
  23 C23            3.3552    -2.1567    -0.0971 C.3     
  24 H24            1.1961     3.1653     0.0165 H       
  25 H25            3.3210     1.8782    -0.0318 H       
  26 H26           -3.2550    -2.5867     3.4767 H       
  27 H27           -4.3322    -0.4918     4.1737 H       
  28 H28           -3.9367     1.5812     2.8573 H       
  29 H29           -3.2055     4.5367    -0.7784 H       
  30 H30            0.1034     4.7396    -0.8733 H       
  31 H31            0.2489     3.3340    -1.9555 H       
  32 H32           -0.9730     4.5862    -2.2825 H       
  33 H33           -2.6156    -1.6674    -1.1757 H       
  34 H34           -1.1139    -1.1949    -2.0063 H       
  35 H35           -1.2171    -3.6512    -1.6832 H       
  36 H36            0.1266    -2.9409    -0.7568 H       
  37 H37           -1.3751    -3.4135     0.0737 H       
  38 H38            4.3494    -2.6029    -0.1236 H       
  39 H39            2.8313    -2.4899     0.7988 H       
  40 H40            2.7955    -2.4636    -0.9806 H       
@<TRIPOS>BOND
   1    1    2 ar
   2    1    8 ar
   3    1    7 1
   4    2    3 1
   5    2   11 ar
   6    3    4 1
   7    3   20 1
   8    4    5 ar
   9    4   12 ar
  10    5    6 1
  11    5   15 ar
  12    6    7 1
  13    6   16 2
  14    7   18 1
  15    8    9 ar
  16    8   24 1
  17    9   10 ar
  18    9   25 1
  19   10   11 ar
  20   10   22 1
  21   12   13 ar
  22   13   14 ar
  23   13   26 1
  24   14   15 ar
  25   14   27 1
  26   15   28 1
  27   16   17 1
  28   17   18 2
  29   17   29 1
  30   18   19 1
  31   19   30 1
  32   19   31 1
  33   19   32 1
  34   20   21 1
  35   20   33 1
  36   20   34 1
  37   21   35 1
  38   21   36 1
  39   21   37 1
  40   22   23 1
  41   23   38 1
  42   23   39 1
  43   23   40 1

#	End of record

