#	Name: ASD09740012
#	Creating user name:	WinNT
#	Creation time:	15. 06. 2019 21:22

#	Modifying user name:	WinNT
#	Modification time:	15. 06. 2019 21:22

#	Program:	/corina/corina34_cracker 3.40 0067  02.08.2006

@<TRIPOS>MOLECULE
ASD09740012
  40   42    0    0    0
SMALL
NO_CHARGES


@<TRIPOS>ATOM
   1 N1            -0.0144     1.2085     0.0087 N.2     
   2 O2             0.0021    -0.0041     0.0020 O.3     
   3 C3             1.2060     1.6802    -0.0004 C.2     
   4 N4             2.0461     0.6244    -0.0141 N.2     
   5 C5             1.2702    -0.4440    -0.0125 C.2     
   6 C6             1.7127    -1.8530    -0.0242 C.ar    
   7 C7             0.7691    -2.8832    -0.0208 C.ar    
   8 C8             3.0749    -2.1582    -0.0447 C.ar    
   9 C9             3.4866    -3.4742    -0.0562 C.ar    
  10 C10            2.5497    -4.4974    -0.0479 C.ar    
  11 C11            1.1881    -4.1996    -0.0323 C.ar    
  12 C12            1.5947     3.1129     0.0028 C.ar    
  13 C13            2.9377     3.4817    -0.0085 C.ar    
  14 N14            3.2842     4.7528    -0.0056 N.ar    
  15 C15            2.3864     5.7189     0.0074 C.ar    
  16 C16            1.0329     5.4341     0.0192 C.ar    
  17 C17            0.6190     4.1133     0.0114 C.ar    
  18 O18            0.2721    -5.2049    -0.0242 O.3     
  19 C19           -1.9793    -6.0831    -0.0011 C.3     
  20 C20           -1.1059    -4.8269    -0.0083 C.3     
  21 O21            2.9603    -5.7925    -0.0602 O.3     
  22 C22            4.6371    -7.5325    -0.0927 C.3     
  23 C23            4.3699    -6.0261    -0.0814 C.3     
  24 H24           -0.2856    -2.6510    -0.0087 H       
  25 H25            3.8063    -1.3636    -0.0519 H       
  26 H26            4.5407    -3.7089    -0.0720 H       
  27 H27            3.7020     2.7188    -0.0193 H       
  28 H28            2.7131     6.7483     0.0093 H       
  29 H29            0.3070     6.2336     0.0302 H       
  30 H30           -0.4314     3.8621     0.0202 H       
  31 H31           -3.0304    -5.7947     0.0111 H       
  32 H32           -1.7746    -6.6730    -0.8945 H       
  33 H33           -1.7550    -6.6764     0.8854 H       
  34 H34           -1.3105    -4.2369     0.8852 H       
  35 H35           -1.3301    -4.2335    -0.8947 H       
  36 H36            5.7124    -7.7107    -0.1089 H       
  37 H37            4.2074    -7.9845     0.8013 H       
  38 H38            4.1820    -7.9757    -0.9785 H       
  39 H39            4.7996    -5.5742    -0.9754 H       
  40 H40            4.8250    -5.5830     0.8044 H       
@<TRIPOS>BOND
   1    1    2 1
   2    1    3 2
   3    2    5 1
   4    3    4 1
   5    3   12 1
   6    4    5 2
   7    5    6 1
   8    6    7 ar
   9    6    8 ar
  10    7   11 ar
  11    7   24 1
  12    8    9 ar
  13    8   25 1
  14    9   10 ar
  15    9   26 1
  16   10   11 ar
  17   10   21 1
  18   11   18 1
  19   12   13 ar
  20   12   17 ar
  21   13   14 ar
  22   13   27 1
  23   14   15 ar
  24   15   16 ar
  25   15   28 1
  26   16   17 ar
  27   16   29 1
  28   17   30 1
  29   18   20 1
  30   19   20 1
  31   19   31 1
  32   19   32 1
  33   19   33 1
  34   20   34 1
  35   20   35 1
  36   21   23 1
  37   22   23 1
  38   22   36 1
  39   22   37 1
  40   22   38 1
  41   23   39 1
  42   23   40 1

#	End of record

