#	Name: ASD03092639
#	Creating user name:	WinNT
#	Creation time:	15. 06. 2019 20:32

#	Modifying user name:	WinNT
#	Modification time:	15. 06. 2019 20:32

#	Program:	/corina/corina34_cracker 3.40 0067  02.08.2006

@<TRIPOS>MOLECULE
ASD03092639
  49   52    0    0    0
SMALL
NO_CHARGES


@<TRIPOS>ATOM
   1 C1             1.0922     1.6359    -0.8821 C.ar    
   2 C2             1.0117     0.2396    -1.0597 C.ar    
   3 C3             1.7589    -0.6023    -0.2065 C.ar    
   4 C4             2.5440    -0.0012     0.7757 C.ar    
   5 C5             2.5633     1.3812     0.8787 C.ar    
   6 N6             1.8587     2.1436     0.0716 N.ar    
   7 N7            -0.3012     1.1559    -2.5766 N.2     
   8 N8             0.2713     2.1935    -1.8315 N.pl3   
   9 C9             0.1299     0.0075    -2.1368 C.2     
  10 C10            1.7094    -2.0727    -0.3502 C.2     
  11 O11            0.6678    -2.6186    -0.6582 O.2     
  12 N12            2.8191    -2.8081    -0.1398 N.am    
  13 C13            3.6139    -4.9138    -1.0295 C.ar    
  14 C14            2.7548    -4.2039    -0.2002 C.ar    
  15 C15            1.8289    -4.9026     0.5705 C.ar    
  16 C16            1.8040    -6.2846     0.4766 C.ar    
  17 C17            2.6915    -6.9199    -0.3718 C.ar    
  18 N18            3.5565    -6.2291    -1.0886 N.ar    
  19 C19            0.8779    -4.1736     1.4843 C.3     
  20 C20            4.6174    -4.1721    -1.8745 C.3     
  21 C21            3.4134     2.0265     1.9426 C.3     
  22 C22           -0.2561    -1.3435    -2.6814 C.3     
  23 C23            0.0453     3.5634    -2.0208 C.ar    
  24 C24           -0.1499     4.0655    -3.3007 C.ar    
  25 C25           -0.3724     5.4159    -3.4852 C.ar    
  26 C26           -0.4009     6.2692    -2.3948 C.ar    
  27 C27           -0.2059     5.7706    -1.1176 C.ar    
  28 C28            0.0107     4.4199    -0.9283 C.ar    
  29 F29           -0.6187     7.5900    -2.5774 F       
  30 H30            3.1313    -0.6065     1.4503 H       
  31 H31            3.6623    -2.3693     0.0535 H       
  32 H32            1.0996    -6.8591     1.0598 H       
  33 H33            2.6762    -7.9970    -0.4487 H       
  34 H34           -0.0809    -4.0441     0.9824 H       
  35 H35            0.7352    -4.7525     2.3968 H       
  36 H36            1.2917    -3.1968     1.7348 H       
  37 H37            5.5719    -4.1278    -1.3501 H       
  38 H38            4.7480    -4.6920    -2.8236 H       
  39 H39            4.2580    -3.1601    -2.0610 H       
  40 H40            4.4094     2.2198     1.5442 H       
  41 H41            2.9568     2.9668     2.2516 H       
  42 H42            3.4887     1.3597     2.8015 H       
  43 H43           -1.0720    -1.7553    -2.0873 H       
  44 H44           -0.5780    -1.2391    -3.7176 H       
  45 H45            0.6024    -2.0134    -2.6334 H       
  46 H46           -0.1274     3.4003    -4.1513 H       
  47 H47           -0.5240     5.8068    -4.4805 H       
  48 H48           -0.2278     6.4378    -0.2687 H       
  49 H49            0.1579     4.0306     0.0683 H       
@<TRIPOS>BOND
   1    1    2 ar
   2    1    6 ar
   3    1    8 1
   4    2    3 ar
   5    2    9 1
   6    3    4 ar
   7    3   10 1
   8    4    5 ar
   9    4   30 1
  10    5    6 ar
  11    5   21 1
  12    7    8 1
  13    7    9 2
  14    8   23 1
  15    9   22 1
  16   10   11 2
  17   10   12 am
  18   12   14 1
  19   12   31 1
  20   13   14 ar
  21   13   18 ar
  22   13   20 1
  23   14   15 ar
  24   15   16 ar
  25   15   19 1
  26   16   17 ar
  27   16   32 1
  28   17   18 ar
  29   17   33 1
  30   19   34 1
  31   19   35 1
  32   19   36 1
  33   20   37 1
  34   20   38 1
  35   20   39 1
  36   21   40 1
  37   21   41 1
  38   21   42 1
  39   22   43 1
  40   22   44 1
  41   22   45 1
  42   23   24 ar
  43   23   28 ar
  44   24   25 ar
  45   24   46 1
  46   25   26 ar
  47   25   47 1
  48   26   27 ar
  49   26   29 1
  50   27   28 ar
  51   27   48 1
  52   28   49 1

#	End of record

