#	Name: ASD03200064
#	Creating user name:	WinNT
#	Creation time:	15. 06. 2019 20:34

#	Modifying user name:	WinNT
#	Modification time:	15. 06. 2019 20:34

#	Program:	/corina/corina34_cracker 3.40 0067  02.08.2006

@<TRIPOS>MOLECULE
ASD03200064
  55   58    0    0    0
SMALL
NO_CHARGES


@<TRIPOS>ATOM
   1 C1             0.6900    -2.4575     0.1407 C.3     
   2 N2             0.1920    -1.1109     0.4490 N.3     
   3 C3             0.6502    -0.6651     1.7710 C.3     
   4 C4             2.1789    -0.5957     1.7859 C.3     
   5 C5             2.7509    -1.9798     1.4667 C.3     
   6 C6             2.2199    -2.4416     0.1068 C.3     
   7 C7            -1.1982    -1.0596     0.3586 C.ar    
   8 C8            -1.9805    -0.8389     1.4895 C.ar    
   9 C9            -3.3538    -0.7945     1.3587 C.ar    
  10 N10           -3.9296    -0.9580     0.1827 N.ar    
  11 C11           -3.2281    -1.1695    -0.9152 C.ar    
  12 C12           -1.8449    -1.2227    -0.8723 C.ar    
  13 N13           -1.1046    -1.4475    -2.0409 N.am    
  14 C14           -1.5994    -2.2436    -3.0094 C.2     
  15 C15           -0.8862    -2.3792    -4.2812 C.2     
  16 O16           -2.6393    -2.8499    -2.8269 O.2     
  17 C17           -1.3381    -3.1749    -5.3084 C.2     
  18 S18           -0.1893    -3.0470    -6.6384 S.3     
  19 C19            0.7941    -1.9354    -5.6925 C.2     
  20 N20            0.2555    -1.7361    -4.5438 N.2     
  21 C21            2.0786    -1.3042    -6.1644 C.3     
  22 N22           -2.4887    -3.9397    -5.2987 N.pl3   
  23 C23            3.0965    -2.4002    -6.4919 C.3     
  24 N24            2.7182    -3.7932    -0.1809 N.3     
  25 C25            4.3769    -1.7532    -7.0272 C.3     
  26 C26            4.0400    -0.9097    -8.2589 C.3     
  27 N27            3.0635     0.1244    -7.8934 N.3     
  28 C28            1.8083    -0.4738    -7.4211 C.3     
  29 H29            0.3509    -3.1545     0.9070 H       
  30 H30            0.3085    -2.7722    -0.8307 H       
  31 H31            0.2397     0.3219     1.9839 H       
  32 H32            0.3113    -1.3705     2.5298 H       
  33 H33            2.5180     0.1198     1.0367 H       
  34 H34            2.5193    -0.2799     2.7720 H       
  35 H35            3.8390    -1.9254     1.4335 H       
  36 H36            2.4439    -2.6872     2.2370 H       
  37 H37            2.5597    -1.7552    -0.6687 H       
  38 H38           -1.5186    -0.7047     2.4565 H       
  39 H39           -3.9661    -0.6237     2.2317 H       
  40 H40           -3.7384    -1.2986    -1.8583 H       
  41 H41           -0.2361    -1.0302    -2.1527 H       
  42 H42            2.4770    -0.6600    -5.3806 H       
  43 H43           -3.0605    -3.9456    -4.5151 H       
  44 H44           -2.7247    -4.4707    -6.0754 H       
  45 H45            3.3247    -2.9669    -5.5892 H       
  46 H46            2.6825    -3.0679    -7.2474 H       
  47 H47            3.7268    -3.8092    -0.2053 H       
  48 H48            2.3621    -4.4598     0.4876 H       
  49 H49            4.8117    -1.1156    -6.2574 H       
  50 H50            5.0899    -2.5304    -7.3023 H       
  51 H51            4.9473    -0.4361    -8.6340 H       
  52 H52            3.6180    -1.5502    -9.0333 H       
  53 H53            3.4453     0.7549    -7.2044 H       
  54 H54            1.3968    -1.1164    -8.1995 H       
  55 H55            1.0947     0.3164    -7.1878 H       
@<TRIPOS>BOND
   1    1    2 1
   2    1    6 1
   3    1   29 1
   4    1   30 1
   5    2    3 1
   6    2    7 1
   7    3    4 1
   8    3   31 1
   9    3   32 1
  10    4    5 1
  11    4   33 1
  12    4   34 1
  13    5    6 1
  14    5   35 1
  15    5   36 1
  16    6   24 1
  17    6   37 1
  18    7    8 ar
  19    7   12 ar
  20    8    9 ar
  21    8   38 1
  22    9   10 ar
  23    9   39 1
  24   10   11 ar
  25   11   12 ar
  26   11   40 1
  27   12   13 1
  28   13   14 am
  29   13   41 1
  30   14   15 1
  31   14   16 2
  32   15   17 2
  33   15   20 1
  34   17   18 1
  35   17   22 1
  36   18   19 1
  37   19   20 2
  38   19   21 1
  39   21   23 1
  40   21   28 1
  41   21   42 1
  42   22   43 1
  43   22   44 1
  44   23   25 1
  45   23   45 1
  46   23   46 1
  47   24   47 1
  48   24   48 1
  49   25   26 1
  50   25   49 1
  51   25   50 1
  52   26   27 1
  53   26   51 1
  54   26   52 1
  55   27   28 1
  56   27   53 1
  57   28   54 1
  58   28   55 1

#	End of record

