#	Name: ASD01720159
#	Creating user name:	WinNT
#	Creation time:	15. 06. 2019 19:23

#	Modifying user name:	WinNT
#	Modification time:	15. 06. 2019 19:23

#	Program:	/corina/corina34_cracker 3.40 0067  02.08.2006

@<TRIPOS>MOLECULE
ASD01720159
  46   48    0    0    0
SMALL
NO_CHARGES


@<TRIPOS>ATOM
   1 C1            -0.6126     1.7875     0.7770 C.ar    
   2 N2            -0.7353     0.4929     1.0295 N.ar    
   3 C3             0.3108    -0.3167     0.9570 C.ar    
   4 N4             1.5144     0.1305     0.6315 N.ar    
   5 C5             1.7091     1.4173     0.3656 C.ar    
   6 C6             0.6260     2.2947     0.4339 C.ar    
   7 N7             0.1419    -1.6633     1.2285 N.pl3   
   8 C8            -1.1813    -2.1772     1.5907 C.3     
   9 N9             2.9737     1.8834     0.0248 N.am    
  10 C10           -1.0258    -3.4374     2.4024 C.ar    
  11 C11           -1.8520    -3.6675     3.4866 C.ar    
  12 C12           -1.7093    -4.8234     4.2312 C.ar    
  13 C13           -0.7408    -5.7494     3.8914 C.ar    
  14 C14            0.0848    -5.5197     2.8067 C.ar    
  15 C15           -0.0608    -4.3658     2.0595 C.ar    
  16 C16            4.0363     1.1176    -0.2586 C.2     
  17 C17            3.3620     3.2975    -0.0897 C.3     
  18 C18            4.8500     3.2385    -0.4860 C.3     
  19 O19            5.1398     1.8123    -0.5567 O.3     
  20 O20            4.0006    -0.0968    -0.2459 O.2     
  21 C21            3.1912     4.0121     1.2523 C.3     
  22 C22            4.0525     3.3211     2.3113 C.3     
  23 C23            3.6285     5.4716     1.1122 C.3     
  24 C24           -1.9748    -2.4843     0.3191 C.3     
  25 H25           -1.4723     2.4387     0.8345 H       
  26 H26            0.7530     3.3463     0.2228 H       
  27 H27            0.8997    -2.2668     1.1789 H       
  28 H28           -1.7130    -1.4294     2.1790 H       
  29 H29           -2.6087    -2.9441     3.7521 H       
  30 H30           -2.3543    -5.0029     5.0786 H       
  31 H31           -0.6289    -6.6521     4.4736 H       
  32 H32            0.8417    -6.2429     2.5414 H       
  33 H33            0.5842    -4.1863     1.2120 H       
  34 H34            2.7786     3.7932    -0.8656 H       
  35 H35            5.0052     3.7059    -1.4584 H       
  36 H36            5.4669     3.7193     0.2731 H       
  37 H37            2.1444     3.9738     1.5537 H       
  38 H38            3.8613     3.7713     3.2855 H       
  39 H39            3.8041     2.2604     2.3462 H       
  40 H40            5.1058     3.4395     2.0569 H       
  41 H41            3.0808     5.9380     0.2932 H       
  42 H42            3.4185     6.0045     2.0396 H       
  43 H43            4.6976     5.5122     0.9039 H       
  44 H44           -1.4431    -3.2322    -0.2692 H       
  45 H45           -2.9593    -2.8667     0.5886 H       
  46 H46           -2.0872    -1.5729    -0.2680 H       
@<TRIPOS>BOND
   1    1    2 ar
   2    1    6 ar
   3    1   25 1
   4    2    3 ar
   5    3    4 ar
   6    3    7 1
   7    4    5 ar
   8    5    6 ar
   9    5    9 1
  10    6   26 1
  11    7    8 1
  12    7   27 1
  13    8   10 1
  14    8   24 1
  15    8   28 1
  16    9   17 1
  17    9   16 am
  18   10   11 ar
  19   10   15 ar
  20   11   12 ar
  21   11   29 1
  22   12   13 ar
  23   12   30 1
  24   13   14 ar
  25   13   31 1
  26   14   15 ar
  27   14   32 1
  28   15   33 1
  29   16   19 1
  30   16   20 2
  31   17   18 1
  32   17   21 1
  33   17   34 1
  34   18   19 1
  35   18   35 1
  36   18   36 1
  37   21   22 1
  38   21   23 1
  39   21   37 1
  40   22   38 1
  41   22   39 1
  42   22   40 1
  43   23   41 1
  44   23   42 1
  45   23   43 1
  46   24   44 1
  47   24   45 1
  48   24   46 1

#	End of record

