#	Name: ASD01148915
#	Creating user name:	WinNT
#	Creation time:	15. 06. 2019 19:03

#	Modifying user name:	WinNT
#	Modification time:	15. 06. 2019 19:03

#	Program:	/corina/corina34_cracker 3.40 0067  02.08.2006

@<TRIPOS>MOLECULE
ASD01148915
  51   54    0    0    0
SMALL
NO_CHARGES


@<TRIPOS>ATOM
   1 N1             0.2554     3.3199    -0.1008 N.am    
   2 C2             0.4275     1.8971    -0.4247 C.3     
   3 C3             1.3455     1.7769    -1.6453 C.3     
   4 C4             2.6538     2.5216    -1.3699 C.3     
   5 C5             2.3585     4.0042    -1.1318 C.3     
   6 C6             1.4520     4.1497     0.0946 C.3     
   7 S7            -1.2585     3.9772     0.0348 S.o2    
   8 O8            -1.1138     5.3706    -0.2034 O.2     
   9 O9            -2.1265     3.1453    -0.7227 O.2     
  10 C10           -1.7514     3.8087     1.7181 C.ar    
  11 C11           -1.4589     4.8096     2.6262 C.ar    
  12 C12           -1.8440     4.6804     3.9463 C.ar    
  13 C13           -2.5254     3.5441     4.3612 C.ar    
  14 C14           -2.8177     2.5408     3.4470 C.ar    
  15 C15           -2.4349     2.6783     2.1270 C.ar    
  16 N16           -2.9170     3.4099     5.6999 N.pl3   
  17 C17           -4.2106     3.4153     6.1616 C.2     
  18 C18           -4.1721     3.2603     7.5147 C.2     
  19 C19           -2.8215     3.1579     7.8871 C.2     
  20 C20           -2.0771     3.2460     6.7636 C.2     
  21 C21           -0.5731     3.1781     6.6960 C.3     
  22 C22           -5.4285     3.5630     5.3367 C.ar    
  23 C23           -6.6634     3.1361     5.8276 C.ar    
  24 C24           -7.7966     3.2769     5.0522 C.ar    
  25 C25           -7.7096     3.8397     3.7901 C.ar    
  26 C26           -6.4885     4.2646     3.2986 C.ar    
  27 C27           -5.3492     4.1351     4.0662 C.ar    
  28 Br28          -9.4711     2.6994     5.7146 Br      
  29 H29            0.8777     1.3811     0.4233 H       
  30 H30           -0.5422     1.4542    -0.6518 H       
  31 H31            1.5589     0.7255    -1.8378 H       
  32 H32            0.8541     2.2140    -2.5145 H       
  33 H33            3.1324     2.1001    -0.4859 H       
  34 H34            3.3186     2.4169    -2.2273 H       
  35 H35            3.2930     4.5381    -0.9589 H       
  36 H36            1.8576     4.4204    -2.0059 H       
  37 H37            1.1583     5.1930     0.2102 H       
  38 H38            1.9858     3.8174     0.9850 H       
  39 H39           -0.9285     5.6931     2.3029 H       
  40 H40           -1.6149     5.4624     4.6552 H       
  41 H41           -3.3476     1.6558     3.7668 H       
  42 H42           -2.6658     1.9003     1.4145 H       
  43 H43           -5.0231     3.2233     8.1787 H       
  44 H44           -2.4459     3.0280     8.8914 H       
  45 H45           -0.1593     4.1815     6.7963 H       
  46 H46           -0.2011     2.5491     7.5047 H       
  47 H47           -0.2712     2.7547     5.7380 H       
  48 H48           -6.7321     2.6963     6.8116 H       
  49 H49           -8.5989     3.9472     3.1868 H       
  50 H50           -6.4272     4.7025     2.3132 H       
  51 H51           -4.3973     4.4714     3.6828 H       
@<TRIPOS>BOND
   1    1    2 1
   2    1    6 1
   3    1    7 am
   4    2    3 1
   5    2   29 1
   6    2   30 1
   7    3    4 1
   8    3   31 1
   9    3   32 1
  10    4    5 1
  11    4   33 1
  12    4   34 1
  13    5    6 1
  14    5   35 1
  15    5   36 1
  16    6   37 1
  17    6   38 1
  18    7    8 2
  19    7    9 2
  20    7   10 1
  21   10   11 ar
  22   10   15 ar
  23   11   12 ar
  24   11   39 1
  25   12   13 ar
  26   12   40 1
  27   13   14 ar
  28   13   16 1
  29   14   15 ar
  30   14   41 1
  31   15   42 1
  32   16   17 1
  33   16   20 1
  34   17   18 2
  35   17   22 1
  36   18   19 1
  37   18   43 1
  38   19   20 2
  39   19   44 1
  40   20   21 1
  41   21   45 1
  42   21   46 1
  43   21   47 1
  44   22   23 ar
  45   22   27 ar
  46   23   24 ar
  47   23   48 1
  48   24   25 ar
  49   24   28 1
  50   25   26 ar
  51   25   49 1
  52   26   27 ar
  53   26   50 1
  54   27   51 1

#	End of record

