#	Name: ASD01910209
#	Creating user name:	WinNT
#	Creation time:	15. 06. 2019 19:55

#	Modifying user name:	WinNT
#	Modification time:	15. 06. 2019 19:55

#	Program:	/corina/corina34_cracker 3.40 0067  02.08.2006

@<TRIPOS>MOLECULE
ASD01910209
  41   42    0    0    0
SMALL
NO_CHARGES


@<TRIPOS>ATOM
   1 N1            -0.0169     1.3965     0.0097 N.2     
   2 N2             0.0021    -0.0041     0.0020 N.pl3   
   3 C3             1.2284     1.8226     0.0001 C.2     
   4 C4             2.0723     0.6949    -0.0140 C.2     
   5 C5             1.2908    -0.4070    -0.0125 C.2     
   6 C6             1.7726    -1.8349    -0.0240 C.3     
   7 C7             1.6661     3.2407     0.0031 C.ar    
   8 C8             3.0474    -1.9362    -0.8639 C.3     
   9 C9             0.7196     4.2634     0.0177 C.ar    
  10 C10            2.0684    -2.2849     1.4081 C.3     
  11 C11            1.1293     5.5803     0.0209 C.ar    
  12 C12            2.4830     5.8875     0.0097 C.ar    
  13 C13            3.4281     4.8709    -0.0053 C.ar    
  14 C14            3.0244     3.5521    -0.0028 C.ar    
  15 C15           -1.1724    -0.8798     0.0093 C.3     
  16 C16           -1.5892    -1.1729    -1.4090 C.2     
  17 O17           -2.6495    -1.9605    -1.6477 O.3     
  18 O18           -0.9688    -0.6990    -2.3312 O.2     
  19 C19           -2.9934    -2.1996    -3.0380 C.3     
  20 O20            2.8837     7.1860     0.0129 O.3     
  21 C21            4.2916     7.4304     0.0008 C.3     
  22 H22            3.1521     0.7088    -0.0248 H       
  23 H23            1.0022    -2.4748    -0.4541 H       
  24 H24            2.8367    -1.6156    -1.8842 H       
  25 H25            3.8178    -1.2963    -0.4338 H       
  26 H26            3.3959    -2.9690    -0.8723 H       
  27 H27           -0.3337     4.0249     0.0261 H       
  28 H28            1.1602    -2.2127     2.0065 H       
  29 H29            2.4168    -3.3176     1.3998 H       
  30 H30            2.8388    -1.6449     1.8383 H       
  31 H31            0.3962     6.3733     0.0319 H       
  32 H32            4.4806     5.1128    -0.0144 H       
  33 H33            3.7601     2.7615    -0.0145 H       
  34 H34           -0.9266    -1.8130     0.5160 H       
  35 H35           -1.9905    -0.3861     0.5337 H       
  36 H36           -3.2178    -1.2507    -3.5252 H       
  37 H37           -2.1539    -2.6777    -3.5429 H       
  38 H38           -3.8666    -2.8500    -3.0897 H       
  39 H39            4.7460     6.9815     0.8840 H       
  40 H40            4.7290     6.9912    -0.8958 H       
  41 H41            4.4739     8.5051     0.0049 H       
@<TRIPOS>BOND
   1    1    2 1
   2    1    3 2
   3    2   15 1
   4    2    5 1
   5    3    4 1
   6    3    7 1
   7    4    5 2
   8    4   22 1
   9    5    6 1
  10    6    8 1
  11    6   10 1
  12    6   23 1
  13    7    9 ar
  14    7   14 ar
  15    8   24 1
  16    8   25 1
  17    8   26 1
  18    9   11 ar
  19    9   27 1
  20   10   28 1
  21   10   29 1
  22   10   30 1
  23   11   12 ar
  24   11   31 1
  25   12   13 ar
  26   12   20 1
  27   13   14 ar
  28   13   32 1
  29   14   33 1
  30   15   16 1
  31   15   34 1
  32   15   35 1
  33   16   17 1
  34   16   18 2
  35   17   19 1
  36   19   36 1
  37   19   37 1
  38   19   38 1
  39   20   21 1
  40   21   39 1
  41   21   40 1
  42   21   41 1

#	End of record

