#	Name: ASD01870695
#	Creating user name:	WinNT
#	Creation time:	15. 06. 2019 19:39

#	Modifying user name:	WinNT
#	Modification time:	15. 06. 2019 19:39

#	Program:	/corina/corina34_cracker 3.40 0067  02.08.2006

@<TRIPOS>MOLECULE
ASD01870695
  45   48    0    0    0
SMALL
NO_CHARGES


@<TRIPOS>ATOM
   1 C1            -0.0356     1.5080    -0.0085 C.3     
   2 C2             0.0045    -0.0222    -0.0088 C.3     
   3 N3             0.9776    -0.4721     0.9982 N.am    
   4 C4             2.3937    -0.1318     0.7881 C.3     
   5 C5             1.3868     2.0436    -0.0104 C.2     
   6 C6             0.5844    -1.1737     2.0797 C.2     
   7 C7             1.5921    -1.7266     3.0078 C.ar    
   8 O8            -0.5994    -1.3515     2.2915 O.2     
   9 C9             1.7452     3.3950    -0.3937 C.2     
  10 C10            2.4568     1.3182     0.3448 C.2     
  11 S11            3.9232     2.2753     0.2248 S.3     
  12 C12            3.0740     3.6502    -0.3118 C.2     
  13 C13            0.7855     4.3688    -0.8196 C.1     
  14 N14            0.0242     5.1413    -1.1576 N.1     
  15 C15            3.7134     4.9720    -0.6506 C.3     
  16 N16            3.7608     5.8131     0.5480 N.pl3   
  17 C17            4.3139     7.0939     0.4810 C.ar    
  18 C18            1.3335    -1.7903     4.3838 C.ar    
  19 C19            2.3078    -2.3163     5.2101 C.ar    
  20 C20            3.4999    -2.7606     4.6564 C.ar    
  21 N21            3.7150    -2.6876     3.3546 N.ar    
  22 C22            2.8139    -2.1990     2.5279 C.ar    
  23 C23            4.8144     7.5739    -0.7226 C.ar    
  24 C24            4.3596     7.8926     1.6166 C.ar    
  25 C25            4.9072     9.1585     1.5469 C.ar    
  26 C26            5.4094     9.6313     0.3483 C.ar    
  27 C27            5.3607     8.8408    -0.7853 C.ar    
  28 F28            4.4557    -3.2754     5.4606 F       
  29 H29           -0.5582     1.8589    -0.8984 H       
  30 H30           -0.5558     1.8587     0.8828 H       
  31 H31           -0.9827    -0.4135     0.2370 H       
  32 H32            0.3063    -0.3794    -0.9934 H       
  33 H33            2.9464    -0.2582     1.7190 H       
  34 H34            2.8175    -0.7734     0.0155 H       
  35 H35            4.7263     4.8027    -1.0159 H       
  36 H36            3.1278     5.4718    -1.4222 H       
  37 H37            3.4080     5.4804     1.3881 H       
  38 H38            0.3965    -1.4367     4.7880 H       
  39 H39            2.1433    -2.3807     6.2756 H       
  40 H40            3.0244    -2.1596     1.4694 H       
  41 H41            4.7767     6.9570    -1.6083 H       
  42 H42            3.9670     7.5243     2.5528 H       
  43 H43            4.9431     9.7801     2.4294 H       
  44 H44            5.8364    10.6219     0.2964 H       
  45 H45            5.7500     9.2146    -1.7207 H       
@<TRIPOS>BOND
   1    1    2 1
   2    1    5 1
   3    1   29 1
   4    1   30 1
   5    2    3 1
   6    2   31 1
   7    2   32 1
   8    3    4 1
   9    3    6 am
  10    4   10 1
  11    4   33 1
  12    4   34 1
  13    5   10 2
  14    5    9 1
  15    6    7 1
  16    6    8 2
  17    7   18 ar
  18    7   22 ar
  19    9   12 2
  20    9   13 1
  21   10   11 1
  22   11   12 1
  23   12   15 1
  24   13   14 3
  25   15   16 1
  26   15   35 1
  27   15   36 1
  28   16   17 1
  29   16   37 1
  30   17   24 ar
  31   17   23 ar
  32   18   19 ar
  33   18   38 1
  34   19   20 ar
  35   19   39 1
  36   20   21 ar
  37   20   28 1
  38   21   22 ar
  39   22   40 1
  40   23   27 ar
  41   23   41 1
  42   24   25 ar
  43   24   42 1
  44   25   26 ar
  45   25   43 1
  46   26   27 ar
  47   26   44 1
  48   27   45 1

#	End of record

