#	Name: ASD01811123
#	Creating user name:	WinNT
#	Creation time:	15. 06. 2019 19:26

#	Modifying user name:	WinNT
#	Modification time:	15. 06. 2019 19:26

#	Program:	/corina/corina34_cracker 3.40 0067  02.08.2006

@<TRIPOS>MOLECULE
ASD01811123
  22   22    0    0    0
SMALL
NO_CHARGES


@<TRIPOS>ATOM
   1 N1            -0.0179     1.4673     0.0101 N.pl3   
   2 C2             0.0021    -0.0041     0.0020 C.3     
   3 C3             0.9224    -0.4689    -1.1324 C.3     
   4 O4             2.1889     0.1826    -1.0079 O.3     
   5 C5             2.1299     1.6055    -1.1328 C.3     
   6 C6             1.2714     2.1765     0.0016 C.3     
   7 S7            -1.2005     3.9213     0.0291 S.3     
   8 C8            -2.9818     4.2419     0.0393 C.3     
   9 C9            -1.2068     2.1593     0.0195 C.2     
  10 N10           -2.3386     1.5112     0.0214 N.2     
  11 H11            0.3808    -0.3713     0.9558 H       
  12 H12           -1.0060    -0.3840    -0.1641 H       
  13 H13            1.0605    -1.5483    -1.0700 H       
  14 H14            0.4743    -0.2133    -2.0926 H       
  15 H15            3.1367     2.0185    -1.0707 H       
  16 H16            1.6862     1.8686    -2.0930 H       
  17 H17            1.1039     3.2407    -0.1647 H       
  18 H18            1.7779     2.0288     0.9554 H       
  19 H19           -3.1573     5.3177     0.0460 H       
  20 H20           -3.4347     3.8054    -0.8509 H       
  21 H21           -3.4262     3.7958     0.9290 H       
  22 H22           -3.1769     1.9992     0.0281 H       
@<TRIPOS>BOND
   1    1    2 1
   2    1    6 1
   3    1    9 1
   4    2    3 1
   5    2   11 1
   6    2   12 1
   7    3    4 1
   8    3   13 1
   9    3   14 1
  10    4    5 1
  11    5    6 1
  12    5   15 1
  13    5   16 1
  14    6   17 1
  15    6   18 1
  16    7    8 1
  17    7    9 1
  18    8   19 1
  19    8   20 1
  20    8   21 1
  21    9   10 2
  22   10   22 1

#	End of record

