#	Name: ASD01816821
#	Creating user name:	WinNT
#	Creation time:	15. 06. 2019 19:36

#	Modifying user name:	WinNT
#	Modification time:	15. 06. 2019 19:36

#	Program:	/corina/corina34_cracker 3.40 0067  02.08.2006

@<TRIPOS>MOLECULE
ASD01816821
  50   53    0    0    0
SMALL
NO_CHARGES


@<TRIPOS>ATOM
   1 C1            -0.0168     1.3910     0.0097 C.ar    
   2 C2             0.0021    -0.0041     0.0020 C.ar    
   3 C3            -1.1564    -0.7197     0.0092 C.ar    
   4 C4            -2.3891    -0.0485     0.0246 C.ar    
   5 C5            -2.4150     1.3712     0.0325 C.ar    
   6 C6            -1.1958     2.0779     0.0303 C.ar    
   7 C7            -3.6059    -0.7561     0.0319 C.ar    
   8 C8            -4.7687    -0.0415     0.0464 C.ar    
   9 C9            -4.7260     1.3607     0.0536 C.ar    
  10 N10           -3.5812     2.0157     0.0471 N.ar    
  11 C11           -5.9968     2.1238     0.0694 C.2     
  12 N12           -5.9736     3.4714     0.0765 N.am    
  13 O13           -7.0593     1.5345     0.0760 O.2     
  14 C14           -7.2294     4.2256     0.0921 C.3     
  15 C15           -7.7182     4.3725     1.5345 C.3     
  16 C16           -6.9992     5.6122    -0.5121 C.3     
  17 C17           -8.3108     6.3998    -0.4958 C.3     
  18 C18           -8.7995     6.5468     0.9466 C.3     
  19 C19           -9.0298     5.1602     1.5508 C.3     
  20 O20           -6.5427     5.4749    -1.8593 O.3     
  21 C21           -3.6242    -2.2630     0.0234 C.3     
  22 C22           -3.4933    -2.7749     1.4347 C.ar    
  23 C23           -4.6184    -2.9986     2.2045 C.ar    
  24 C24           -2.2419    -3.0326     1.9747 C.ar    
  25 C25           -2.1688    -3.5022     3.2763 C.ar    
  26 C26           -3.3389    -3.6971     3.9893 C.ar    
  27 N27           -4.5125    -3.4461     3.4408 N.ar    
  28 Cl28          -3.2621    -4.2856     5.6207 Cl      
  29 F29           -1.1943     3.4289     0.0376 F       
  30 F30            1.1498     2.0722     0.0022 F       
  31 H31            0.9488    -0.5236    -0.0102 H       
  32 H32           -1.1268    -1.7993     0.0028 H       
  33 H33           -5.7192    -0.5542     0.0520 H       
  34 H34           -5.1253     3.9419     0.0713 H       
  35 H35           -7.9797     3.6941    -0.4933 H       
  36 H36           -7.8822     3.3847     1.9650 H       
  37 H37           -6.9679     4.9040     2.1200 H       
  38 H38           -6.2489     6.1436     0.0733 H       
  39 H39           -8.1467     7.3877    -0.9263 H       
  40 H40           -9.0610     5.8684    -1.0813 H       
  41 H41           -8.0492     7.0782     1.5320 H       
  42 H42           -9.7339     7.1079     0.9582 H       
  43 H43           -9.7800     4.6287     0.9653 H       
  44 H44           -9.3779     5.2649     2.5784 H       
  45 H45           -6.3758     6.3163    -2.3057 H       
  46 H46           -4.5640    -2.6125    -0.4042 H       
  47 H47           -2.7924    -2.6331    -0.5760 H       
  48 H48           -5.5963    -2.8044     1.7892 H       
  49 H49           -1.3455    -2.8714     1.3942 H       
  50 H50           -1.2112    -3.7138     3.7285 H       
@<TRIPOS>BOND
   1    1    2 ar
   2    1   30 1
   3    1    6 ar
   4    2    3 ar
   5    2   31 1
   6    3    4 ar
   7    3   32 1
   8    4    5 ar
   9    4    7 ar
  10    5    6 ar
  11    5   10 ar
  12    6   29 1
  13    7    8 ar
  14    7   21 1
  15    8    9 ar
  16    8   33 1
  17    9   10 ar
  18    9   11 1
  19   11   12 am
  20   11   13 2
  21   12   14 1
  22   12   34 1
  23   14   15 1
  24   14   16 1
  25   14   35 1
  26   15   19 1
  27   15   36 1
  28   15   37 1
  29   16   17 1
  30   16   20 1
  31   16   38 1
  32   17   18 1
  33   17   39 1
  34   17   40 1
  35   18   19 1
  36   18   41 1
  37   18   42 1
  38   19   43 1
  39   19   44 1
  40   20   45 1
  41   21   22 1
  42   21   46 1
  43   21   47 1
  44   22   23 ar
  45   22   24 ar
  46   23   27 ar
  47   23   48 1
  48   24   25 ar
  49   24   49 1
  50   25   26 ar
  51   25   50 1
  52   26   27 ar
  53   26   28 1

#	End of record

