#	Name: ASD03331080
#	Creating user name:	WinNT
#	Creation time:	15. 06. 2019 20:38

#	Modifying user name:	WinNT
#	Modification time:	15. 06. 2019 20:38

#	Program:	/corina/corina34_cracker 3.40 0067  02.08.2006

@<TRIPOS>MOLECULE
ASD03331080
  63   66    0    0    0
SMALL
NO_CHARGES


@<TRIPOS>ATOM
   1 N1             0.4014     1.2015    -1.4917 N.pl3   
   2 C2             0.4062    -0.1451    -1.3017 C.2     
   3 C3             1.6133    -1.0410    -1.4003 C.3     
   4 N4             2.7230    -0.4399    -0.6441 N.3     
   5 C5             3.5088     0.4651    -1.4850 C.3     
   6 C6             2.6213     1.1687    -2.5077 C.3     
   7 C7             1.5774     2.0253    -1.7861 C.3     
   8 C8            -0.8858     1.6302    -1.3455 C.2     
   9 N9            -1.6417     0.5960    -1.0594 N.2     
  10 C10           -0.8738    -0.5153    -1.0222 C.2     
  11 C11           -1.3386    -1.8830    -0.7315 C.2     
  12 O12           -0.5470    -2.8064    -0.7276 O.2     
  13 N13           -2.6409    -2.1108    -0.4699 N.am    
  14 C14           -4.6288    -3.4773    -0.0671 C.3     
  15 C15           -3.1031    -3.4706    -0.1809 C.3     
  16 C16           -2.6719    -4.4069    -1.3115 C.3     
  17 O17           -6.7893    -1.9198    -3.2981 O.3     
  18 C18           -5.3641    -1.8277    -3.3726 C.3     
  19 C19           -4.7739    -1.9839    -1.9686 C.3     
  20 N20           -5.2198    -3.2618    -1.3946 N.3     
  21 C21           -6.6875    -3.3218    -1.3340 C.3     
  22 C22           -7.2585    -3.1522    -2.7443 C.3     
  23 C23           -2.4912    -3.9477     1.1378 C.3     
  24 C24            3.5753    -1.4765    -0.0466 C.3     
  25 C25           -1.3512     3.0267    -1.4854 C.ar    
  26 C26           -2.4846     3.3150    -2.2508 C.ar    
  27 C27           -2.9149     4.6218    -2.3774 C.ar    
  28 C28           -2.2247     5.6445    -1.7478 C.ar    
  29 C29           -1.0991     5.3633    -0.9877 C.ar    
  30 C30           -0.6639     4.0609    -0.8492 C.ar    
  31 F31           -2.6491     6.9208    -1.8750 F       
  32 F32           -3.1578     2.3181    -2.8658 F       
  33 Cl33          -0.2397     6.6516    -0.2032 Cl      
  34 H34            1.3758    -2.0195    -0.9829 H       
  35 H35            1.9017    -1.1500    -2.4458 H       
  36 H36            3.9902     1.2124    -0.8543 H       
  37 H37            4.2745    -0.1072    -2.0088 H       
  38 H38            3.2360     1.8058    -3.1435 H       
  39 H39            2.1164     0.4238    -3.1228 H       
  40 H40            1.2871     2.8602    -2.4239 H       
  41 H41            1.9983     2.4055    -0.8553 H       
  42 H42           -3.2723    -1.3744    -0.4729 H       
  43 H43           -4.9596    -4.4386     0.3262 H       
  44 H44           -4.9465    -2.6808     0.6057 H       
  45 H45           -1.5858    -4.4996    -1.3122 H       
  46 H46           -3.1202    -5.3890    -1.1609 H       
  47 H47           -3.0024    -3.9993    -2.2668 H       
  48 H48           -4.9815    -2.6182    -4.0182 H       
  49 H49           -5.0829    -0.8564    -3.7796 H       
  50 H50           -3.6856    -1.9715    -2.0278 H       
  51 H51           -5.1141    -1.1630    -1.3374 H       
  52 H52           -6.9960    -4.2860    -0.9299 H       
  53 H53           -7.0582    -2.5222    -0.6926 H       
  54 H54           -8.3473    -3.1388    -2.6970 H       
  55 H55           -6.9310    -3.9812    -3.3717 H       
  56 H56           -2.7985    -3.2807     1.9433 H       
  57 H57           -2.8351    -4.9595     1.3529 H       
  58 H58           -1.4043    -3.9430     1.0568 H       
  59 H59            3.9331    -2.1474    -0.8276 H       
  60 H60            4.4262    -1.0071     0.4472 H       
  61 H61            2.9989    -2.0440     0.6841 H       
  62 H62           -3.7905     4.8464    -2.9684 H       
  63 H63            0.2098     3.8431    -0.2530 H       
@<TRIPOS>BOND
   1    1    2 1
   2    1    7 1
   3    1    8 1
   4    2    3 1
   5    2   10 2
   6    3    4 1
   7    3   34 1
   8    3   35 1
   9    4    5 1
  10    4   24 1
  11    5    6 1
  12    5   36 1
  13    5   37 1
  14    6    7 1
  15    6   38 1
  16    6   39 1
  17    7   40 1
  18    7   41 1
  19    8    9 2
  20    8   25 1
  21    9   10 1
  22   10   11 1
  23   11   12 2
  24   11   13 am
  25   13   15 1
  26   13   42 1
  27   14   15 1
  28   14   20 1
  29   14   43 1
  30   14   44 1
  31   15   16 1
  32   15   23 1
  33   16   45 1
  34   16   46 1
  35   16   47 1
  36   17   18 1
  37   17   22 1
  38   18   19 1
  39   18   48 1
  40   18   49 1
  41   19   20 1
  42   19   50 1
  43   19   51 1
  44   20   21 1
  45   21   22 1
  46   21   52 1
  47   21   53 1
  48   22   54 1
  49   22   55 1
  50   23   56 1
  51   23   57 1
  52   23   58 1
  53   24   59 1
  54   24   60 1
  55   24   61 1
  56   25   26 ar
  57   25   30 ar
  58   26   27 ar
  59   26   32 1
  60   27   28 ar
  61   27   62 1
  62   28   29 ar
  63   28   31 1
  64   29   30 ar
  65   29   33 1
  66   30   63 1

#	End of record

