#	Name: ASD01411022
#	Creating user name:	WinNT
#	Creation time:	15. 06. 2019 19:19

#	Modifying user name:	WinNT
#	Modification time:	15. 06. 2019 19:19

#	Program:	/corina/corina34_cracker 3.40 0067  02.08.2006

@<TRIPOS>MOLECULE
ASD01411022
  75   80    0    0    0
SMALL
NO_CHARGES


@<TRIPOS>ATOM
   1 C1            -0.3556     1.4551     1.0297 C.ar    
   2 C2            -0.2628     0.0777     0.7511 C.ar    
   3 C3            -1.4029    -0.6452     0.4165 C.ar    
   4 C4            -2.6158    -0.0235     0.3562 C.ar    
   5 C5            -2.7271     1.3466     0.6303 C.ar    
   6 C6            -1.5996     2.0857     0.9718 C.ar    
   7 N7             0.8947     1.8895     1.3209 N.2     
   8 C8             1.7359     0.8892     1.2414 C.2     
   9 N9             1.0669    -0.2533     0.8918 N.pl3   
  10 C10            1.6560    -1.5813     0.7030 C.3     
  11 C11            1.0745    -2.5487     1.7360 C.3     
  12 C12            1.6897    -3.9356     1.5388 C.3     
  13 C13            1.3691    -4.4402     0.1304 C.3     
  14 C14            1.9506    -3.4728    -0.9026 C.3     
  15 C15            1.3354    -2.0859    -0.7054 C.3     
  16 C16           -4.0465     2.0064     0.5607 C.2     
  17 O17           -4.1452     3.1946     0.7981 O.2     
  18 N18           -5.1411     1.2912     0.2340 N.am    
  19 C19           -6.4643     1.9190     0.2713 C.3     
  20 C20           -6.5985     3.0598    -0.7042 C.2     
  21 O21           -7.3721     3.9654    -0.4756 O.2     
  22 C22            3.1917     0.9799     1.4915 C.ar    
  23 C23           -7.6255     0.9130     0.2062 C.3     
  24 C24           -8.3390     1.7888     1.2497 C.3     
  25 C25           -6.9428     2.2636     1.6916 C.3     
  26 N26           -5.8588     3.0736    -1.8308 N.am    
  27 C27           -6.1066     4.0292    -2.8161 C.ar    
  28 C28           -5.7848     3.7575    -4.1425 C.ar    
  29 C29           -6.0271     4.6974    -5.1179 C.ar    
  30 C30           -6.5987     5.9285    -4.7742 C.ar    
  31 C31           -6.9212     6.1972    -3.4385 C.ar    
  32 C32           -6.6802     5.2492    -2.4706 C.ar    
  33 C33           -6.8589     6.9356    -5.8121 C.2     
  34 C34           -7.4106     8.1228    -5.4782 C.2     
  35 C35            3.7803     2.2254     1.7054 C.ar    
  36 C36            5.1436     2.2939     1.9386 C.ar    
  37 C37            5.8735     1.1145     1.9502 C.ar    
  38 C38            5.2243    -0.0880     1.7302 C.ar    
  39 N39            3.9261    -0.1262     1.5159 N.ar    
  40 C40           -7.6616     9.0945    -6.4796 C.2     
  41 O41           -7.3804     8.8593    -7.6395 O.2     
  42 O42           -8.2126    10.2802    -6.1461 O.3     
  43 H43           -1.3278    -1.7013     0.2035 H       
  44 H44           -3.4967    -0.5911     0.0949 H       
  45 H45           -1.6847     3.1414     1.1834 H       
  46 H46            2.7368    -1.5207     0.8300 H       
  47 H47            1.3029    -2.1892     2.7393 H       
  48 H48           -0.0063    -2.6092     1.6090 H       
  49 H49            2.7706    -3.8750     1.6657 H       
  50 H50            1.2755    -4.6248     2.2747 H       
  51 H51            1.8074    -5.4282    -0.0101 H       
  52 H52            0.2883    -4.5007     0.0034 H       
  53 H53            3.0314    -3.4122    -0.7756 H       
  54 H54            1.7222    -3.8322    -1.9059 H       
  55 H55            0.2545    -2.1464    -0.8323 H       
  56 H56            1.7496    -1.3967    -1.4413 H       
  57 H57           -5.0529     0.3609    -0.0259 H       
  58 H58           -8.1284     0.8885    -0.7605 H       
  59 H59           -7.3646    -0.0793     0.5740 H       
  60 H60           -8.9494     2.5790     0.8126 H       
  61 H61           -8.8681     1.2165     2.0117 H       
  62 H62           -6.4946     1.6407     2.4657 H       
  63 H63           -6.8966     3.3276     1.9235 H       
  64 H64           -5.1541     2.4190    -1.9564 H       
  65 H65           -5.3440     2.8076    -4.4067 H       
  66 H66           -5.7765     4.4860    -6.1469 H       
  67 H67           -7.3620     7.1456    -3.1688 H       
  68 H68           -6.9289     5.4555    -1.4400 H       
  69 H69           -6.6092     6.7267    -6.8419 H       
  70 H70           -7.6603     8.3317    -4.4484 H       
  71 H71            3.1815     3.1241     1.6892 H       
  72 H72            5.6277     3.2445     2.1073 H       
  73 H73            6.9384     1.1343     2.1288 H       
  74 H74            5.7900    -1.0080     1.7382 H       
  75 H75           -8.3456    10.8768    -6.8955 H       
@<TRIPOS>BOND
   1    1    2 ar
   2    1    7 1
   3    1    6 ar
   4    2    3 ar
   5    2    9 1
   6    3    4 ar
   7    3   43 1
   8    4    5 ar
   9    4   44 1
  10    5    6 ar
  11    5   16 1
  12    6   45 1
  13    7    8 2
  14    8    9 1
  15    8   22 1
  16    9   10 1
  17   10   11 1
  18   10   15 1
  19   10   46 1
  20   11   12 1
  21   11   47 1
  22   11   48 1
  23   12   13 1
  24   12   49 1
  25   12   50 1
  26   13   14 1
  27   13   51 1
  28   13   52 1
  29   14   15 1
  30   14   53 1
  31   14   54 1
  32   15   55 1
  33   15   56 1
  34   16   17 2
  35   16   18 am
  36   18   19 1
  37   18   57 1
  38   19   20 1
  39   19   23 1
  40   19   25 1
  41   20   21 2
  42   20   26 am
  43   22   35 ar
  44   22   39 ar
  45   23   24 1
  46   23   58 1
  47   23   59 1
  48   24   25 1
  49   24   60 1
  50   24   61 1
  51   25   62 1
  52   25   63 1
  53   26   27 1
  54   26   64 1
  55   27   28 ar
  56   27   32 ar
  57   28   29 ar
  58   28   65 1
  59   29   30 ar
  60   29   66 1
  61   30   31 ar
  62   30   33 1
  63   31   32 ar
  64   31   67 1
  65   32   68 1
  66   33   34 2
  67   33   69 1
  68   34   40 1
  69   34   70 1
  70   35   36 ar
  71   35   71 1
  72   36   37 ar
  73   36   72 1
  74   37   38 ar
  75   37   73 1
  76   38   39 ar
  77   38   74 1
  78   40   41 2
  79   40   42 1
  80   42   75 1

#	End of record

