#	Name: ASD03240239
#	Creating user name:	WinNT
#	Creation time:	15. 06. 2019 20:34

#	Modifying user name:	WinNT
#	Modification time:	15. 06. 2019 20:34

#	Program:	/corina/corina34_cracker 3.40 0067  02.08.2006

@<TRIPOS>MOLECULE
ASD03240239
  57   62    0    0    0
SMALL
NO_CHARGES


@<TRIPOS>ATOM
   1 C1            -0.5306     1.9248    -0.6203 C.ar    
   2 C2            -0.6938     0.5662    -0.5774 C.ar    
   3 C3             0.4279    -0.2612    -0.4839 C.ar    
   4 N4             1.6518     0.2459    -0.4359 N.ar    
   5 C5             1.8579     1.5510    -0.4744 C.ar    
   6 C6             0.7707     2.4416    -0.5684 C.ar    
   7 N7             2.9932     2.3371    -0.4409 N.pl3   
   8 C8             2.5850     3.6453    -0.5129 C.2     
   9 N9             1.2762     3.6972    -0.5881 N.2     
  10 C10            3.4827     4.8170    -0.5064 C.ar    
  11 C11            4.3155     1.8832    -0.3504 C.ar    
  12 C12            4.8780     1.1658    -1.3976 C.ar    
  13 C13            6.1819     0.7196    -1.3053 C.ar    
  14 C14            6.9269     0.9868    -0.1714 C.ar    
  15 C15            6.3695     1.7010     0.8732 C.ar    
  16 C16            5.0680     2.1548     0.7845 C.ar    
  17 N17            4.0368     6.9557     0.3437 N.ar    
  18 C18            3.2291     5.9072     0.3419 C.ar    
  19 C19            4.6042     4.8590    -1.3405 C.ar    
  20 C20            5.4148     5.9806    -1.2970 C.ar    
  21 C21            5.0968     7.0174    -0.4392 C.ar    
  22 C22            8.3491     0.4980    -0.0738 C.3     
  23 N23            2.1270     5.8852     1.1813 N.pl3   
  24 N24            8.9391     0.1942    -1.3843 N.3     
  25 C25            0.2463    -1.7319    -0.4372 C.ar    
  26 C26            1.3555    -2.5712    -0.3440 C.ar    
  27 C27            1.1804    -3.9394    -0.3003 C.ar    
  28 C28           -0.0927    -4.4783    -0.3494 C.ar    
  29 C29           -1.1971    -3.6504    -0.4419 C.ar    
  30 C30           -1.0345    -2.2806    -0.4805 C.ar    
  31 C31            9.2433     1.3784     0.8152 C.3     
  32 C32            8.5468    -0.6188     0.9647 C.3     
  33 C33            9.8682     0.0755     1.3414 C.3     
  34 H34           -1.3841     2.5822    -0.6969 H       
  35 H35           -1.6839     0.1367    -0.6151 H       
  36 H36            4.2965     0.9565    -2.2834 H       
  37 H37            6.6199     0.1612    -2.1194 H       
  38 H38            6.9538     1.9077     1.7577 H       
  39 H39            4.6348     2.7167     1.5988 H       
  40 H40            4.8327     4.0366    -2.0022 H       
  41 H41            6.2890     6.0450    -1.9280 H       
  42 H42            5.7297     7.8919    -0.4068 H       
  43 H43            1.8974     6.6714     1.7011 H       
  44 H44            1.5849     5.0837     1.2491 H       
  45 H45            8.3322    -0.4044    -1.9241 H       
  46 H46            9.1542     1.0409    -1.8892 H       
  47 H47            2.3499    -2.1516    -0.3063 H       
  48 H48            2.0389    -4.5906    -0.2281 H       
  49 H49           -0.2249    -5.5497    -0.3157 H       
  50 H50           -2.1886    -4.0768    -0.4799 H       
  51 H51           -1.8976    -1.6350    -0.5482 H       
  52 H52            9.9398     2.0009     0.2535 H       
  53 H53            8.6924     1.9356     1.5729 H       
  54 H54            7.8050    -0.6087     1.7633 H       
  55 H55            8.6817    -1.6064     0.5234 H       
  56 H56           10.7219    -0.2667     0.7564 H       
  57 H57           10.0659     0.0879     2.4133 H       
@<TRIPOS>BOND
   1    1    2 ar
   2    1    6 ar
   3    1   34 1
   4    2    3 ar
   5    2   35 1
   6    3    4 ar
   7    3   25 1
   8    4    5 ar
   9    5    7 1
  10    5    6 ar
  11    6    9 1
  12    7    8 1
  13    7   11 1
  14    8    9 2
  15    8   10 1
  16   10   19 ar
  17   10   18 ar
  18   11   12 ar
  19   11   16 ar
  20   12   13 ar
  21   12   36 1
  22   13   14 ar
  23   13   37 1
  24   14   15 ar
  25   14   22 1
  26   15   16 ar
  27   15   38 1
  28   16   39 1
  29   17   18 ar
  30   17   21 ar
  31   18   23 1
  32   19   20 ar
  33   19   40 1
  34   20   21 ar
  35   20   41 1
  36   21   42 1
  37   22   24 1
  38   22   31 1
  39   22   32 1
  40   23   43 1
  41   23   44 1
  42   24   45 1
  43   24   46 1
  44   25   26 ar
  45   25   30 ar
  46   26   27 ar
  47   26   47 1
  48   27   28 ar
  49   27   48 1
  50   28   29 ar
  51   28   49 1
  52   29   30 ar
  53   29   50 1
  54   30   51 1
  55   31   33 1
  56   31   52 1
  57   31   53 1
  58   32   33 1
  59   32   54 1
  60   32   55 1
  61   33   56 1
  62   33   57 1

#	End of record

