#	Name: ASD01020019
#	Creating user name:	WinNT
#	Creation time:	15. 06. 2019 18:56

#	Modifying user name:	WinNT
#	Modification time:	15. 06. 2019 18:56

#	Program:	/corina/corina34_cracker 3.40 0067  02.08.2006

@<TRIPOS>MOLECULE
ASD01020019
  64   69    0    0    0
SMALL
NO_CHARGES


@<TRIPOS>ATOM
   1 F1             0.4569     3.2555    -0.8979 F       
   2 C2             0.9036     3.9748     0.1549 C.ar    
   3 C3             0.1260     4.9876     0.6801 C.ar    
   4 C4             0.5863     5.7275     1.7628 C.ar    
   5 C5             1.8297     5.4500     2.3193 C.ar    
   6 C6             2.6101     4.4393     1.7990 C.ar    
   7 C7             2.1500     3.6911     0.7171 C.ar    
   8 C8             2.9855     2.5997     0.1596 C.ar    
   9 C9             2.4305     1.3390    -0.0580 C.ar    
  10 C10            3.2075     0.3204    -0.5781 C.ar    
  11 C11            4.5308     0.5474    -0.8826 C.ar    
  12 C12            5.6228    -0.3271    -1.4475 C.3     
  13 N13            6.8207     0.5156    -1.5339 N.am    
  14 C14            8.1313     0.0868    -2.0287 C.3     
  15 H15            8.8040     0.9436    -2.0650 H       
  16 C16            8.6995    -0.9592    -1.1045 C.2     
  17 O17            8.0716    -1.3117    -0.1286 O.2     
  18 N18            9.9055    -1.5028    -1.3624 N.am    
  19 C19           10.4296    -2.4676    -0.5099 C.2     
  20 N20            9.8406    -2.9178     0.5533 N.2     
  21 C21           10.4841    -3.8362     1.2494 C.2     
  22 C22           11.6735    -4.1782     0.7505 C.2     
  23 S23           11.9418    -3.2384    -0.7153 S.3     
  24 C24            7.9811    -0.4930    -3.4116 C.ar    
  25 C25            7.1214    -1.5540    -3.6266 C.ar    
  26 C26            6.9836    -2.0858    -4.8951 C.ar    
  27 C27            7.7051    -1.5563    -5.9486 C.ar    
  28 C28            8.5641    -0.4947    -5.7338 C.ar    
  29 C29            8.6986     0.0398    -4.4661 C.ar    
  30 C30            6.5179     1.7457    -1.0849 C.2     
  31 O31            7.2980     2.6762    -1.0288 O.2     
  32 C32            5.1027     1.8053    -0.6705 C.ar    
  33 C33            4.3210     2.8361    -0.1513 C.ar    
  34 N34           -0.2009     6.7512     2.2920 N.3     
  35 C35           -1.5238     6.2477     2.6870 C.3     
  36 C36           -2.3816     7.4124     3.1868 C.3     
  37 N37           -1.7086     8.0620     4.3203 N.3     
  38 C38           -0.3857     8.5655     3.9253 C.3     
  39 C39            0.4722     7.4007     3.4255 C.3     
  40 H40           -0.8401     5.2052     0.2491 H       
  41 H41            2.1850     6.0271     3.1602 H       
  42 H42            3.5759     4.2252     2.2322 H       
  43 H43            1.3928     1.1580     0.1802 H       
  44 H44            2.7756    -0.6552    -0.7454 H       
  45 H45            5.8065    -1.1723    -0.7843 H       
  46 H46            5.3426    -0.6825    -2.4391 H       
  47 H47           10.4077    -1.2208    -2.1429 H       
  48 H48           10.0807    -4.2753     2.1499 H       
  49 H49           12.3514    -4.9071     1.1696 H       
  50 H50            6.5577    -1.9676    -2.8034 H       
  51 H51            6.3125    -2.9151    -5.0629 H       
  52 H52            7.5980    -1.9723    -6.9395 H       
  53 H53            9.1280    -0.0813    -6.5569 H       
  54 H54            9.3669     0.8717    -4.2990 H       
  55 H55            4.7512     3.8130     0.0128 H       
  56 H56           -2.0072     5.7825     1.8279 H       
  57 H57           -1.4100     5.5119     3.4832 H       
  58 H58           -2.5180     8.1351     2.3823 H       
  59 H59           -3.3534     7.0370     3.5075 H       
  60 H60           -2.2777     8.8021     4.7029 H       
  61 H61           -0.4994     9.3012     3.1291 H       
  62 H62            0.0977     9.0307     4.7844 H       
  63 H63            0.6086     6.6781     4.2301 H       
  64 H64            1.4439     7.7761     3.1048 H       
@<TRIPOS>BOND
   1    1    2 1
   2    2    7 ar
   3    2    3 ar
   4    3    4 ar
   5    3   40 1
   6    4    5 ar
   7    4   34 1
   8    5    6 ar
   9    5   41 1
  10    6    7 ar
  11    6   42 1
  12    7    8 1
  13    8   33 ar
  14    8    9 ar
  15    9   10 ar
  16    9   43 1
  17   10   11 ar
  18   10   44 1
  19   11   32 ar
  20   11   12 1
  21   12   13 1
  22   12   45 1
  23   12   46 1
  24   13   14 1
  25   13   30 am
  26   14   15 1
  27   14   16 1
  28   14   24 1
  29   16   17 2
  30   16   18 am
  31   18   19 1
  32   18   47 1
  33   19   23 1
  34   19   20 2
  35   20   21 1
  36   21   22 2
  37   21   48 1
  38   22   23 1
  39   22   49 1
  40   24   29 ar
  41   24   25 ar
  42   25   26 ar
  43   25   50 1
  44   26   27 ar
  45   26   51 1
  46   27   28 ar
  47   27   52 1
  48   28   29 ar
  49   28   53 1
  50   29   54 1
  51   30   31 2
  52   30   32 1
  53   32   33 ar
  54   33   55 1
  55   34   39 1
  56   34   35 1
  57   35   36 1
  58   35   56 1
  59   35   57 1
  60   36   37 1
  61   36   58 1
  62   36   59 1
  63   37   38 1
  64   37   60 1
  65   38   39 1
  66   38   61 1
  67   38   62 1
  68   39   63 1
  69   39   64 1

#	End of record

