#	Name: ASD01810247
#	Creating user name:	WinNT
#	Creation time:	15. 06. 2019 19:24

#	Modifying user name:	WinNT
#	Modification time:	15. 06. 2019 19:24

#	Program:	/corina/corina34_cracker 3.40 0067  02.08.2006

@<TRIPOS>MOLECULE
ASD01810247
  42   45    0    0    0
SMALL
NO_CHARGES


@<TRIPOS>ATOM
   1 C1            -0.0168     1.3839    -0.0505 C.ar    
   2 C2             0.0020    -0.0038    -0.0575 C.ar    
   3 C3             1.1973    -0.6918    -0.0524 C.ar    
   4 C4             2.4035     0.0088    -0.0404 C.ar    
   5 C5             2.3796     1.4130    -0.0338 C.ar    
   6 C6             1.1623     2.0949    -0.0387 C.ar    
   7 N7             3.6055    -0.6664    -0.0346 N.pl3   
   8 C8             4.7891    -0.0408    -0.0228 C.2     
   9 C9             4.8932     1.3358    -0.0149 C.2     
  10 C10            3.6618     2.1419    -0.0212 C.2     
  11 O11            3.6999     3.3598    -0.0151 O.2     
  12 C12            6.2115     1.9854    -0.0005 C.2     
  13 O13            6.3000     3.3306     0.0070 O.3     
  14 O14            7.2220     1.3098     0.0046 O.2     
  15 C15            3.5869    -2.1313    -0.0413 C.3     
  16 C16            3.4437    -2.6254    -1.4578 C.ar    
  17 N17            2.2457    -2.7334    -2.0001 N.ar    
  18 N18            2.0717    -3.1489    -3.2019 N.ar    
  19 C19            3.0886    -3.4982    -3.9803 C.ar    
  20 C20            4.3943    -3.4161    -3.4894 C.ar    
  21 C21            4.5720    -2.9608    -2.1921 C.ar    
  22 C22            2.8403    -3.9734    -5.3632 C.ar    
  23 F23            1.2000    -2.0428    -0.0584 F       
  24 C24            1.5372    -4.0550    -5.8508 C.ar    
  25 C25            1.3108    -4.4976    -7.1377 C.ar    
  26 C26            2.3767    -4.8608    -7.9451 C.ar    
  27 C27            3.6739    -4.7817    -7.4643 C.ar    
  28 C28            3.9099    -4.3343    -6.1808 C.ar    
  29 F29            2.1506    -5.2937    -9.2048 F       
  30 H30           -0.9608     1.9086    -0.0589 H       
  31 H31           -0.9292    -0.5507    -0.0668 H       
  32 H32            1.1450     3.1748    -0.0339 H       
  33 H33            5.6924    -0.6326    -0.0188 H       
  34 H34            7.1886     3.7120     0.0164 H       
  35 H35            4.5175    -2.5084     0.3827 H       
  36 H36            2.7459    -2.4866     0.5542 H       
  37 H37            5.2386    -3.6944    -4.1027 H       
  38 H38            5.5594    -2.8774    -1.7628 H       
  39 H39            0.7058    -3.7725    -5.2220 H       
  40 H40            0.3014    -4.5615    -7.5162 H       
  41 H41            4.5017    -5.0664    -8.0968 H       
  42 H42            4.9212    -4.2730    -5.8068 H       
@<TRIPOS>BOND
   1    1    2 ar
   2    1    6 ar
   3    1   30 1
   4    2    3 ar
   5    2   31 1
   6    3    4 ar
   7    3   23 1
   8    4    5 ar
   9    4    7 1
  10    5    6 ar
  11    5   10 1
  12    6   32 1
  13    7    8 1
  14    7   15 1
  15    8    9 2
  16    8   33 1
  17    9   10 1
  18    9   12 1
  19   10   11 2
  20   12   13 1
  21   12   14 2
  22   13   34 1
  23   15   16 1
  24   15   35 1
  25   15   36 1
  26   16   17 ar
  27   16   21 ar
  28   17   18 ar
  29   18   19 ar
  30   19   20 ar
  31   19   22 1
  32   20   21 ar
  33   20   37 1
  34   21   38 1
  35   22   24 ar
  36   22   28 ar
  37   24   25 ar
  38   24   39 1
  39   25   26 ar
  40   25   40 1
  41   26   27 ar
  42   26   29 1
  43   27   28 ar
  44   27   41 1
  45   28   42 1

#	End of record

