#	Name: ASD03110043
#	Creating user name:	WinNT
#	Creation time:	15. 06. 2019 20:33

#	Modifying user name:	WinNT
#	Modification time:	15. 06. 2019 20:33

#	Program:	/corina/corina34_cracker 3.40 0067  02.08.2006

@<TRIPOS>MOLECULE
ASD03110043
  24   24    0    0    0
SMALL
NO_CHARGES


@<TRIPOS>ATOM
   1 C1            -0.0187     1.5278     0.0104 C.3     
   2 C2             0.0021    -0.0041     0.0020 C.3     
   3 C3            -1.4120    -0.5157     0.1003 C.2     
   4 C4            -2.3980     0.2357     0.7562 C.2     
   5 C5            -2.1220     1.4255     1.3198 C.2     
   6 C6            -0.7337     2.0058     1.2774 C.3     
   7 C7             1.4157     2.0600    -0.0004 C.3     
   8 O8            -0.8139     3.4325     1.2695 O.3     
   9 O9            -1.7003    -1.5878    -0.3931 O.2     
  10 O10           -0.7146     2.0036    -1.1434 O.3     
  11 O11           -3.1059     2.1104     1.9329 O.3     
  12 C12           -4.4247     1.5029     1.9427 C.3     
  13 H13            0.4541    -0.3575    -0.9247 H       
  14 H14            0.5805    -0.3655     0.8522 H       
  15 H15           -3.4051    -0.1508     0.8098 H       
  16 H16           -0.1761     1.6781     2.1547 H       
  17 H17            1.9266     1.7094    -0.8972 H       
  18 H18            1.3990     3.1499     0.0056 H       
  19 H19            1.9435     1.6999     0.8827 H       
  20 H20           -1.2557     3.8059     2.0444 H       
  21 H21           -0.3192     1.7291    -1.9821 H       
  22 H22           -4.7648     1.3562     0.9175 H       
  23 H23           -4.3774     0.5399     2.4511 H       
  24 H24           -5.1219     2.1566     2.4668 H       
@<TRIPOS>BOND
   1    1    2 1
   2    1    7 1
   3    1   10 1
   4    1    6 1
   5    2    3 1
   6    2   13 1
   7    2   14 1
   8    3    4 1
   9    3    9 2
  10    4    5 2
  11    4   15 1
  12    5    6 1
  13    5   11 1
  14    6    8 1
  15    6   16 1
  16    7   17 1
  17    7   18 1
  18    7   19 1
  19    8   20 1
  20   10   21 1
  21   11   12 1
  22   12   22 1
  23   12   23 1
  24   12   24 1

#	End of record

