#	Name: ASD01940362
#	Creating user name:	WinNT
#	Creation time:	15. 06. 2019 20:12

#	Modifying user name:	WinNT
#	Modification time:	15. 06. 2019 20:12

#	Program:	/corina/corina34_cracker 3.40 0067  02.08.2006

@<TRIPOS>MOLECULE
ASD01940362
  54   57    0    0    0
SMALL
NO_CHARGES


@<TRIPOS>ATOM
   1 C1            -1.1622     2.3610    -1.5608 C.3     
   2 C2            -0.9511     1.4915    -2.8019 C.3     
   3 C3            -1.2579     2.9826    -2.9556 C.3     
   4 S4            -2.7063     2.1388    -0.6351 S.o2    
   5 O5            -3.8244     2.4892    -1.4390 O.2     
   6 O6            -2.6805     0.9181     0.0919 O.2     
   7 N7            -2.6600     3.3112     0.5334 N.am    
   8 C8            -2.5884     4.6621     0.1680 C.ar    
   9 C9            -1.8510     5.5571     0.9423 C.ar    
  10 C10           -1.7836     6.8943     0.5757 C.ar    
  11 C11           -2.4488     7.3353    -0.5576 C.ar    
  12 C12           -3.1801     6.4450    -1.3245 C.ar    
  13 C13           -3.2461     5.1103    -0.9672 C.ar    
  14 N14           -1.1800     5.1079     2.0879 N.pl3   
  15 C15           -0.0437     7.8260     5.0385 C.ar    
  16 C16           -1.3880     7.4894     4.8814 C.ar    
  17 C17           -1.7627     6.5894     3.9047 C.ar    
  18 C18           -0.7993     6.0188     3.0769 C.ar    
  19 C19            0.5398     6.3535     3.2335 C.ar    
  20 C20            0.9181     7.2527     4.2087 C.ar    
  21 C21            0.3611     8.7977     6.0835 C.ar    
  22 C22            1.7048     9.1343     6.2407 C.ar    
  23 C23            2.0789    10.0377     7.2127 C.ar    
  24 C24            1.1174    10.6124     8.0359 C.ar    
  25 C25           -0.2229    10.2778     7.8812 C.ar    
  26 C26           -0.6022     9.3800     6.9061 C.ar    
  27 S27            1.9553    13.0601     8.5930 S.o2    
  28 O28            2.2701    13.6886     9.8280 O.2     
  29 O29            2.9490    12.8651     7.5961 O.2     
  30 N30            1.4986    11.5267     9.0199 N.am    
  31 C31            0.4620    13.7921     7.8686 C.3     
  32 F32           -3.0645     6.2620     3.7516 F       
  33 F33           -2.3835     8.6368    -0.9141 F       
  34 F34           -1.0707     7.7651     1.3230 F       
  35 H35           -0.2849     2.6034    -0.9610 H       
  36 H36            0.0649     1.1618    -3.0186 H       
  37 H37           -1.7401     0.7859    -3.0622 H       
  38 H38           -2.2487     3.2579    -3.3170 H       
  39 H39           -0.4437     3.6338    -3.2734 H       
  40 H40           -2.6823     3.0629     1.4708 H       
  41 H41           -3.6969     6.7924    -2.2069 H       
  42 H42           -3.8137     4.4176    -1.5708 H       
  43 H43           -0.9799     4.1647     2.1942 H       
  44 H44           -2.1348     7.9323     5.5236 H       
  45 H45            1.2855     5.9095     2.5907 H       
  46 H46            1.9595     7.5122     4.3294 H       
  47 H47            2.4522     8.6875     5.6018 H       
  48 H48            3.1197    10.2988     7.3349 H       
  49 H49           -0.9682    10.7252     8.5220 H       
  50 H50           -1.6442     9.1242     6.7828 H       
  51 H51            1.4958    11.2636     9.9535 H       
  52 H52            0.6594    14.8300     7.6006 H       
  53 H53            0.1799    13.2337     6.9761 H       
  54 H54           -0.3506    13.7525     8.5940 H       
@<TRIPOS>BOND
   1    1    2 1
   2    1    3 1
   3    1    4 1
   4    1   35 1
   5    2    3 1
   6    2   36 1
   7    2   37 1
   8    3   38 1
   9    3   39 1
  10    4    5 2
  11    4    6 2
  12    4    7 am
  13    7    8 1
  14    7   40 1
  15    8    9 ar
  16    8   13 ar
  17    9   10 ar
  18    9   14 1
  19   10   11 ar
  20   10   34 1
  21   11   12 ar
  22   11   33 1
  23   12   13 ar
  24   12   41 1
  25   13   42 1
  26   14   18 1
  27   14   43 1
  28   15   16 ar
  29   15   20 ar
  30   15   21 1
  31   16   17 ar
  32   16   44 1
  33   17   18 ar
  34   17   32 1
  35   18   19 ar
  36   19   20 ar
  37   19   45 1
  38   20   46 1
  39   21   22 ar
  40   21   26 ar
  41   22   23 ar
  42   22   47 1
  43   23   24 ar
  44   23   48 1
  45   24   25 ar
  46   24   30 1
  47   25   26 ar
  48   25   49 1
  49   26   50 1
  50   27   28 2
  51   27   29 2
  52   27   30 am
  53   27   31 1
  54   30   51 1
  55   31   52 1
  56   31   53 1
  57   31   54 1

#	End of record

