#	Name: ASD01910271
#	Creating user name:	WinNT
#	Creation time:	15. 06. 2019 19:55

#	Modifying user name:	WinNT
#	Modification time:	15. 06. 2019 19:55

#	Program:	/corina/corina34_cracker 3.40 0067  02.08.2006

@<TRIPOS>MOLECULE
ASD01910271
  46   48    0    0    0
SMALL
NO_CHARGES


@<TRIPOS>ATOM
   1 C1            -0.0201     1.3828     0.0270 C.ar    
   2 C2            -1.0431     1.7326    -0.8557 C.ar    
   3 C3            -2.2239     1.0193    -0.8558 C.ar    
   4 C4            -2.3955    -0.0405     0.0170 C.ar    
   5 C5            -1.3856    -0.3922     0.8949 C.ar    
   6 C6            -0.1973     0.3087     0.9005 C.ar    
   7 C7            -3.6883    -0.8149     0.0117 C.3     
   8 C8             1.2480     2.1429     0.0326 C.2     
   9 O9             2.3078     1.5562     0.1326 O.2     
  10 N10            1.2288     3.4864    -0.0732 N.am    
  11 C11            2.4729     4.2625     0.0204 C.3     
  12 C12            2.3021     5.3400     1.0959 C.3     
  13 C13            1.0609     6.1778     0.7803 C.3     
  14 C14           -0.1791     5.2809     0.7939 C.3     
  15 C15           -0.0357     4.2022    -0.2905 C.3     
  16 C16            3.5182     6.2298     1.1140 C.2     
  17 N17            4.7332     5.7053     1.3693 N.am    
  18 O18            3.4036     7.4179     0.8989 O.2     
  19 C19            5.8749     6.5123     1.2903 C.ar    
  20 C20            5.8119     7.8452     1.6743 C.ar    
  21 C21            6.9390     8.6395     1.5956 C.ar    
  22 C22            8.1313     8.1074     1.1342 C.ar    
  23 C23            8.1961     6.7785     0.7504 C.ar    
  24 C24            7.0728     5.9792     0.8334 C.ar    
  25 F25            9.2327     8.8860     1.0580 F       
  26 H26           -0.9107     2.5601    -1.5370 H       
  27 H27           -3.0163     1.2889    -1.5383 H       
  28 H28           -1.5260    -1.2202     1.5739 H       
  29 H29            0.5904     0.0330     1.5861 H       
  30 H30           -3.6127    -1.6433    -0.6927 H       
  31 H31           -3.8827    -1.2043     1.0110 H       
  32 H32           -4.5046    -0.1573    -0.2871 H       
  33 H33            3.2961     3.6019     0.2926 H       
  34 H34            2.6823     4.7343    -0.9396 H       
  35 H35            2.1830     4.8660     2.0701 H       
  36 H36            0.9509     6.9608     1.5305 H       
  37 H37            1.1699     6.6316    -0.2048 H       
  38 H38           -0.2748     4.8074     1.7711 H       
  39 H39           -1.0654     5.8824     0.5922 H       
  40 H40           -0.0318     4.6715    -1.2743 H       
  41 H41           -0.8676     3.5014    -0.2210 H       
  42 H42            4.8168     4.7687     1.6076 H       
  43 H43            4.8821     8.2606     2.0338 H       
  44 H44            6.8904     9.6763     1.8938 H       
  45 H45            9.1268     6.3656     0.3902 H       
  46 H46            7.1237     4.9428     0.5340 H       
@<TRIPOS>BOND
   1    1    2 ar
   2    1    8 1
   3    1    6 ar
   4    2    3 ar
   5    2   26 1
   6    3    4 ar
   7    3   27 1
   8    4    5 ar
   9    4    7 1
  10    5    6 ar
  11    5   28 1
  12    6   29 1
  13    7   30 1
  14    7   31 1
  15    7   32 1
  16    8    9 2
  17    8   10 am
  18   10   11 1
  19   10   15 1
  20   11   12 1
  21   11   33 1
  22   11   34 1
  23   12   13 1
  24   12   16 1
  25   12   35 1
  26   13   14 1
  27   13   36 1
  28   13   37 1
  29   14   15 1
  30   14   38 1
  31   14   39 1
  32   15   40 1
  33   15   41 1
  34   16   17 am
  35   16   18 2
  36   17   19 1
  37   17   42 1
  38   19   20 ar
  39   19   24 ar
  40   20   21 ar
  41   20   43 1
  42   21   22 ar
  43   21   44 1
  44   22   23 ar
  45   22   25 1
  46   23   24 ar
  47   23   45 1
  48   24   46 1

#	End of record

