#	Name: ASD05313227
#	Creating user name:	WinNT
#	Creation time:	15. 06. 2019 20:58

#	Modifying user name:	WinNT
#	Modification time:	15. 06. 2019 20:58

#	Program:	/corina/corina34_cracker 3.40 0067  02.08.2006

@<TRIPOS>MOLECULE
ASD05313227
  33   35    0    0    0
SMALL
NO_CHARGES


@<TRIPOS>ATOM
   1 C1            -0.0740     0.8179     1.0264 C.2     
   2 C2             0.1129    -0.6201     0.5976 C.3     
   3 N3             0.9276     1.7303     1.0529 N.pl3   
   4 N4             1.4556    -0.7207    -0.0035 N.am    
   5 C5             2.5695    -0.0398     0.6740 C.3     
   6 C6             2.3156     1.4718     0.6643 C.3     
   7 N7            -1.1709     1.3885     1.4268 N.2     
   8 C8            -0.9165     2.6736     1.7240 C.2     
   9 C9             0.3935     2.9043     1.4970 C.2     
  10 C10            1.6564    -1.4165    -1.1402 C.2     
  11 O11            2.7485    -1.4065    -1.6740 O.2     
  12 C12            0.5490    -2.1914    -1.7375 C.ar    
  13 C13            0.3190    -2.1396    -3.1148 C.ar    
  14 C14           -0.7180    -2.8667    -3.6657 C.ar    
  15 C15           -1.5273    -3.6438    -2.8570 C.ar    
  16 C16           -1.3047    -3.6988    -1.4923 C.ar    
  17 C17           -0.2685    -2.9831    -0.9293 C.ar    
  18 C18           -0.9685    -2.8127    -5.1507 C.3     
  19 F19           -2.0626    -3.6245    -5.4688 F       
  20 F20           -1.2404    -1.4939    -5.5302 F       
  21 F21            0.1648    -3.2697    -5.8317 F       
  22 Cl22           1.3335    -1.1635    -4.1306 Cl      
  23 Br23           1.3120     4.5378     1.7498 Br      
  24 H24            0.0431    -1.2784     1.4636 H       
  25 H25           -0.6448    -0.8902    -0.1379 H       
  26 H26            2.6388    -0.3909     1.7036 H       
  27 H27            3.5010    -0.2561     0.1509 H       
  28 H28            2.4924     1.8641    -0.3372 H       
  29 H29            2.9881     1.9585     1.3707 H       
  30 H30           -1.6345     3.3954     2.0844 H       
  31 H31           -2.3372    -4.2102    -3.2926 H       
  32 H32           -1.9412    -4.3073    -0.8669 H       
  33 H33           -0.0932    -3.0314     0.1353 H       
@<TRIPOS>BOND
   1    1    2 1
   2    1    3 1
   3    1    7 2
   4    2    4 1
   5    2   24 1
   6    2   25 1
   7    3    6 1
   8    3    9 1
   9    4    5 1
  10    4   10 am
  11    5    6 1
  12    5   26 1
  13    5   27 1
  14    6   28 1
  15    6   29 1
  16    7    8 1
  17    8    9 2
  18    8   30 1
  19    9   23 1
  20   10   11 2
  21   10   12 1
  22   12   13 ar
  23   12   17 ar
  24   13   14 ar
  25   13   22 1
  26   14   15 ar
  27   14   18 1
  28   15   16 ar
  29   15   31 1
  30   16   17 ar
  31   16   32 1
  32   17   33 1
  33   18   19 1
  34   18   20 1
  35   18   21 1

#	End of record

