#	Name: ASD01917240
#	Creating user name:	WinNT
#	Creation time:	15. 06. 2019 20:08

#	Modifying user name:	WinNT
#	Modification time:	15. 06. 2019 20:08

#	Program:	/corina/corina34_cracker 3.40 0067  02.08.2006

@<TRIPOS>MOLECULE
ASD01917240
  44   47    0    0    0
SMALL
NO_CHARGES


@<TRIPOS>ATOM
   1 C1             0.1519     0.6870    -0.4934 C.ar    
   2 C2             0.3198    -0.6718    -0.3027 C.ar    
   3 C3             1.5841    -1.1890    -0.0904 C.ar    
   4 C4             2.6805    -0.3473    -0.0691 C.ar    
   5 C5             2.5127     1.0113    -0.2607 C.ar    
   6 C6             1.2483     1.5286    -0.4717 C.ar    
   7 C7             3.7080     1.9289    -0.2371 C.3     
   8 O8             4.2410     2.0509    -1.5573 O.3     
   9 C9             5.3309     2.8496    -1.7118 C.2     
  10 N10            5.9349     3.5176    -0.7507 N.2     
  11 N11            6.9991     4.2207    -1.3002 N.pl3   
  12 C12            7.0324     3.9425    -2.6483 C.2     
  13 C13            6.0003     3.0929    -2.9191 C.2     
  14 C14            7.9636     5.1271    -0.6747 C.3     
  15 C15            9.2812     5.0725    -1.4476 C.3     
  16 N16            9.0889     5.1611    -2.8908 N.am    
  17 C17            8.0730     4.5190    -3.5158 C.2     
  18 O18            8.0233     4.4237    -4.7275 O.2     
  19 C19            9.9776     5.9305    -3.6501 C.ar    
  20 C20           11.3018     5.5345    -3.7828 C.ar    
  21 C21           12.1773     6.2954    -4.5327 C.ar    
  22 C22           11.7355     7.4525    -5.1514 C.ar    
  23 C23           10.4152     7.8496    -5.0199 C.ar    
  24 C24            9.5349     7.0883    -4.2767 C.ar    
  25 F25           12.5936     8.1956    -5.8840 F       
  26 C26           13.6147     5.8661    -4.6771 C.3     
  27 H27           -0.8353     1.0904    -0.6638 H       
  28 H28           -0.5368    -1.3294    -0.3193 H       
  29 H29            1.7152    -2.2505     0.0593 H       
  30 H30            3.6682    -0.7513     0.0975 H       
  31 H31            1.1173     2.5901    -0.6217 H       
  32 H32            3.4046     2.9114     0.1245 H       
  33 H33            4.4692     1.5170     0.4255 H       
  34 H34            5.7426     2.6873    -3.8864 H       
  35 H35            7.5724     6.1443    -0.6935 H       
  36 H36            8.1342     4.8211     0.3575 H       
  37 H37            9.9134     5.8998    -1.1251 H       
  38 H38            9.7866     4.1348    -1.2165 H       
  39 H39           11.6470     4.6323    -3.2998 H       
  40 H40           10.0727     8.7529    -5.5028 H       
  41 H41            8.5054     7.3983    -4.1744 H       
  42 H42           13.7151     5.2204    -5.5495 H       
  43 H43           14.2459     6.7460    -4.8017 H       
  44 H44           13.9226     5.3215    -3.7846 H       
@<TRIPOS>BOND
   1    1    2 ar
   2    1    6 ar
   3    1   27 1
   4    2    3 ar
   5    2   28 1
   6    3    4 ar
   7    3   29 1
   8    4    5 ar
   9    4   30 1
  10    5    6 ar
  11    5    7 1
  12    6   31 1
  13    7    8 1
  14    7   32 1
  15    7   33 1
  16    8    9 1
  17    9   10 2
  18    9   13 1
  19   10   11 1
  20   11   12 1
  21   11   14 1
  22   12   13 2
  23   12   17 1
  24   13   34 1
  25   14   15 1
  26   14   35 1
  27   14   36 1
  28   15   16 1
  29   15   37 1
  30   15   38 1
  31   16   17 am
  32   16   19 1
  33   17   18 2
  34   19   20 ar
  35   19   24 ar
  36   20   21 ar
  37   20   39 1
  38   21   22 ar
  39   21   26 1
  40   22   23 ar
  41   22   25 1
  42   23   24 ar
  43   23   40 1
  44   24   41 1
  45   26   42 1
  46   26   43 1
  47   26   44 1

#	End of record

