#	Name: ASD03740160
#	Creating user name:	WinNT
#	Creation time:	15. 06. 2019 20:46

#	Modifying user name:	WinNT
#	Modification time:	15. 06. 2019 20:46

#	Program:	/corina/corina34_cracker 3.40 0067  02.08.2006

@<TRIPOS>MOLECULE
ASD03740160
  66   70    0    0    0
SMALL
NO_CHARGES


@<TRIPOS>ATOM
   1 C1            -0.0699     1.3747     0.9140 C.ar    
   2 C2            -0.0497    -0.0243     0.8710 C.ar    
   3 C3            -1.2039    -0.7324     0.7097 C.ar    
   4 C4            -2.4220    -0.0667     0.5854 C.ar    
   5 C5            -2.4556     1.3411     0.6270 C.ar    
   6 C6            -1.2700     2.0590     0.7978 C.ar    
   7 N7            -3.7155    -0.4878     0.4171 N.pl3   
   8 N8            -4.5575     0.6268     0.3527 N.2     
   9 C9            -3.8596     1.7232     0.4717 C.2     
  10 O10           -4.3488     2.9913     0.4552 O.3     
  11 C11           -4.1474    -1.8843     0.3198 C.3     
  12 C12           -4.4638    -2.4094     1.6964 C.ar    
  13 C13           -5.7442    -2.2904     2.2039 C.ar    
  14 C14           -6.0350    -2.7718     3.4664 C.ar    
  15 C15           -5.0444    -3.3729     4.2224 C.ar    
  16 C16           -3.7631    -3.4917     3.7140 C.ar    
  17 C17           -3.4749    -3.0149     2.4491 C.ar    
  18 C18           -5.7606     3.1399     0.2918 C.3     
  19 C19           -6.1210     4.6268     0.2980 C.3     
  20 C20           -7.6326     4.7860     0.1230 C.3     
  21 Cl21          -5.4087    -3.9773     5.8085 Cl      
  22 N22           -7.9786     6.2136     0.1289 N.3     
  23 C23           -9.3969     6.4150    -0.2200 C.3     
  24 C24           -7.7309     6.8133     1.4574 C.3     
  25 C25           -8.8339     7.8890     1.6177 C.3     
  26 C26          -10.0465     7.1978     0.9404 C.3     
  27 C27          -10.0893     5.0609    -0.3863 C.3     
  28 C28            1.1967     2.1276     1.0907 C.ar    
  29 C29            2.4123     1.4510     1.2149 C.ar    
  30 C30            1.1921     3.5203     1.1295 C.ar    
  31 N31            2.3140     4.1929     1.2857 N.ar    
  32 C32            3.4782     3.5868     1.4110 C.ar    
  33 C33            3.5693     2.2019     1.3779 C.ar    
  34 O34            4.7751     1.5884     1.5085 O.3     
  35 C35            5.9167     2.4309     1.6779 C.3     
  36 H36            0.8898    -0.5484     0.9662 H       
  37 H37           -1.1740    -1.8115     0.6779 H       
  38 H38           -1.2869     3.1384     0.8308 H       
  39 H39           -5.0375    -1.9465    -0.3063 H       
  40 H40           -3.3497    -2.4813    -0.1224 H       
  41 H41           -6.5173    -1.8209     1.6138 H       
  42 H42           -7.0352    -2.6785     3.8629 H       
  43 H43           -2.9894    -3.9608     4.3037 H       
  44 H44           -2.4748    -3.1076     2.0521 H       
  45 H45           -6.0654     2.6961    -0.6559 H       
  46 H46           -6.2760     2.6377     1.1105 H       
  47 H47           -5.8162     5.0706     1.2457 H       
  48 H48           -5.6056     5.1290    -0.5207 H       
  49 H49           -7.9373     4.3422    -0.8248 H       
  50 H50           -8.1480     4.2838     0.9417 H       
  51 H51           -9.4737     6.9867    -1.1449 H       
  52 H52           -7.8214     6.0577     2.2377 H       
  53 H53           -6.7437     7.2746     1.4874 H       
  54 H54           -9.0355     8.0877     2.6703 H       
  55 H55           -8.5643     8.8059     1.0936 H       
  56 H56          -10.7493     7.9389     0.5596 H       
  57 H57          -10.5402     6.5182     1.6351 H       
  58 H58           -9.9425     4.4646     0.5143 H       
  59 H59          -11.1559     5.2158    -0.5496 H       
  60 H60           -9.6630     4.5375    -1.2421 H       
  61 H61            2.4516     0.3722     1.1853 H       
  62 H62            0.2587     4.0543     1.0300 H       
  63 H63            4.3743     4.1763     1.5369 H       
  64 H64            6.0147     3.0882     0.8139 H       
  65 H65            5.7945     3.0315     2.5793 H       
  66 H66            6.8119     1.8158     1.7698 H       
@<TRIPOS>BOND
   1    1    2 ar
   2    1   28 1
   3    1    6 ar
   4    2    3 ar
   5    2   36 1
   6    3    4 ar
   7    3   37 1
   8    4    5 ar
   9    4    7 1
  10    5    6 ar
  11    5    9 1
  12    6   38 1
  13    7    8 1
  14    7   11 1
  15    8    9 2
  16    9   10 1
  17   10   18 1
  18   11   12 1
  19   11   39 1
  20   11   40 1
  21   12   13 ar
  22   12   17 ar
  23   13   14 ar
  24   13   41 1
  25   14   15 ar
  26   14   42 1
  27   15   16 ar
  28   15   21 1
  29   16   17 ar
  30   16   43 1
  31   17   44 1
  32   18   19 1
  33   18   45 1
  34   18   46 1
  35   19   20 1
  36   19   47 1
  37   19   48 1
  38   20   22 1
  39   20   49 1
  40   20   50 1
  41   22   23 1
  42   22   24 1
  43   23   27 1
  44   23   26 1
  45   23   51 1
  46   24   25 1
  47   24   52 1
  48   24   53 1
  49   25   26 1
  50   25   54 1
  51   25   55 1
  52   26   56 1
  53   26   57 1
  54   27   58 1
  55   27   59 1
  56   27   60 1
  57   28   29 ar
  58   28   30 ar
  59   29   33 ar
  60   29   61 1
  61   30   31 ar
  62   30   62 1
  63   31   32 ar
  64   32   33 ar
  65   32   63 1
  66   33   34 1
  67   34   35 1
  68   35   64 1
  69   35   65 1
  70   35   66 1

#	End of record

