#	Name: ASD03731662
#	Creating user name:	WinNT
#	Creation time:	15. 06. 2019 20:46

#	Modifying user name:	WinNT
#	Modification time:	15. 06. 2019 20:46

#	Program:	/corina/corina34_cracker 3.40 0067  02.08.2006

@<TRIPOS>MOLECULE
ASD03731662
  33   34    0    0    0
SMALL
NO_CHARGES


@<TRIPOS>ATOM
   1 C1            -0.1364     1.4672     0.0333 C.2     
   2 C2            -0.0852    -0.0063     0.0191 C.ar    
   3 C3             1.1400    -0.6648    -0.1384 C.ar    
   4 C4             1.1827    -2.0445    -0.1506 C.ar    
   5 C5             0.0129    -2.7784    -0.0072 C.ar    
   6 C6            -1.2080    -2.1271     0.1493 C.ar    
   7 C7            -1.2596    -0.7502     0.1689 C.ar    
   8 O8             0.8868     2.1123    -0.0920 O.2     
   9 N9            -1.3178     2.0991     0.1796 N.am    
  10 S10           -1.3752     3.7540     0.1955 S.o2    
  11 O11           -2.7504     4.0551     0.3894 O.2     
  12 O12           -0.4002     4.1293     1.1588 O.2     
  13 C13           -0.8455     4.2413    -1.4696 C.3     
  14 F14           -2.3432    -2.8465     0.2874 F       
  15 F15            2.2786     0.0487    -0.2788 F       
  16 O16            0.0593    -4.1349    -0.0202 O.3     
  17 C17           -0.1520    -4.7694    -1.2035 C.ar    
  18 C18           -0.0460    -6.1520    -1.2800 C.ar    
  19 C19           -0.2613    -6.7947    -2.4844 C.ar    
  20 C20           -0.5822    -6.0611    -3.6132 C.ar    
  21 C21           -0.6878    -4.6837    -3.5387 C.ar    
  22 C22           -0.4794    -4.0375    -2.3352 C.ar    
  23 Cl23          -0.8523    -6.8705    -5.1250 Cl      
  24 Cl24           0.3572    -7.0721     0.1359 Cl      
  25 H25            2.1273    -2.5537    -0.2721 H       
  26 H26           -2.2066    -0.2463     0.2948 H       
  27 H27           -2.1344     1.5845     0.2755 H       
  28 H28           -1.5277     3.8176    -2.2065 H       
  29 H29           -0.8535     5.3284    -1.5498 H       
  30 H30            0.1631     3.8709    -1.6529 H       
  31 H31           -0.1787    -7.8698    -2.5448 H       
  32 H32           -0.9380    -4.1134    -4.4210 H       
  33 H33           -0.5667    -2.9626    -2.2768 H       
@<TRIPOS>BOND
   1    1    2 1
   2    1    8 2
   3    1    9 am
   4    2    3 ar
   5    2    7 ar
   6    3    4 ar
   7    3   15 1
   8    4    5 ar
   9    4   25 1
  10    5    6 ar
  11    5   16 1
  12    6    7 ar
  13    6   14 1
  14    7   26 1
  15    9   10 am
  16    9   27 1
  17   10   11 2
  18   10   12 2
  19   10   13 1
  20   13   28 1
  21   13   29 1
  22   13   30 1
  23   16   17 1
  24   17   18 ar
  25   17   22 ar
  26   18   19 ar
  27   18   24 1
  28   19   20 ar
  29   19   31 1
  30   20   21 ar
  31   20   23 1
  32   21   22 ar
  33   21   32 1
  34   22   33 1

#	End of record

