#	Name: ASD01001129
#	Creating user name:	WinNT
#	Creation time:	15. 06. 2019 18:55

#	Modifying user name:	WinNT
#	Modification time:	15. 06. 2019 18:55

#	Program:	/corina/corina34_cracker 3.40 0067  02.08.2006

@<TRIPOS>MOLECULE
ASD01001129
  49   51    0    0    0
SMALL
NO_CHARGES


@<TRIPOS>ATOM
   1 C1            -0.4707     2.8559     0.3456 C.2     
   2 S2            -0.1484     1.1322     0.4751 S.3     
   3 C3             1.5318     1.4073     0.5864 C.2     
   4 C4             1.8077     2.7155     0.5278 C.2     
   5 C5             0.7135     3.5368     0.3945 C.2     
   6 C6            -1.7958     3.4644     0.2021 C.2     
   7 O7            -1.9044     4.6739     0.1203 O.2     
   8 N8            -2.8944     2.6848     0.1606 N.am    
   9 C9            -6.1726     4.7100    -0.2248 C.2     
  10 C10           -6.4898     3.4112    -0.1725 C.2     
  11 C11           -5.3215     2.5619    -0.0276 C.2     
  12 C12           -4.1472     3.2601     0.0249 C.2     
  13 S13           -4.4355     4.9334    -0.0988 S.3     
  14 C14           -7.9161     2.8914    -0.2562 C.3     
  15 C15           -8.8788     4.0468     0.0269 C.3     
  16 C16           -8.5080     5.2391    -0.8601 C.3     
  17 C17           -7.1834     5.8318    -0.3673 C.3     
  18 C18           -5.3938     1.1001     0.0552 C.2     
  19 O19           -5.4239     0.5529     1.1419 O.2     
  20 N20           -5.4269     0.3622    -1.0721 N.am    
  21 C21           -5.3892    -1.1001    -0.9917 C.3     
  22 C22           -6.8168    -1.6428    -0.8994 C.3     
  23 C23           -4.0895     1.1900    -2.9449 C.3     
  24 C24           -5.5006     1.0223    -2.3779 C.3     
  25 C25          -10.3111     3.6061    -0.2813 C.3     
  26 H26            2.2737     0.6294     0.6909 H       
  27 H27            2.8162     3.0980     0.5818 H       
  28 H28            0.7827     4.6129     0.3343 H       
  29 H29           -2.8079     1.7209     0.2258 H       
  30 H30           -8.1030     2.4963    -1.2547 H       
  31 H31           -8.0621     2.1044     0.4837 H       
  32 H32           -8.8031     4.3354     1.0753 H       
  33 H33           -8.4006     4.9061    -1.8924 H       
  34 H34           -9.2901     5.9959    -0.7993 H       
  35 H35           -7.3291     6.3172     0.5977 H       
  36 H36           -6.8219     6.5594    -1.0939 H       
  37 H37           -4.9052    -1.5006    -1.8824 H       
  38 H38           -4.8282    -1.4010    -0.1069 H       
  39 H39           -6.7888    -2.7308    -0.8396 H       
  40 H40           -7.3008    -1.2423    -0.0087 H       
  41 H41           -7.3778    -1.3419    -1.7842 H       
  42 H42           -4.1365     1.7571    -3.8746 H       
  43 H43           -3.4696     1.7239    -2.2247 H       
  44 H44           -3.6571     0.2086    -3.1395 H       
  45 H45           -6.0961     0.4146    -3.0592 H       
  46 H46           -5.9652     2.0017    -2.2641 H       
  47 H47          -10.5722     2.7541     0.3465 H       
  48 H48          -10.9961     4.4296    -0.0793 H       
  49 H49          -10.3856     3.3205    -1.3306 H       
@<TRIPOS>BOND
   1    1    2 1
   2    1    5 2
   3    1    6 1
   4    2    3 1
   5    3    4 2
   6    3   26 1
   7    4    5 1
   8    4   27 1
   9    5   28 1
  10    6    7 2
  11    6    8 am
  12    8   12 1
  13    8   29 1
  14    9   10 2
  15    9   13 1
  16    9   17 1
  17   10   11 1
  18   10   14 1
  19   11   12 2
  20   11   18 1
  21   12   13 1
  22   14   15 1
  23   14   30 1
  24   14   31 1
  25   15   16 1
  26   15   25 1
  27   15   32 1
  28   16   17 1
  29   16   33 1
  30   16   34 1
  31   17   35 1
  32   17   36 1
  33   18   19 2
  34   18   20 am
  35   20   21 1
  36   20   24 1
  37   21   22 1
  38   21   37 1
  39   21   38 1
  40   22   39 1
  41   22   40 1
  42   22   41 1
  43   23   24 1
  44   23   42 1
  45   23   43 1
  46   23   44 1
  47   24   45 1
  48   24   46 1
  49   25   47 1
  50   25   48 1
  51   25   49 1

#	End of record

