#	Name: ASD01913036
#	Creating user name:	WinNT
#	Creation time:	15. 06. 2019 20:00

#	Modifying user name:	WinNT
#	Modification time:	15. 06. 2019 20:00

#	Program:	/corina/corina34_cracker 3.40 0067  02.08.2006

@<TRIPOS>MOLECULE
ASD01913036
  46   50    0    0    0
SMALL
NO_CHARGES


@<TRIPOS>ATOM
   1 C1            -0.5053     2.5632    -0.2420 C.ar    
   2 C2            -0.3351     1.1899    -0.3132 C.ar    
   3 C3            -1.4329     0.3547    -0.2917 C.ar    
   4 C4            -2.7144     0.8941    -0.1978 C.ar    
   5 C5            -2.8810     2.2758    -0.1259 C.ar    
   6 C6            -1.7774     3.1034    -0.1431 C.ar    
   7 F7             0.5725     3.3775    -0.2633 F       
   8 C8            -3.8982    -0.0003    -0.1748 C.2     
   9 N9            -5.1922     0.3828    -0.0873 N.2     
  10 C10           -5.8890    -0.7261    -0.1010 C.2     
  11 O11           -5.0190    -1.7366    -0.1946 O.3     
  12 N12           -3.8859    -1.3063    -0.2411 N.2     
  13 C13           -7.3897    -0.8412    -0.0250 C.3     
  14 C14           -7.9126    -1.5408    -1.2816 C.3     
  15 C15           -9.4393    -1.6288    -1.2206 C.3     
  16 C16           -9.8506    -2.4573     0.0006 C.3     
  17 N17           -9.2314    -1.8735     1.1984 N.am    
  18 C18           -7.7777    -1.6607     1.2098 C.3     
  19 C19           -9.9827    -1.5396     2.2663 C.2     
  20 O20          -11.1945    -1.6203     2.2063 O.2     
  21 C21           -9.3346    -1.0759     3.5086 C.ar    
  22 C22           -9.8749     0.0014     4.2241 C.ar    
  23 C23           -9.2867     0.4362     5.3681 C.ar    
  24 C24           -8.1194    -0.1883     5.8594 C.ar    
  25 C25           -7.5792    -1.2658     5.1436 C.ar    
  26 C26           -8.1876    -1.7106     3.9771 C.ar    
  27 N27           -7.3987     0.0912     6.9590 N.2     
  28 C28           -6.3654    -0.6268     7.1970 C.2     
  29 S29           -6.1447    -1.8228     6.0001 S.3     
  30 H30            0.6585     0.7727    -0.3860 H       
  31 H31           -1.2994    -0.7155    -0.3480 H       
  32 H32           -3.8725     2.6979    -0.0529 H       
  33 H33           -1.9056     4.1743    -0.0871 H       
  34 H34           -7.8277     0.1544     0.0461 H       
  35 H35           -7.6166    -0.9725    -2.1634 H       
  36 H36           -7.4930    -2.5451    -1.3394 H       
  37 H37           -9.8585    -0.6261    -1.1379 H       
  38 H38           -9.8127    -2.1062    -2.1266 H       
  39 H39          -10.9354    -2.4405     0.1050 H       
  40 H40           -9.5092    -3.4850    -0.1232 H       
  41 H41           -7.2673    -2.6235     1.1846 H       
  42 H42           -7.4949    -1.1183     2.1120 H       
  43 H43          -10.7671     0.4905     3.8620 H       
  44 H44           -9.7157     1.2679     5.9073 H       
  45 H45           -7.7667    -2.5412     3.4300 H       
  46 H46           -5.7147    -0.4918     8.0484 H       
@<TRIPOS>BOND
   1    1    2 ar
   2    1    7 1
   3    1    6 ar
   4    2    3 ar
   5    2   30 1
   6    3    4 ar
   7    3   31 1
   8    4    5 ar
   9    4    8 1
  10    5    6 ar
  11    5   32 1
  12    6   33 1
  13    8    9 1
  14    8   12 2
  15    9   10 2
  16   10   11 1
  17   10   13 1
  18   11   12 1
  19   13   14 1
  20   13   18 1
  21   13   34 1
  22   14   15 1
  23   14   35 1
  24   14   36 1
  25   15   16 1
  26   15   37 1
  27   15   38 1
  28   16   17 1
  29   16   39 1
  30   16   40 1
  31   17   18 1
  32   17   19 am
  33   18   41 1
  34   18   42 1
  35   19   20 2
  36   19   21 1
  37   21   22 ar
  38   21   26 ar
  39   22   23 ar
  40   22   43 1
  41   23   24 ar
  42   23   44 1
  43   24   25 ar
  44   24   27 1
  45   25   26 ar
  46   25   29 1
  47   26   45 1
  48   27   28 2
  49   28   29 1
  50   28   46 1

#	End of record

