#	Name: ASD03430066
#	Creating user name:	WinNT
#	Creation time:	15. 06. 2019 20:40

#	Modifying user name:	WinNT
#	Modification time:	15. 06. 2019 20:40

#	Program:	/corina/corina34_cracker 3.40 0067  02.08.2006

@<TRIPOS>MOLECULE
ASD03430066
  48   53    0    0    0
SMALL
NO_CHARGES


@<TRIPOS>ATOM
   1 C1             0.4136     1.1514    -0.5468 C.ar    
   2 C2             0.3875    -0.2290    -0.4205 C.ar    
   3 C3             1.5595    -0.9313    -0.2346 C.ar    
   4 C4             2.7798    -0.2663    -0.1608 C.ar    
   5 C5             2.8028     1.1185    -0.2923 C.ar    
   6 C6             1.6276     1.8255    -0.4832 C.ar    
   7 O7             3.8058    -1.1388     0.0538 O.3     
   8 C8             1.8612    -2.3987    -0.0886 C.3     
   9 C9             3.3802    -2.4691    -0.2983 C.3     
  10 C10            0.5719    -3.9764     0.9911 C.ar    
  11 C11            1.4555    -2.9344     1.2521 C.ar    
  12 C12            1.1209    -3.2357    -1.0919 C.2     
  13 N13            0.3974    -4.1282    -0.3869 N.am    
  14 O14            1.1655    -3.1297    -2.2993 O.2     
  15 C15            1.7807    -2.5970     2.5577 C.ar    
  16 C16            1.2190    -3.3076     3.6180 C.ar    
  17 C17            0.3427    -4.3426     3.3600 C.ar    
  18 C18            0.0190    -4.6778     2.0606 C.ar    
  19 C19           -0.4707    -5.1397    -0.9948 C.3     
  20 O20           -0.7522     1.8285    -0.7374 O.3     
  21 C21           -0.7247     3.2389    -0.4920 C.3     
  22 C22            0.5258     3.8189    -1.1667 C.3     
  23 O23            1.6766     3.1809    -0.6036 O.3     
  24 C24            2.7247    -1.4826     2.8255 C.2     
  25 C25            3.9403    -1.5729     3.5312 C.2     
  26 N26            4.4846    -0.3853     3.5558 N.2     
  27 N27            3.6453     0.5030     2.8725 N.pl3   
  28 C28            2.5752    -0.1862     2.4276 C.2     
  29 C29            3.8898     1.9334     2.6716 C.3     
  30 H30           -0.5540    -0.7560    -0.4676 H       
  31 H31            3.7441     1.6459    -0.2451 H       
  32 H32            3.6174    -2.6886    -1.3393 H       
  33 H33            3.8288    -3.2076     0.3661 H       
  34 H34            1.4687    -3.0495     4.6365 H       
  35 H35           -0.0923    -4.8941     4.1804 H       
  36 H36           -0.6680    -5.4894     1.8715 H       
  37 H37           -1.4735    -4.7309    -1.1185 H       
  38 H38           -0.0714    -5.4235    -1.9684 H       
  39 H39           -0.5131    -6.0172    -0.3496 H       
  40 H40           -1.6174     3.7026    -0.9117 H       
  41 H41           -0.6830     3.4247     0.5812 H       
  42 H42            0.4879     3.6261    -2.2389 H       
  43 H43            0.5757     4.8928    -0.9873 H       
  44 H44            4.3507    -2.4679     3.9751 H       
  45 H45            1.7468     0.2164     1.8638 H       
  46 H46            4.4442     2.0805     1.7447 H       
  47 H47            2.9373     2.4601     2.6128 H       
  48 H48            4.4699     2.3238     3.5077 H       
@<TRIPOS>BOND
   1    1    2 ar
   2    1    6 ar
   3    1   20 1
   4    2    3 ar
   5    2   30 1
   6    3    4 ar
   7    3    8 1
   8    4    5 ar
   9    4    7 1
  10    5    6 ar
  11    5   31 1
  12    6   23 1
  13    7    9 1
  14    8    9 1
  15    8   11 1
  16    8   12 1
  17    9   32 1
  18    9   33 1
  19   10   11 ar
  20   10   13 1
  21   10   18 ar
  22   11   15 ar
  23   12   13 am
  24   12   14 2
  25   13   19 1
  26   15   16 ar
  27   15   24 1
  28   16   17 ar
  29   16   34 1
  30   17   18 ar
  31   17   35 1
  32   18   36 1
  33   19   37 1
  34   19   38 1
  35   19   39 1
  36   20   21 1
  37   21   22 1
  38   21   40 1
  39   21   41 1
  40   22   23 1
  41   22   42 1
  42   22   43 1
  43   24   25 1
  44   24   28 2
  45   25   26 2
  46   25   44 1
  47   26   27 1
  48   27   28 1
  49   27   29 1
  50   28   45 1
  51   29   46 1
  52   29   47 1
  53   29   48 1

#	End of record

