#	Name: ASD03092310
#	Creating user name:	WinNT
#	Creation time:	15. 06. 2019 20:32

#	Modifying user name:	WinNT
#	Modification time:	15. 06. 2019 20:32

#	Program:	/corina/corina34_cracker 3.40 0067  02.08.2006

@<TRIPOS>MOLECULE
ASD03092310
  62   65    0    0    0
SMALL
NO_CHARGES


@<TRIPOS>ATOM
   1 C1            -0.1615     1.1915    -0.6946 C.3     
   2 C2            -0.2288    -0.3341    -0.8830 C.3     
   3 C3             1.2255    -0.8231    -1.0430 C.3     
   4 C4             2.0733     0.2748    -0.3538 C.3     
   5 C5             1.3315     1.5765    -0.7466 C.3     
   6 C6            -0.9117     1.8823    -1.8041 C.2     
   7 O7            -1.4532     1.2274    -2.6694 O.2     
   8 N8            -0.9809     3.2280    -1.8348 N.am    
   9 C9            -1.7103     3.8995    -2.9133 C.3     
  10 S10           -2.1190     7.7905    -2.0820 S.3     
  11 C11           -0.6755     7.3951    -2.9080 C.2     
  12 N12           -0.6232     6.1175    -3.1377 N.2     
  13 C13           -1.6362     5.3918    -2.7166 C.2     
  14 C14           -2.6036     6.0967    -2.0934 C.2     
  15 C15           -6.2252     5.5899    -1.2385 C.ar    
  16 C16           -5.0888     6.1380    -1.7925 C.ar    
  17 C17           -3.8479     5.5459    -1.5219 C.ar    
  18 C18           -3.8216     4.4158    -0.6937 C.ar    
  19 C19           -5.0075     3.9351    -0.1821 C.ar    
  20 N20           -6.1553     4.5237    -0.4631 N.ar    
  21 C21           -4.9939     2.7206     0.7099 C.3     
  22 C22           -7.5657     6.2202    -1.5161 C.3     
  23 N23            0.2973     8.3053    -3.2792 N.3     
  24 C24           -0.0717     9.6678    -2.8684 C.3     
  25 C25            1.0008    10.6484    -3.3501 C.3     
  26 O26            2.2717    10.2511    -2.8283 O.3     
  27 C27            2.6628     8.9293    -3.2094 C.3     
  28 C28            1.6072     7.9313    -2.7262 C.3     
  29 C29            4.0130     8.5927    -2.5733 C.3     
  30 C30            0.6637    12.0570    -2.8570 C.3     
  31 H31           -0.5848     1.4675     0.2712 H       
  32 H32           -0.6848    -0.7986    -0.0087 H       
  33 H33           -0.8042    -0.5749    -1.7769 H       
  34 H34            1.3630    -1.7816    -0.5426 H       
  35 H35            1.4878    -0.9014    -2.0981 H       
  36 H36            2.0726     0.1412     0.7280 H       
  37 H37            3.0914     0.2779    -0.7431 H       
  38 H38            1.6108     1.8857    -1.7539 H       
  39 H39            1.5463     2.3692    -0.0299 H       
  40 H40           -0.5478     3.7518    -1.1427 H       
  41 H41           -1.2637     3.6369    -3.8723 H       
  42 H42           -2.7530     3.5825    -2.8991 H       
  43 H43           -5.1536     7.0102    -2.4262 H       
  44 H44           -2.8863     3.9288    -0.4602 H       
  45 H45           -4.8811     3.0334     1.7479 H       
  46 H46           -5.9302     2.1746     0.5947 H       
  47 H47           -4.1604     2.0752     0.4323 H       
  48 H48           -8.0009     5.7702    -2.4084 H       
  49 H49           -8.2278     6.0552    -0.6661 H       
  50 H50           -7.4378     7.2910    -1.6746 H       
  51 H51           -1.0323     9.9334    -3.3098 H       
  52 H52           -0.1447     9.7132    -1.7818 H       
  53 H53            1.0366    10.6423    -4.4395 H       
  54 H54            2.7470     8.8732    -4.2947 H       
  55 H55            1.5610     7.9489    -1.6373 H       
  56 H56            1.8721     6.9293    -3.0638 H       
  57 H57            3.9271     8.6472    -1.4881 H       
  58 H58            4.3106     7.5852    -2.8641 H       
  59 H59            4.7634     9.3059    -2.9147 H       
  60 H60            0.6301    12.0622    -1.7675 H       
  61 H61            1.4277    12.7546    -3.2003 H       
  62 H62           -0.3067    12.3576    -3.2519 H       
@<TRIPOS>BOND
   1    1    2 1
   2    1    5 1
   3    1    6 1
   4    1   31 1
   5    2    3 1
   6    2   32 1
   7    2   33 1
   8    3    4 1
   9    3   34 1
  10    3   35 1
  11    4    5 1
  12    4   36 1
  13    4   37 1
  14    5   38 1
  15    5   39 1
  16    6    7 2
  17    6    8 am
  18    8    9 1
  19    8   40 1
  20    9   13 1
  21    9   41 1
  22    9   42 1
  23   10   11 1
  24   10   14 1
  25   11   12 2
  26   11   23 1
  27   12   13 1
  28   13   14 2
  29   14   17 1
  30   15   16 ar
  31   15   20 ar
  32   15   22 1
  33   16   17 ar
  34   16   43 1
  35   17   18 ar
  36   18   19 ar
  37   18   44 1
  38   19   20 ar
  39   19   21 1
  40   21   45 1
  41   21   46 1
  42   21   47 1
  43   22   48 1
  44   22   49 1
  45   22   50 1
  46   23   24 1
  47   23   28 1
  48   24   25 1
  49   24   51 1
  50   24   52 1
  51   25   26 1
  52   25   30 1
  53   25   53 1
  54   26   27 1
  55   27   28 1
  56   27   29 1
  57   27   54 1
  58   28   55 1
  59   28   56 1
  60   29   57 1
  61   29   58 1
  62   29   59 1
  63   30   60 1
  64   30   61 1
  65   30   62 1

#	End of record

