#	Name: ASD01911541
#	Creating user name:	WinNT
#	Creation time:	15. 06. 2019 19:57

#	Modifying user name:	WinNT
#	Modification time:	15. 06. 2019 19:57

#	Program:	/corina/corina34_cracker 3.40 0067  02.08.2006

@<TRIPOS>MOLECULE
ASD01911541
  37   39    0    0    0
SMALL
NO_CHARGES


@<TRIPOS>ATOM
   1 C1            -0.0144     1.2130     0.0087 C.2     
   2 O2            -0.0902     0.1731    -0.6194 O.2     
   3 S3             1.3237     3.7572    -0.1504 S.3     
   4 C4             3.0815     3.6538    -0.1140 C.2     
   5 N5             3.4420     2.3980    -0.0185 N.2     
   6 C6             2.4939     1.5056     0.0296 C.2     
   7 C7             1.2195     2.0021    -0.0268 C.2     
   8 C8             3.9774     4.7690    -0.1788 C.1     
   9 C9             4.7119     5.6834    -0.2320 C.1     
  10 C10            5.6078     6.7986    -0.2968 C.ar    
  11 C11            6.9902     6.5925    -0.2593 C.ar    
  12 C12            7.8465     7.6716    -0.3222 C.ar    
  13 C13            7.3407     8.9559    -0.4221 C.ar    
  14 C14            5.9736     9.1681    -0.4593 C.ar    
  15 C15            5.1046     8.0988    -0.4037 C.ar    
  16 N16           -1.0676     1.6413     0.7325 N.am    
  17 C17           -0.9511     2.8244     1.5958 C.3     
  18 C18           -2.0668     3.8101     1.2348 C.3     
  19 C19           -3.4189     3.0984     1.3228 C.3     
  20 C20           -3.4542     1.9412     0.3220 C.3     
  21 C21           -2.3558     0.9376     0.6684 C.3     
  22 F22           -2.0465     4.8861     2.1286 F       
  23 H23            2.6992     0.4482     0.1081 H       
  24 H24            7.3863     5.5909    -0.1810 H       
  25 H25            8.9145     7.5140    -0.2930 H       
  26 H26            8.0164     9.7971    -0.4709 H       
  27 H27            5.5864    10.1733    -0.5366 H       
  28 H28            4.0381     8.2655    -0.4377 H       
  29 H29           -1.0505     2.5263     2.6396 H       
  30 H30            0.0186     3.2969     1.4394 H       
  31 H31           -1.9141     4.1767     0.2198 H       
  32 H32           -3.5601     2.7106     2.3316 H       
  33 H33           -4.2165     3.8041     1.0903 H       
  34 H34           -4.4259     1.4494     0.3687 H       
  35 H35           -3.2884     2.3254    -0.6845 H       
  36 H36           -2.3126     0.1656    -0.0999 H       
  37 H37           -2.5721     0.4825     1.6349 H       
@<TRIPOS>BOND
   1    1    2 2
   2    1    7 1
   3    1   16 am
   4    3    4 1
   5    3    7 1
   6    4    5 2
   7    4    8 1
   8    5    6 1
   9    6    7 2
  10    6   23 1
  11    8    9 3
  12    9   10 1
  13   10   11 ar
  14   10   15 ar
  15   11   12 ar
  16   11   24 1
  17   12   13 ar
  18   12   25 1
  19   13   14 ar
  20   13   26 1
  21   14   15 ar
  22   14   27 1
  23   15   28 1
  24   16   17 1
  25   16   21 1
  26   17   18 1
  27   17   29 1
  28   17   30 1
  29   18   19 1
  30   18   22 1
  31   18   31 1
  32   19   20 1
  33   19   32 1
  34   19   33 1
  35   20   21 1
  36   20   34 1
  37   20   35 1
  38   21   36 1
  39   21   37 1

#	End of record

