#	Name: ASD01814490
#	Creating user name:	WinNT
#	Creation time:	15. 06. 2019 19:32

#	Modifying user name:	WinNT
#	Modification time:	15. 06. 2019 19:32

#	Program:	/corina/corina34_cracker 3.40 0067  02.08.2006

@<TRIPOS>MOLECULE
ASD01814490
  69   75    0    0    0
SMALL
NO_CHARGES


@<TRIPOS>ATOM
   1 C1            -0.0167     1.3806     0.0096 C.ar    
   2 C2             0.0021    -0.0041     0.0020 C.ar    
   3 N3             1.1326    -0.6807    -0.0124 N.ar    
   4 C4             2.3086    -0.0708    -0.0203 C.ar    
   5 C5             2.3609     1.3371    -0.0133 C.ar    
   6 C6             1.1832     2.0749     0.0019 C.ar    
   7 N7             3.4842    -0.7901    -0.0350 N.pl3   
   8 N8             4.6484    -0.2530    -0.0423 N.2     
   9 C9             4.8548     1.0374    -0.0373 C.2     
  10 C10            3.6946     1.9629    -0.0222 C.2     
  11 C11            3.3986    -2.2526    -0.0420 C.3     
  12 C12            3.3563    -2.7465    -1.4651 C.ar    
  13 C13            4.5342    -3.0423    -2.1271 C.ar    
  14 C14            4.5013    -3.4950    -3.4305 C.ar    
  15 C15            3.2784    -3.6543    -4.0794 C.ar    
  16 C16            2.0948    -3.3551    -3.4074 C.ar    
  17 C17            2.1393    -2.9077    -2.1025 C.ar    
  18 C18            3.2367    -4.1400    -5.4806 C.ar    
  19 C19            6.0311     1.9109    -0.0426 C.2     
  20 N20            5.5598     3.1763    -0.0315 N.am    
  21 N21            4.1628     3.1748    -0.0195 N.2     
  22 O22            7.2005     1.5647    -0.0542 O.2     
  23 C23            6.3950     4.3800    -0.0312 C.3     
  24 C24            6.0837     5.2193    -1.2742 C.3     
  25 C25            6.9052     6.5111    -1.2234 C.3     
  26 C26            6.5888     7.2571     0.0755 C.3     
  27 O27            6.8715     6.4097     1.1909 O.3     
  28 C28            6.0983     5.2083     1.2216 C.3     
  29 C29            4.4145    -4.4403    -6.1583 C.ar    
  30 N30            4.3828    -4.8718    -7.4035 N.ar    
  31 C31            3.2416    -5.0364    -8.0551 C.ar    
  32 C32            2.0229    -4.7566    -7.4427 C.ar    
  33 C33            2.0119    -4.3080    -6.1371 C.ar    
  34 N34            3.2609    -5.4938    -9.3667 N.3     
  35 C35            4.6382    -5.7274    -9.8229 C.3     
  36 C36            4.6124    -6.3042   -11.2403 C.3     
  37 N37            3.9161    -5.3687   -12.1345 N.3     
  38 C38            2.5388    -5.1351   -11.6784 C.3     
  39 C39            2.5645    -4.5583   -10.2609 C.3     
  40 H40           -0.9559     1.9138     0.0170 H       
  41 H41           -0.9338    -0.5431     0.0084 H       
  42 H42            1.2022     3.1547     0.0079 H       
  43 H43            4.2706    -2.6700     0.4617 H       
  44 H44            2.4937    -2.5661     0.4785 H       
  45 H45            5.4814    -2.9185    -1.6233 H       
  46 H46            5.4217    -3.7250    -3.9467 H       
  47 H47            1.1443    -3.4764    -3.9056 H       
  48 H48            1.2226    -2.6760    -1.5807 H       
  49 H49            7.4467     4.0936    -0.0391 H       
  50 H50            6.3455     4.6556    -2.1697 H       
  51 H51            5.0215     5.4631    -1.2929 H       
  52 H52            7.9675     6.2687    -1.2547 H       
  53 H53            6.6488     7.1397    -2.0762 H       
  54 H54            7.2023     8.1559     0.1372 H       
  55 H55            5.5348     7.5346     0.0878 H       
  56 H56            5.0379     5.4590     1.2489 H       
  57 H57            6.3584     4.6311     2.1090 H       
  58 H58            5.3643    -4.3183    -5.6591 H       
  59 H59            1.0967    -4.8932    -7.9812 H       
  60 H60            1.0813    -4.0833    -5.6373 H       
  61 H61            5.1858    -4.7849    -9.8237 H       
  62 H62            5.1287    -6.4327    -9.1521 H       
  63 H63            5.6337    -6.4512   -11.5917 H       
  64 H64            4.0884    -7.2600   -11.2345 H       
  65 H65            4.4228    -4.4999   -12.2144 H       
  66 H66            2.0482    -4.4298   -12.3492 H       
  67 H67            1.9912    -6.0776   -11.6775 H       
  68 H68            1.5433    -4.4113    -9.9095 H       
  69 H69            3.0885    -3.6025   -10.2668 H       
@<TRIPOS>BOND
   1    1    2 ar
   2    1    6 ar
   3    1   40 1
   4    2    3 ar
   5    2   41 1
   6    3    4 ar
   7    4    5 ar
   8    4    7 1
   9    5    6 ar
  10    5   10 1
  11    6   42 1
  12    7    8 1
  13    7   11 1
  14    8    9 2
  15    9   10 1
  16    9   19 1
  17   10   21 2
  18   11   12 1
  19   11   43 1
  20   11   44 1
  21   12   13 ar
  22   12   17 ar
  23   13   14 ar
  24   13   45 1
  25   14   15 ar
  26   14   46 1
  27   15   16 ar
  28   15   18 1
  29   16   17 ar
  30   16   47 1
  31   17   48 1
  32   18   29 ar
  33   18   33 ar
  34   19   20 am
  35   19   22 2
  36   20   21 1
  37   20   23 1
  38   23   24 1
  39   23   28 1
  40   23   49 1
  41   24   25 1
  42   24   50 1
  43   24   51 1
  44   25   26 1
  45   25   52 1
  46   25   53 1
  47   26   27 1
  48   26   54 1
  49   26   55 1
  50   27   28 1
  51   28   56 1
  52   28   57 1
  53   29   30 ar
  54   29   58 1
  55   30   31 ar
  56   31   32 ar
  57   31   34 1
  58   32   33 ar
  59   32   59 1
  60   33   60 1
  61   34   35 1
  62   34   39 1
  63   35   36 1
  64   35   61 1
  65   35   62 1
  66   36   37 1
  67   36   63 1
  68   36   64 1
  69   37   38 1
  70   37   65 1
  71   38   39 1
  72   38   66 1
  73   38   67 1
  74   39   68 1
  75   39   69 1

#	End of record

