#	Name: ASD01230239
#	Creating user name:	WinNT
#	Creation time:	15. 06. 2019 19:12

#	Modifying user name:	WinNT
#	Modification time:	15. 06. 2019 19:12

#	Program:	/corina/corina34_cracker 3.40 0067  02.08.2006

@<TRIPOS>MOLECULE
ASD01230239
  20   21    0    0    0
SMALL
NO_CHARGES


@<TRIPOS>ATOM
   1 S1            -0.0204     1.6502     0.0111 S.o2    
   2 N2             0.0021    -0.0041     0.0020 N.am    
   3 C3             1.0257    -0.6894    -0.4563 C.2     
   4 N4             2.1712    -0.1509    -0.9685 N.pl3   
   5 C5             2.3936     1.2861    -1.1470 C.3     
   6 C6             1.7498     2.0758    -0.0035 C.3     
   7 C7             0.8928    -2.1085    -0.3980 C.2     
   8 C8             1.9100    -2.9040    -0.8065 C.2     
   9 C9             3.0935    -2.3156    -1.2862 C.2     
  10 C10            3.1984    -0.9770    -1.3563 C.2     
  11 Br11          -0.7065    -2.8806     0.2515 Br      
  12 O12           -0.6348     2.0061    -1.2198 O.2     
  13 O13           -0.6111     1.9928     1.2573 O.2     
  14 H14            3.4652     1.4849    -1.1625 H       
  15 H15            1.9560     1.6028    -2.0937 H       
  16 H16            1.8733     3.1451    -0.1749 H       
  17 H17            2.2071     1.7955     0.9454 H       
  18 H18            1.8130    -3.9788    -0.7645 H       
  19 H19            3.9183    -2.9389    -1.5985 H       
  20 H20            4.1139    -0.5397    -1.7266 H       
@<TRIPOS>BOND
   1    1    2 am
   2    1    6 1
   3    1   12 2
   4    1   13 2
   5    2    3 2
   6    3    4 1
   7    3    7 1
   8    4    5 1
   9    4   10 1
  10    5    6 1
  11    5   14 1
  12    5   15 1
  13    6   16 1
  14    6   17 1
  15    7    8 2
  16    7   11 1
  17    8    9 1
  18    8   18 1
  19    9   10 2
  20    9   19 1
  21   10   20 1

#	End of record

