#	Name: ASD03330818
#	Creating user name:	WinNT
#	Creation time:	15. 06. 2019 20:38

#	Modifying user name:	WinNT
#	Modification time:	15. 06. 2019 20:38

#	Program:	/corina/corina34_cracker 3.40 0067  02.08.2006

@<TRIPOS>MOLECULE
ASD03330818
  66   69    0    0    0
SMALL
NO_CHARGES


@<TRIPOS>ATOM
   1 C1            -0.0025     1.3583    -0.1267 C.2     
   2 N2             0.0179     0.0077    -0.2184 N.pl3   
   3 C3             1.2719     1.7629     0.1340 C.2     
   4 N4             2.0522     0.6613     0.1804 N.2     
   5 C5             1.3078    -0.3976    -0.0361 C.2     
   6 C6             1.7873    -1.7967    -0.0762 C.ar    
   7 C7             1.7193     3.1533     0.3296 C.2     
   8 O8             0.9173     4.0652     0.2628 O.2     
   9 N9             3.0171     3.4145     0.5826 N.am    
  10 C10           -1.1492    -0.8461    -0.4565 C.3     
  11 C11           -1.9665    -0.2689    -1.6163 C.3     
  12 C12           -2.9659     0.7532    -1.0839 C.3     
  13 N13           -2.4178     1.4736     0.0673 N.3     
  14 C14           -1.2154     2.2348    -0.3025 C.3     
  15 C15            0.9516    -2.8356     0.3346 C.ar    
  16 C16            1.4047    -4.1383     0.2949 C.ar    
  17 C17            2.6846    -4.4152    -0.1512 C.ar    
  18 C18            3.5183    -3.3895    -0.5595 C.ar    
  19 C19            3.0749    -2.0832    -0.5304 C.ar    
  20 C20            3.4618     4.7967     0.7770 C.3     
  21 C21            4.7346     4.8084     1.6260 C.3     
  22 C22           -3.4306     2.3497     0.6709 C.3     
  23 C23            5.1990     6.2520     1.8290 C.3     
  24 C24            5.4872     6.8911     0.4691 C.3     
  25 C25            4.2144     6.8794    -0.3799 C.3     
  26 C26            3.7500     5.4358    -0.5829 C.3     
  27 C27            5.9516     8.3347     0.6721 C.3     
  28 C28            7.2244     8.3463     1.5211 C.3     
  29 C29            6.2398     8.9737    -0.6878 C.3     
  30 C30            4.8551     9.1275     1.3861 C.3     
  31 H31            3.6567     2.6872     0.6359 H       
  32 H32           -0.8182    -1.8532    -0.7099 H       
  33 H33           -1.7654    -0.8795     0.4421 H       
  34 H34           -1.2962     0.2155    -2.3264 H       
  35 H35           -2.5036    -1.0742    -2.1174 H       
  36 H36           -3.2028     1.4668    -1.8730 H       
  37 H37           -3.8782     0.2383    -0.7826 H       
  38 H38           -1.1275     3.1115     0.3392 H       
  39 H39           -1.2894     2.5499    -1.3433 H       
  40 H40           -0.0476    -2.6206     0.6834 H       
  41 H41            0.7589    -4.9433     0.6130 H       
  42 H42            3.0346    -5.4365    -0.1805 H       
  43 H43            4.5167    -3.6121    -0.9061 H       
  44 H44            3.7267    -1.2833    -0.8494 H       
  45 H45            2.6806     5.3616     1.2856 H       
  46 H46            4.5292     4.3531     2.5948 H       
  47 H47            5.5158     4.2435     1.1173 H       
  48 H48           -4.2774     1.7500     1.0048 H       
  49 H49           -2.9971     2.8726     1.5234 H       
  50 H50           -3.7689     3.0766    -0.0675 H       
  51 H51            4.4178     6.8168     2.3377 H       
  52 H52            6.1058     6.2602     2.4338 H       
  53 H53            6.2684     6.3262    -0.0396 H       
  54 H54            3.4332     7.4443     0.1288 H       
  55 H55            4.4197     7.3347    -1.3487 H       
  56 H56            4.5312     4.8710    -1.0916 H       
  57 H57            2.8432     5.4275    -1.1878 H       
  58 H58            8.0056     7.7814     1.0125 H       
  59 H59            7.5553     9.3747     1.6658 H       
  60 H60            7.0191     7.8910     2.4900 H       
  61 H61            5.3331     8.9655    -1.2926 H       
  62 H62            6.5707    10.0022    -0.5431 H       
  63 H63            7.0210     8.4089    -1.1965 H       
  64 H64            4.6497     8.6722     2.3550 H       
  65 H65            5.1859    10.1560     1.5308 H       
  66 H66            3.9483     9.1192     0.7813 H       
@<TRIPOS>BOND
   1    1    2 1
   2    1    3 2
   3    1   14 1
   4    2   10 1
   5    2    5 1
   6    3    4 1
   7    3    7 1
   8    4    5 2
   9    5    6 1
  10    6   15 ar
  11    6   19 ar
  12    7    8 2
  13    7    9 am
  14    9   20 1
  15    9   31 1
  16   10   11 1
  17   10   32 1
  18   10   33 1
  19   11   12 1
  20   11   34 1
  21   11   35 1
  22   12   13 1
  23   12   36 1
  24   12   37 1
  25   13   14 1
  26   13   22 1
  27   14   38 1
  28   14   39 1
  29   15   16 ar
  30   15   40 1
  31   16   17 ar
  32   16   41 1
  33   17   18 ar
  34   17   42 1
  35   18   19 ar
  36   18   43 1
  37   19   44 1
  38   20   21 1
  39   20   26 1
  40   20   45 1
  41   21   23 1
  42   21   46 1
  43   21   47 1
  44   22   48 1
  45   22   49 1
  46   22   50 1
  47   23   24 1
  48   23   51 1
  49   23   52 1
  50   24   25 1
  51   24   27 1
  52   24   53 1
  53   25   26 1
  54   25   54 1
  55   25   55 1
  56   26   56 1
  57   26   57 1
  58   27   28 1
  59   27   29 1
  60   27   30 1
  61   28   58 1
  62   28   59 1
  63   28   60 1
  64   29   61 1
  65   29   62 1
  66   29   63 1
  67   30   64 1
  68   30   65 1
  69   30   66 1

#	End of record

