#	Name: ASD00111090
#	Creating user name:	WinNT
#	Creation time:	15. 06. 2019 18:30

#	Modifying user name:	WinNT
#	Modification time:	15. 06. 2019 18:30

#	Program:	/corina/corina34_cracker 3.40 0067  02.08.2006

@<TRIPOS>MOLECULE
ASD00111090
  37   38    0    0    0
SMALL
NO_CHARGES


@<TRIPOS>ATOM
   1 N1             1.1598     1.6583     0.3197 N.am    
   2 C2             0.6614     0.3196     0.0196 C.3     
   3 C3             0.6302    -0.5204     1.3012 C.3     
   4 C4             2.0234    -1.0435     1.5713 C.ar    
   5 C5             3.0173    -0.1880     1.9795 C.ar    
   6 C6             2.7278     1.2852     2.1626 C.3     
   7 C7             2.5196     1.9191     0.7816 C.3     
   8 C8             4.2912    -0.6661     2.2275 C.ar    
   9 C9             4.5634    -2.0165     2.0622 C.ar    
  10 C10            3.5578    -2.8794     1.6492 C.ar    
  11 C11            2.2873    -2.3921     1.4045 C.ar    
  12 O12            5.8129    -2.4936     2.3040 O.3     
  13 C13            6.7980    -1.5481     2.7256 C.3     
  14 C14            0.1720     0.3491     2.4738 C.3     
  15 O15           -1.2519     0.2936     2.5801 O.3     
  16 Br16           3.9251    -4.7205     1.4221 Br      
  17 C17            0.3259     2.7045     0.1571 C.2     
  18 O18           -0.8088     2.5211    -0.2301 O.2     
  19 C19            0.8032     4.1022     0.4564 C.3     
  20 F20           -0.2327     5.0107     0.2140 F       
  21 F21            1.1918     4.1850     1.7978 F       
  22 F22            1.8937     4.4084    -0.3648 F       
  23 H23           -0.3455     0.3913    -0.3915 H       
  24 H24            1.3169    -0.1562    -0.7098 H       
  25 H25           -0.0563    -1.3573     1.1733 H       
  26 H26            1.8257     1.4089     2.7619 H       
  27 H27            3.5700     1.7641     2.6621 H       
  28 H28            3.2308     1.4914     0.0750 H       
  29 H29            2.6794     2.9953     0.8489 H       
  30 H30            5.0709     0.0090     2.5482 H       
  31 H31            1.5031    -3.0616     1.0832 H       
  32 H32            6.4778    -1.0806     3.6567 H       
  33 H33            7.7478    -2.0590     2.8834 H       
  34 H34            6.9197    -0.7836     1.9583 H       
  35 H35            0.6199    -0.0199     3.3965 H       
  36 H36            0.4839     1.3799     2.3055 H       
  37 H37           -1.6132     0.8230     3.3043 H       
@<TRIPOS>BOND
   1    1    2 1
   2    1    7 1
   3    1   17 am
   4    2    3 1
   5    2   23 1
   6    2   24 1
   7    3    4 1
   8    3   14 1
   9    3   25 1
  10    4    5 ar
  11    4   11 ar
  12    5    6 1
  13    5    8 ar
  14    6    7 1
  15    6   26 1
  16    6   27 1
  17    7   28 1
  18    7   29 1
  19    8    9 ar
  20    8   30 1
  21    9   10 ar
  22    9   12 1
  23   10   11 ar
  24   10   16 1
  25   11   31 1
  26   12   13 1
  27   13   32 1
  28   13   33 1
  29   13   34 1
  30   14   15 1
  31   14   35 1
  32   14   36 1
  33   15   37 1
  34   17   18 2
  35   17   19 1
  36   19   20 1
  37   19   21 1
  38   19   22 1

#	End of record

