#	Name: ASD08150399
#	Creating user name:	WinNT
#	Creation time:	15. 06. 2019 21:15

#	Modifying user name:	WinNT
#	Modification time:	15. 06. 2019 21:15

#	Program:	/corina/corina34_cracker 3.40 0067  02.08.2006

@<TRIPOS>MOLECULE
ASD08150399
  47   50    0    0    0
SMALL
NO_CHARGES


@<TRIPOS>ATOM
   1 N1             0.0352     1.4906    -0.1304 N.am    
   2 C2             0.1188     0.1444    -0.0319 C.2     
   3 C3             1.3092    -0.5275    -0.3714 C.2     
   4 C4             2.4112     0.1924    -0.7002 C.2     
   5 C5             2.3573     1.6055    -0.6268 C.ar    
   6 C6             3.4705     2.3831    -0.9986 C.ar    
   7 N7             3.4503     3.6837    -0.8899 N.ar    
   8 C8             2.4062     4.3333    -0.3548 C.ar    
   9 C9             1.2652     3.6170     0.0975 C.ar    
  10 C10            1.1632     2.2450    -0.2327 C.ar    
  11 C11            0.3217     4.2990     0.8690 C.ar    
  12 C12            0.4295     5.6687     1.0567 C.ar    
  13 C13            1.4784     6.3844     0.4651 C.ar    
  14 C14            2.4472     5.7313    -0.2292 C.ar    
  15 O15           -0.8472    -0.4880     0.3558 O.2     
  16 C16           -0.5729     6.3787     1.8881 C.ar    
  17 C17           -1.3078     2.0706    -0.2272 C.3     
  18 C18           -0.4260     7.7367     2.1836 C.ar    
  19 N19           -1.3405     8.3339     2.9271 N.ar    
  20 C20           -2.3852     7.6624     3.3900 C.ar    
  21 N21           -2.5592     6.3743     3.1314 N.ar    
  22 C22           -1.6911     5.7082     2.3908 C.ar    
  23 N23           -3.3202     8.3247     4.1654 N.pl3   
  24 C24           -1.7201     2.1595    -1.6979 C.3     
  25 N25           -3.0776     2.7129    -1.7933 N.3     
  26 C26           -3.3609     3.1805    -3.1567 C.3     
  27 C27           -4.0784     1.7310    -1.3549 C.3     
  28 H28            1.3453    -1.6056    -0.3706 H       
  29 H29            3.3163    -0.3067    -1.0149 H       
  30 H30            4.3551     1.8942    -1.3795 H       
  31 H31           -0.4737     3.7767     1.3796 H       
  32 H32            1.5178     7.4582     0.5614 H       
  33 H33            3.2520     6.2889    -0.6856 H       
  34 H34           -2.0155     1.4401     0.3111 H       
  35 H35           -1.3048     3.0689     0.2103 H       
  36 H36            0.4230     8.2899     1.8100 H       
  37 H37           -1.8392     4.6585     2.1840 H       
  38 H38           -3.2059     9.2674     4.3633 H       
  39 H39           -4.0899     7.8464     4.5112 H       
  40 H40           -1.0251     2.8078    -2.2316 H       
  41 H41           -1.7016     1.1639    -2.1413 H       
  42 H42           -3.2740     2.3459    -3.8525 H       
  43 H43           -4.3720     3.5852    -3.1993 H       
  44 H44           -2.6468     3.9573    -3.4302 H       
  45 H45           -3.9662     1.5504    -0.2858 H       
  46 H46           -5.0779     2.1167    -1.5553 H       
  47 H47           -3.9335     0.7972    -1.8982 H       
@<TRIPOS>BOND
   1    1    2 am
   2    1   10 1
   3    1   17 1
   4    2    3 1
   5    2   15 2
   6    3    4 2
   7    3   28 1
   8    4    5 1
   9    4   29 1
  10    5    6 ar
  11    5   10 ar
  12    6    7 ar
  13    6   30 1
  14    7    8 ar
  15    8    9 ar
  16    8   14 ar
  17    9   10 ar
  18    9   11 ar
  19   11   12 ar
  20   11   31 1
  21   12   13 ar
  22   12   16 1
  23   13   14 ar
  24   13   32 1
  25   14   33 1
  26   16   18 ar
  27   16   22 ar
  28   17   24 1
  29   17   34 1
  30   17   35 1
  31   18   19 ar
  32   18   36 1
  33   19   20 ar
  34   20   21 ar
  35   20   23 1
  36   21   22 ar
  37   22   37 1
  38   23   38 1
  39   23   39 1
  40   24   25 1
  41   24   40 1
  42   24   41 1
  43   25   26 1
  44   25   27 1
  45   26   42 1
  46   26   43 1
  47   26   44 1
  48   27   45 1
  49   27   46 1
  50   27   47 1

#	End of record

