#	Name: ASD03080140
#	Creating user name:	WinNT
#	Creation time:	15. 06. 2019 20:26

#	Modifying user name:	WinNT
#	Modification time:	15. 06. 2019 20:26

#	Program:	/corina/corina34_cracker 3.40 0067  02.08.2006

@<TRIPOS>MOLECULE
ASD03080140
  17   17    0    0    0
SMALL
NO_CHARGES


@<TRIPOS>ATOM
   1 C1            -0.0159     1.3188     0.0093 C.ar    
   2 N2             0.0021    -0.0041     0.0020 N.ar    
   3 C3             1.1764     2.0441     0.0018 C.ar    
   4 C4             2.3813     1.3573    -0.0134 C.ar    
   5 C5             2.3517    -0.0309    -0.0205 C.ar    
   6 C6             1.1348    -0.6820    -0.0124 C.ar    
   7 N7            -1.2343     1.9929     0.0187 N.pl3   
   8 O8             1.1570     3.4040     0.0088 O.3     
   9 C9             1.0986    -2.1885    -0.0201 C.3     
  10 H10            3.3208     1.8899    -0.0198 H       
  11 H11            3.2721    -0.5958    -0.0327 H       
  12 H12           -2.0653     1.4926     0.0199 H       
  13 H13           -1.2519     2.9627     0.0241 H       
  14 H14            1.1597     3.7928     0.8942 H       
  15 H15            1.0997    -2.5572     1.0056 H       
  16 H16            0.1953    -2.5276    -0.5272 H       
  17 H17            1.9747    -2.5703    -0.5444 H       
@<TRIPOS>BOND
   1    1    2 ar
   2    1    3 ar
   3    1    7 1
   4    2    6 ar
   5    3    4 ar
   6    3    8 1
   7    4    5 ar
   8    4   10 1
   9    5    6 ar
  10    5   11 1
  11    6    9 1
  12    7   12 1
  13    7   13 1
  14    8   14 1
  15    9   15 1
  16    9   16 1
  17    9   17 1

#	End of record

