#	Name: ASD05490124
#	Creating user name:	WinNT
#	Creation time:	15. 06. 2019 21:01

#	Modifying user name:	WinNT
#	Modification time:	15. 06. 2019 21:01

#	Program:	/corina/corina34_cracker 3.40 0067  02.08.2006

@<TRIPOS>MOLECULE
ASD05490124
  70   74    0    0    0
SMALL
NO_CHARGES


@<TRIPOS>ATOM
   1 N1            -0.0178     1.4608     0.0101 N.pl3   
   2 O2             4.5582     2.8949    -0.0261 O.3     
   3 N3             2.7941     4.3826    -0.0015 N.ar    
   4 C4             1.4952     4.6638     0.0118 C.ar    
   5 C5             3.2233     3.1292    -0.0123 C.ar    
   6 N6             2.3949     2.0994    -0.0093 N.ar    
   7 C7             1.0795     2.2895     0.0040 C.ar    
   8 C8             0.5781     3.6006     0.0150 C.ar    
   9 N9             1.0558     5.9772     0.0226 N.pl3   
  10 C10           -1.1306     2.2546     0.0190 C.2     
  11 N11           -0.7773     3.5129     0.0270 N.2     
  12 C12            5.4173     4.0368    -0.0280 C.3     
  13 C13            6.8766     3.5771    -0.0442 C.3     
  14 C14            7.7962     4.7955    -0.1721 C.3     
  15 C15            9.2543     4.3334    -0.1082 C.3     
  16 C16            0.0021    -0.0041     0.0020 C.3     
  17 C17            0.0225    -0.5140     1.4200 C.ar    
  18 C18           -1.1679    -0.7635     2.0799 C.ar    
  19 C19           -1.1551    -1.2305     3.3782 C.ar    
  20 C20            0.0599    -1.4512     4.0248 C.ar    
  21 C21            1.2559    -1.1985     3.3550 C.ar    
  22 C22            1.2314    -0.7363     2.0552 C.ar    
  23 B23            0.0811    -1.9819     5.5022 Du      
  24 O24            9.4772     3.6323     1.1169 O.3     
  25 C25            8.6786     2.4572     1.2704 C.3     
  26 C26            7.1973     2.8439     1.2619 C.3     
  27 O27            1.2302    -2.2627     6.3141 O.3     
  28 O28           -1.0443    -2.2864     6.3383 O.3     
  29 C29           -0.6603    -3.4842     7.0458 C.3     
  30 C30            0.8864    -3.4680     7.0294 C.3     
  31 C31           -1.1773    -3.4420     8.4852 C.3     
  32 C32           -1.1918    -4.7237     6.3232 C.3     
  33 C33            1.4246    -4.6973     6.2944 C.3     
  34 C34            1.4341    -3.4168     8.4570 C.3     
  35 O35           -2.4073     1.8048     0.0270 O.3     
  36 C36           -3.4422     2.7900     0.0462 C.3     
  37 H37            1.6985     6.7037     0.0206 H       
  38 H38            0.1053     6.1706     0.0323 H       
  39 H39            5.2168     4.6408    -0.9129 H       
  40 H40            5.2335     4.6312     0.8670 H       
  41 H41            7.0386     2.9077    -0.8890 H       
  42 H42            7.6128     5.2918    -1.1250 H       
  43 H43            7.5977     5.4890     0.6451 H       
  44 H44            9.4631     3.6717    -0.9488 H       
  45 H45            9.9129     5.2006    -0.1557 H       
  46 H46           -0.8878    -0.3767    -0.5053 H       
  47 H47            0.8920    -0.3525    -0.5222 H       
  48 H48           -2.1086    -0.5922     1.5780 H       
  49 H49           -2.0847    -1.4243     3.8926 H       
  50 H50            2.2001    -1.3675     3.8514 H       
  51 H51            2.1575    -0.5402     1.5353 H       
  52 H52            8.8798     1.7710     0.4478 H       
  53 H53            8.9224     1.9729     2.2160 H       
  54 H54            6.9868     3.4981     2.1080 H       
  55 H55            6.5857     1.9447     1.3345 H       
  56 H56           -2.2662    -3.3928     8.4788 H       
  57 H57           -0.8573    -4.3406     9.0126 H       
  58 H58           -0.7768    -2.5627     8.9895 H       
  59 H59           -0.8014    -4.7465     5.3058 H       
  60 H60           -0.8717    -5.6196     6.8553 H       
  61 H61           -2.2808    -4.6881     6.2939 H       
  62 H62            1.0586    -4.6959     5.2677 H       
  63 H63            2.5142    -4.6708     6.2917 H       
  64 H64            1.0843    -5.6009     6.8002 H       
  65 H65            1.0941    -4.2934     9.0084 H       
  66 H66            2.5237    -3.4059     8.4280 H       
  67 H67            1.0749    -2.5144     8.9518 H       
  68 H68           -4.4139     2.2962     0.0508 H       
  69 H69           -3.3425     3.4042     0.9411 H       
  70 H70           -3.3595     3.4211    -0.8387 H       
@<TRIPOS>BOND
   1    1   16 1
   2    1    7 1
   3    1   10 1
   4    2   12 1
   5    2    5 1
   6    3    4 ar
   7    3    5 ar
   8    4    9 1
   9    4    8 ar
  10    5    6 ar
  11    6    7 ar
  12    7    8 ar
  13    8   11 1
  14    9   37 1
  15    9   38 1
  16   10   11 2
  17   10   35 1
  18   12   13 1
  19   12   39 1
  20   12   40 1
  21   13   14 1
  22   13   26 1
  23   13   41 1
  24   14   15 1
  25   14   42 1
  26   14   43 1
  27   15   24 1
  28   15   44 1
  29   15   45 1
  30   16   17 1
  31   16   46 1
  32   16   47 1
  33   17   18 ar
  34   17   22 ar
  35   18   19 ar
  36   18   48 1
  37   19   20 ar
  38   19   49 1
  39   20   21 ar
  40   20   23 1
  41   21   22 ar
  42   21   50 1
  43   22   51 1
  44   23   27 1
  45   23   28 1
  46   24   25 1
  47   25   26 1
  48   25   52 1
  49   25   53 1
  50   26   54 1
  51   26   55 1
  52   27   30 1
  53   28   29 1
  54   29   30 1
  55   29   31 1
  56   29   32 1
  57   30   33 1
  58   30   34 1
  59   31   56 1
  60   31   57 1
  61   31   58 1
  62   32   59 1
  63   32   60 1
  64   32   61 1
  65   33   62 1
  66   33   63 1
  67   33   64 1
  68   34   65 1
  69   34   66 1
  70   34   67 1
  71   35   36 1
  72   36   68 1
  73   36   69 1
  74   36   70 1

#	End of record

