#	Name: ASD01200045
#	Creating user name:	WinNT
#	Creation time:	15. 06. 2019 19:08

#	Modifying user name:	WinNT
#	Modification time:	15. 06. 2019 19:08

#	Program:	/corina/corina34_cracker 3.40 0067  02.08.2006

@<TRIPOS>MOLECULE
ASD01200045
  44   46    0    0    0
SMALL
NO_CHARGES


@<TRIPOS>ATOM
   1 C1             0.2114     1.0579    -0.0956 C.ar    
   2 C2            -0.2879    -0.0333     0.6059 C.ar    
   3 C3            -1.5918    -0.4448     0.4201 C.ar    
   4 C4            -2.4156     0.2303    -0.4711 C.ar    
   5 C5            -1.9172     1.3327    -1.1824 C.ar    
   6 C6            -0.5968     1.7442    -0.9827 C.ar    
   7 C7            -2.7834     2.0559    -2.1306 C.2     
   8 N8            -2.3434     3.1865    -2.7177 N.am    
   9 C9            -3.1597     3.8680    -3.6113 C.2     
  10 N10           -2.8350     4.9607    -4.2289 N.2     
  11 C11           -3.7353     5.4755    -5.0454 C.2     
  12 C12           -4.8747     4.7852    -5.1214 C.2     
  13 S13           -4.7362     3.3841    -4.0625 S.3     
  14 O14           -3.8951     1.6325    -2.3832 O.2     
  15 C15           -3.4959     6.7409    -5.8281 C.3     
  16 O16            1.4978     1.4551     0.0955 O.3     
  17 N17           -3.7298    -0.1851    -0.6585 N.pl3   
  18 C18            2.4617     0.8894    -0.6773 C.ar    
  19 C19            3.7903     1.2503    -0.5062 C.ar    
  20 C20            4.7685     0.6732    -1.2930 C.ar    
  21 C21            4.4242    -0.2632    -2.2500 C.ar    
  22 C22            3.1005    -0.6245    -2.4229 C.ar    
  23 C23            2.1195    -0.0548    -1.6351 C.ar    
  24 S24            4.2298     2.4442     0.7129 S.o2    
  25 O25            3.6042     1.9786     1.9008 O.2     
  26 O26            5.6446     2.5373     0.6181 O.2     
  27 C27            3.4512     3.9804     0.1434 C.3     
  28 H28            0.3484    -0.5622     1.3000 H       
  29 H29           -1.9723    -1.2937     0.9686 H       
  30 H30           -0.2062     2.5919    -1.5261 H       
  31 H31           -1.4568     3.5243    -2.5162 H       
  32 H32           -5.7307     5.0389    -5.7291 H       
  33 H33           -3.0516     6.4932    -6.7922 H       
  34 H34           -4.4438     7.2551    -5.9863 H       
  35 H35           -2.8190     7.3895    -5.2721 H       
  36 H36           -3.9833    -1.0990    -0.4551 H       
  37 H37           -4.3927     0.4392    -0.9926 H       
  38 H38            5.8028     0.9541    -1.1605 H       
  39 H39            5.1904    -0.7132    -2.8640 H       
  40 H40            2.8342    -1.3557    -3.1717 H       
  41 H41            1.0859    -0.3375    -1.7703 H       
  42 H42            2.3721     3.8397     0.0821 H       
  43 H43            3.6736     4.7829     0.8468 H       
  44 H44            3.8401     4.2417    -0.8408 H       
@<TRIPOS>BOND
   1    1    2 ar
   2    1   16 1
   3    1    6 ar
   4    2    3 ar
   5    2   28 1
   6    3    4 ar
   7    3   29 1
   8    4    5 ar
   9    4   17 1
  10    5    6 ar
  11    5    7 1
  12    6   30 1
  13    7    8 am
  14    7   14 2
  15    8    9 1
  16    8   31 1
  17    9   10 2
  18    9   13 1
  19   10   11 1
  20   11   12 2
  21   11   15 1
  22   12   13 1
  23   12   32 1
  24   15   33 1
  25   15   34 1
  26   15   35 1
  27   16   18 1
  28   17   36 1
  29   17   37 1
  30   18   19 ar
  31   18   23 ar
  32   19   20 ar
  33   19   24 1
  34   20   21 ar
  35   20   38 1
  36   21   22 ar
  37   21   39 1
  38   22   23 ar
  39   22   40 1
  40   23   41 1
  41   24   25 2
  42   24   26 2
  43   24   27 1
  44   27   42 1
  45   27   43 1
  46   27   44 1

#	End of record

