#	Name: ASD03430150
#	Creating user name:	WinNT
#	Creation time:	15. 06. 2019 20:40

#	Modifying user name:	WinNT
#	Modification time:	15. 06. 2019 20:40

#	Program:	/corina/corina34_cracker 3.40 0067  02.08.2006

@<TRIPOS>MOLECULE
ASD03430150
  53   58    0    0    0
SMALL
NO_CHARGES


@<TRIPOS>ATOM
   1 C1             0.0609     1.2930    -0.0233 C.ar    
   2 C2             0.0582    -0.1039    -0.0382 C.ar    
   3 C3             1.2363    -0.7872    -0.0637 C.ar    
   4 C4             2.4603    -0.1107    -0.0647 C.ar    
   5 C5             2.4734     1.2780    -0.0582 C.ar    
   6 C6             1.2831     1.9876    -0.0386 C.ar    
   7 O7             3.5048    -0.9863    -0.0586 O.3     
   8 C8             1.5607    -2.2567    -0.1081 C.3     
   9 C9             3.0453    -2.2786    -0.4976 C.3     
  10 C10            0.4139    -3.9634     0.9370 C.ar    
  11 C11            1.3166    -2.9372     1.2056 C.ar    
  12 C12            0.7136    -2.9967    -1.1032 C.2     
  13 N13            0.0818    -3.9716    -0.4197 N.am    
  14 O14            0.6166    -2.7626    -2.2893 O.2     
  15 C15            1.7862    -2.7347     2.4840 C.ar    
  16 C16            1.3639    -3.5546     3.5158 C.ar    
  17 C17            0.4694    -4.5773     3.2602 C.ar    
  18 C18           -0.0047    -4.7841     1.9811 C.ar    
  19 C19           -0.9932     2.3093     0.0131 C.2     
  20 N20           -0.4137     3.4707     0.0066 N.2     
  21 O21            0.9893     3.3044    -0.0298 O.3     
  22 C22           -0.8450    -4.9288    -1.0289 C.3     
  23 C23           -2.2453    -4.3741    -0.9782 C.2     
  24 C24           -2.4778     2.0536     0.0507 C.3     
  25 N25           -2.7970    -3.6391    -1.8967 N.2     
  26 C26           -4.0619    -3.3316    -1.5009 C.2     
  27 C27           -4.2558    -3.9188    -0.2886 C.2     
  28 O28           -3.1204    -4.5659     0.0189 O.3     
  29 C29           -5.0385    -2.5156    -2.2450 C.2     
  30 O30           -6.1751    -2.3978    -1.8288 O.2     
  31 N31           -4.6717    -1.9002    -3.3866 N.am    
  32 C32           -5.6702    -1.1889    -4.1887 C.3     
  33 C33           -3.2746    -1.9424    -3.8252 C.3     
  34 H34           -0.8781    -0.6422    -0.0291 H       
  35 H35            3.4149     1.8071    -0.0680 H       
  36 H36            3.1605    -2.3840    -1.5764 H       
  37 H37            3.5714    -3.0752     0.0283 H       
  38 H38            2.4845    -1.9349     2.6818 H       
  39 H39            1.7325    -3.3960     4.5185 H       
  40 H40            0.1406    -5.2176     4.0654 H       
  41 H41           -0.7037    -5.5847     1.7892 H       
  42 H42           -0.5596    -5.1006    -2.0668 H       
  43 H43           -0.8071    -5.8703    -0.4811 H       
  44 H44           -2.8083     1.9836     1.0870 H       
  45 H45           -3.0003     2.8731    -0.4428 H       
  46 H46           -2.6987     1.1190    -0.4650 H       
  47 H47           -5.1534    -3.8755     0.3105 H       
  48 H48           -6.1158    -0.3931    -3.5920 H       
  49 H49           -5.1905    -0.7587    -5.0679 H       
  50 H50           -6.4471    -1.8858    -4.5032 H       
  51 H51           -3.0948    -2.8651    -4.3769 H       
  52 H52           -3.0703    -1.0878    -4.4702 H       
  53 H53           -2.6193    -1.9058    -2.9550 H       
@<TRIPOS>BOND
   1    1    2 ar
   2    1    6 ar
   3    1   19 1
   4    2    3 ar
   5    2   34 1
   6    3    4 ar
   7    3    8 1
   8    4    5 ar
   9    4    7 1
  10    5    6 ar
  11    5   35 1
  12    6   21 1
  13    7    9 1
  14    8    9 1
  15    8   11 1
  16    8   12 1
  17    9   36 1
  18    9   37 1
  19   10   11 ar
  20   10   13 1
  21   10   18 ar
  22   11   15 ar
  23   12   13 am
  24   12   14 2
  25   13   22 1
  26   15   16 ar
  27   15   38 1
  28   16   17 ar
  29   16   39 1
  30   17   18 ar
  31   17   40 1
  32   18   41 1
  33   19   20 2
  34   19   24 1
  35   20   21 1
  36   22   23 1
  37   22   42 1
  38   22   43 1
  39   23   25 2
  40   23   28 1
  41   24   44 1
  42   24   45 1
  43   24   46 1
  44   25   26 1
  45   26   27 2
  46   26   29 1
  47   27   28 1
  48   27   47 1
  49   29   30 2
  50   29   31 am
  51   31   32 1
  52   31   33 1
  53   32   48 1
  54   32   49 1
  55   32   50 1
  56   33   51 1
  57   33   52 1
  58   33   53 1

#	End of record

