#	Name: ASD08070026
#	Creating user name:	WinNT
#	Creation time:	15. 06. 2019 21:14

#	Modifying user name:	WinNT
#	Modification time:	15. 06. 2019 21:14

#	Program:	/corina/corina34_cracker 3.40 0067  02.08.2006

@<TRIPOS>MOLECULE
ASD08070026
  45   46    0    0    0
SMALL
NO_CHARGES


@<TRIPOS>ATOM
   1 C1            -0.0170     1.4011     0.0097 C.ar    
   2 C2             0.0021    -0.0041     0.0020 C.ar    
   3 C3            -1.1975    -0.7107     0.0097 C.ar    
   4 C4            -2.4028    -0.0140     0.0249 C.ar    
   5 C5            -2.4043     1.3861     0.0325 C.ar    
   6 C6            -1.2281     2.0800     0.0300 C.ar    
   7 O7             1.2747     1.7948    -0.0005 O.3     
   8 C8             2.0478     0.6973    -0.0137 C.2     
   9 N9             1.3123    -0.3730    -0.0125 N.2     
  10 C10           -3.6818    -0.7529     0.0327 C.2     
  11 N11           -4.8492    -0.0794     0.0474 N.am    
  12 O12           -3.6815    -1.9686     0.0257 O.2     
  13 C13           -6.1176    -0.8123     0.0551 C.3     
  14 C14           -6.4829    -1.1845     1.4935 C.3     
  15 C15            3.5547     0.7062    -0.0281 C.3     
  16 C16           -5.4459    -2.1645     2.0458 C.3     
  17 C17           -5.8111    -2.5367     3.4842 C.3     
  18 C18           -7.2189     0.0680    -0.5392 C.3     
  19 C19           -6.9159     0.3373    -2.0145 C.3     
  20 C20           -6.9814    -0.9761    -2.7966 C.3     
  21 C21           -7.9477     1.3174    -2.5764 C.3     
  22 H22           -1.1931    -1.7907     0.0035 H       
  23 H23           -3.3424     1.9211     0.0439 H       
  24 H24           -1.2400     3.1599     0.0359 H       
  25 H25           -4.8494     0.8905     0.0530 H       
  26 H26           -6.0167    -1.7196    -0.5405 H       
  27 H27           -6.4968    -0.2851     2.1092 H       
  28 H28           -7.4680    -1.6508     1.5092 H       
  29 H29            3.9121     1.7359    -0.0255 H       
  30 H30            3.9295     0.1893     0.8554 H       
  31 H31            3.9125     0.1997    -0.9245 H       
  32 H32           -5.4319    -3.0639     1.4301 H       
  33 H33           -4.4608    -1.6982     2.0301 H       
  34 H34           -5.8251    -1.6373     4.0998 H       
  35 H35           -6.7962    -3.0031     3.4998 H       
  36 H36           -5.0723    -3.2349     3.8776 H       
  37 H37           -8.1782    -0.4421    -0.4525 H       
  38 H38           -7.2599     1.0134     0.0017 H       
  39 H39           -5.9184     0.7666    -2.1082 H       
  40 H40           -7.9789    -1.4054    -2.7030 H       
  41 H41           -6.7656    -0.7843    -3.8477 H       
  42 H42           -6.2463    -1.6744    -2.3963 H       
  43 H43           -7.9011     2.2531    -2.0192 H       
  44 H44           -7.7319     1.5092    -3.6275 H       
  45 H45           -8.9452     0.8881    -2.4828 H       
@<TRIPOS>BOND
   1    1    2 ar
   2    1    7 1
   3    1    6 ar
   4    2    3 ar
   5    2    9 1
   6    3    4 ar
   7    3   22 1
   8    4    5 ar
   9    4   10 1
  10    5    6 ar
  11    5   23 1
  12    6   24 1
  13    7    8 1
  14    8    9 2
  15    8   15 1
  16   10   11 am
  17   10   12 2
  18   11   13 1
  19   11   25 1
  20   13   14 1
  21   13   18 1
  22   13   26 1
  23   14   16 1
  24   14   27 1
  25   14   28 1
  26   15   29 1
  27   15   30 1
  28   15   31 1
  29   16   17 1
  30   16   32 1
  31   16   33 1
  32   17   34 1
  33   17   35 1
  34   17   36 1
  35   18   19 1
  36   18   37 1
  37   18   38 1
  38   19   20 1
  39   19   21 1
  40   19   39 1
  41   20   40 1
  42   20   41 1
  43   20   42 1
  44   21   43 1
  45   21   44 1
  46   21   45 1

#	End of record

