#	Name: ASD01901068
#	Creating user name:	WinNT
#	Creation time:	15. 06. 2019 19:53

#	Modifying user name:	WinNT
#	Modification time:	15. 06. 2019 19:53

#	Program:	/corina/corina34_cracker 3.40 0067  02.08.2006

@<TRIPOS>MOLECULE
ASD01901068
  36   37    0    0    0
SMALL
NO_CHARGES


@<TRIPOS>ATOM
   1 C1            -0.0184     1.5028     0.0103 C.2     
   2 C2             0.0021    -0.0041     0.0020 C.3     
   3 C3             1.2402     2.2524     0.0023 C.ar    
   4 C4             1.2252     3.6591     0.0100 C.ar    
   5 C5             2.4210     4.3555     0.0023 C.ar    
   6 C6             3.6246     3.6647    -0.0130 C.ar    
   7 C7             3.6362     2.2724    -0.0210 C.ar    
   8 C8             2.4652     1.5719    -0.0072 C.ar    
   9 O9             4.7957     4.3494    -0.0205 O.3     
  10 C10            5.9983     3.5777    -0.0362 C.3     
  11 O11            0.0460     4.3286     0.0245 O.3     
  12 C12            0.1106     5.7562     0.0315 C.3     
  13 O13           -1.3386    -0.4987     0.0122 O.3     
  14 C14           -1.4983    -1.8484     0.0064 C.ar    
  15 C15           -2.7733    -2.3978     0.0157 C.ar    
  16 C16           -2.9327    -3.7705     0.0099 C.ar    
  17 C17           -1.8235    -4.5962    -0.0051 C.ar    
  18 C18           -0.5531    -4.0513    -0.0139 C.ar    
  19 C19           -0.3882    -2.6792    -0.0144 C.ar    
  20 Br20          -4.2902    -1.2689     0.0368 Br      
  21 O21           -1.0773     2.0951     0.0185 O.2     
  22 H22            0.5123    -0.3556    -0.8948 H       
  23 H23            0.5293    -0.3651     0.8851 H       
  24 H24            2.4177     5.4355     0.0078 H       
  25 H25            4.5778     1.7436    -0.0336 H       
  26 H26            2.4824     0.4920    -0.0083 H       
  27 H27            6.8591     4.2464    -0.0408 H       
  28 H28            6.0351     2.9443     0.8501 H       
  29 H29            6.0181     2.9538    -0.9298 H       
  30 H30            0.6321     6.1007    -0.8614 H       
  31 H31           -0.8996     6.1655     0.0430 H       
  32 H32            0.6484     6.0912     0.9184 H       
  33 H33           -3.9241    -4.1987     0.0174 H       
  34 H34           -1.9500    -5.6688    -0.0096 H       
  35 H35            0.3114    -4.6985    -0.0252 H       
  36 H36            0.6046    -2.2543    -0.0264 H       
@<TRIPOS>BOND
   1    1    2 1
   2    1    3 1
   3    1   21 2
   4    2   13 1
   5    2   22 1
   6    2   23 1
   7    3    4 ar
   8    3    8 ar
   9    4    5 ar
  10    4   11 1
  11    5    6 ar
  12    5   24 1
  13    6    7 ar
  14    6    9 1
  15    7    8 ar
  16    7   25 1
  17    8   26 1
  18    9   10 1
  19   10   27 1
  20   10   28 1
  21   10   29 1
  22   11   12 1
  23   12   30 1
  24   12   31 1
  25   12   32 1
  26   13   14 1
  27   14   15 ar
  28   14   19 ar
  29   15   16 ar
  30   15   20 1
  31   16   17 ar
  32   16   33 1
  33   17   18 ar
  34   17   34 1
  35   18   19 ar
  36   18   35 1
  37   19   36 1

#	End of record

