#	Name: ASD01811879
#	Creating user name:	WinNT
#	Creation time:	15. 06. 2019 19:27

#	Modifying user name:	WinNT
#	Modification time:	15. 06. 2019 19:27

#	Program:	/corina/corina34_cracker 3.40 0067  02.08.2006

@<TRIPOS>MOLECULE
ASD01811879
  40   42    0    0    0
SMALL
NO_CHARGES


@<TRIPOS>ATOM
   1 C1            -0.0166     1.3752     0.0096 C.ar    
   2 C2             0.0021    -0.0041     0.0020 C.ar    
   3 C3             1.2069    -0.6854    -0.0127 C.ar    
   4 C4             2.4015     0.0090    -0.0199 C.ar    
   5 C5             2.3992     1.3949    -0.0129 C.ar    
   6 C6             1.1824     2.0872     0.0020 C.ar    
   7 C7             1.1687     3.5673     0.0096 C.2     
   8 C8             0.8638     4.2641     1.1700 C.2     
   9 C9             0.8600     5.6649     1.1413 C.2     
  10 N10            1.1485     6.3188     0.0010 N.am    
  11 C11            1.4484     5.6445    -1.1404 C.2     
  12 C12            1.4717     4.2950    -1.1639 C.2     
  13 C13            1.1388     7.7837    -0.0103 C.3     
  14 C14            0.1060     8.2791    -1.0247 C.3     
  15 C15            0.0958     9.8090    -1.0365 C.3     
  16 C16            1.4822    10.3252    -1.4268 C.3     
  17 C17            2.5150     9.8299    -0.4124 C.3     
  18 C18            2.5252     8.3000    -0.4006 C.3     
  19 O19            3.5721     2.0784    -0.0195 O.3     
  20 O20            0.5939     6.2940     2.1534 O.2     
  21 O21           -1.1889     7.7969    -0.6601 O.3     
  22 H22           -0.9588     1.9031     0.0169 H       
  23 H23           -0.9271    -0.5546     0.0079 H       
  24 H24            1.2133    -1.7654    -0.0182 H       
  25 H25            3.3380    -0.5288    -0.0307 H       
  26 H26            0.6323     3.7344     2.0822 H       
  27 H27            1.6754     6.1965    -2.0405 H       
  28 H28            1.7166     3.7731    -2.0771 H       
  29 H29            0.8796     8.1531     0.9819 H       
  30 H30            0.3652     7.9098    -2.0169 H       
  31 H31           -0.6399    10.1619    -1.7591 H       
  32 H32           -0.1633    10.1783    -0.0442 H       
  33 H33            1.7414     9.9559    -2.4190 H       
  34 H34            1.4750    11.4151    -1.4352 H       
  35 H35            3.5027    10.1977    -0.6904 H       
  36 H36            2.2559    10.1992     0.5798 H       
  37 H37            3.2610     7.9471     0.3221 H       
  38 H38            2.7844     7.9307    -1.3928 H       
  39 H39            3.9044     2.2809    -0.9048 H       
  40 H40           -1.8947     8.0729    -1.2607 H       
@<TRIPOS>BOND
   1    1    2 ar
   2    1    6 ar
   3    1   22 1
   4    2    3 ar
   5    2   23 1
   6    3    4 ar
   7    3   24 1
   8    4    5 ar
   9    4   25 1
  10    5    6 ar
  11    5   19 1
  12    6    7 1
  13    7    8 2
  14    7   12 1
  15    8    9 1
  16    8   26 1
  17    9   10 am
  18    9   20 2
  19   10   11 1
  20   10   13 1
  21   11   12 2
  22   11   27 1
  23   12   28 1
  24   13   14 1
  25   13   18 1
  26   13   29 1
  27   14   15 1
  28   14   21 1
  29   14   30 1
  30   15   16 1
  31   15   31 1
  32   15   32 1
  33   16   17 1
  34   16   33 1
  35   16   34 1
  36   17   18 1
  37   17   35 1
  38   17   36 1
  39   18   37 1
  40   18   38 1
  41   19   39 1
  42   21   40 1

#	End of record

