#	Name: ASD01150833
#	Creating user name:	WinNT
#	Creation time:	15. 06. 2019 19:05

#	Modifying user name:	WinNT
#	Modification time:	15. 06. 2019 19:05

#	Program:	/corina/corina34_cracker 3.40 0067  02.08.2006

@<TRIPOS>MOLECULE
ASD01150833
  59   62    0    0    0
SMALL
NO_CHARGES


@<TRIPOS>ATOM
   1 C1            -0.0157     1.3102     0.0092 C.2     
   2 N2             0.0021    -0.0041     0.0020 N.2     
   3 C3             1.2638    -0.4446    -0.0124 C.2     
   4 C4             2.0988     0.6655    -0.0144 C.2     
   5 N5             1.2579     1.7786    -0.0004 N.pl3   
   6 C6             3.5094     0.6669    -0.0272 C.2     
   7 O7             4.1192    -0.3869    -0.0384 O.2     
   8 O8             4.1833     1.8370    -0.0269 O.3     
   9 O9            -1.1296     2.0761     0.0189 O.3     
  10 C10           -2.3856     1.3946     0.0219 C.3     
  11 N11            1.6678    -1.7743    -0.0230 N.am    
  12 C12            0.7470    -2.7585    -0.0195 C.2     
  13 C13            1.1764    -4.1720    -0.0308 C.ar    
  14 C14            0.2247    -5.1938    -0.0272 C.ar    
  15 C15            0.6317    -6.5112    -0.0383 C.ar    
  16 C16            1.9815    -6.8219    -0.0524 C.ar    
  17 C17            2.9303    -5.8127    -0.0555 C.ar    
  18 C18            2.5356    -4.4915    -0.0509 C.ar    
  19 O19           -0.4370    -2.4830    -0.0071 O.2     
  20 Cl20           2.4861    -8.4829    -0.0656 Cl      
  21 O21            2.7104     7.0989     0.2476 O.3     
  22 C22            2.5587     7.2636     1.6699 C.3     
  23 O23            1.6122     6.2414     2.0338 O.3     
  24 C24            1.7627     5.2563     1.1008 C.ar    
  25 C25            2.4381     5.7833     0.0019 C.ar    
  26 C26            1.3719     3.9283     1.0985 C.ar    
  27 C27            1.6532     3.1242     0.0022 C.ar    
  28 C28            2.3260     3.6519    -1.0911 C.ar    
  29 C29            2.7170     4.9775    -1.0898 C.ar    
  30 C30            5.6104     1.7637    -0.0402 C.3     
  31 C31            6.1937     3.1782    -0.0378 C.3     
  32 C32            6.0940     1.0105     1.2006 C.3     
  33 C33            6.0714     1.0241    -1.2977 C.3     
  34 O34            7.6208     3.1049    -0.0512 O.3     
  35 C35            8.2682     4.3788    -0.0501 C.3     
  36 H36           -2.4553     0.7652     0.9090 H       
  37 H37           -3.1950     2.1245     0.0297 H       
  38 H38           -2.4644     0.7742    -0.8709 H       
  39 H39            2.6125    -1.9942    -0.0329 H       
  40 H40           -0.8280    -4.9528    -0.0155 H       
  41 H41           -0.1034    -7.3024    -0.0355 H       
  42 H42            3.9813    -6.0612    -0.0658 H       
  43 H43            3.2762    -3.7055    -0.0582 H       
  44 H44            3.5098     7.1032     2.1777 H       
  45 H45            2.1622     8.2523     1.9009 H       
  46 H46            0.8485     3.5177     1.9494 H       
  47 H47            2.5445     3.0259    -1.9436 H       
  48 H48            3.2402     5.3860    -1.9417 H       
  49 H49            5.8492     3.7148    -0.9218 H       
  50 H50            5.8653     3.7051     0.8580 H       
  51 H51            5.6784     0.0028     1.1989 H       
  52 H52            7.1825     0.9546     1.1904 H       
  53 H53            5.7656     1.5375     2.0965 H       
  54 H54            5.7268     1.5607    -2.1817 H       
  55 H55            7.1599     0.9682    -1.3079 H       
  56 H56            5.6558     0.0164    -1.2995 H       
  57 H57            7.9829     4.9307     0.8455 H       
  58 H58            9.3489     4.2371    -0.0607 H       
  59 H59            7.9667     4.9403    -0.9344 H       
@<TRIPOS>BOND
   1    1    2 2
   2    1    5 1
   3    1    9 1
   4    2    3 1
   5    3    4 2
   6    3   11 1
   7    4    5 1
   8    4    6 1
   9    5   27 1
  10    6    7 2
  11    6    8 1
  12    8   30 1
  13    9   10 1
  14   10   36 1
  15   10   37 1
  16   10   38 1
  17   11   12 am
  18   11   39 1
  19   12   13 1
  20   12   19 2
  21   13   14 ar
  22   13   18 ar
  23   14   15 ar
  24   14   40 1
  25   15   16 ar
  26   15   41 1
  27   16   17 ar
  28   16   20 1
  29   17   18 ar
  30   17   42 1
  31   18   43 1
  32   21   22 1
  33   21   25 1
  34   22   23 1
  35   22   44 1
  36   22   45 1
  37   23   24 1
  38   24   25 ar
  39   24   26 ar
  40   25   29 ar
  41   26   27 ar
  42   26   46 1
  43   27   28 ar
  44   28   29 ar
  45   28   47 1
  46   29   48 1
  47   30   31 1
  48   30   32 1
  49   30   33 1
  50   31   34 1
  51   31   49 1
  52   31   50 1
  53   32   51 1
  54   32   52 1
  55   32   53 1
  56   33   54 1
  57   33   55 1
  58   33   56 1
  59   34   35 1
  60   35   57 1
  61   35   58 1
  62   35   59 1

#	End of record

