#	Name: ASD07930788
#	Creating user name:	WinNT
#	Creation time:	15. 06. 2019 21:13

#	Modifying user name:	WinNT
#	Modification time:	15. 06. 2019 21:13

#	Program:	/corina/corina34_cracker 3.40 0067  02.08.2006

@<TRIPOS>MOLECULE
ASD07930788
  45   47    0    0    0
SMALL
NO_CHARGES


@<TRIPOS>ATOM
   1 C1             1.5448     0.7393     1.3841 C.3     
   2 N2             1.4583    -2.1086     2.2743 N.2     
   3 N3             1.3302    -2.5718    -0.0127 N.pl3   
   4 C4             0.2131    -2.7239    -0.9509 C.3     
   5 C5            -0.1163    -1.3589    -1.5709 C.3     
   6 N6             0.8360    -0.3999     0.7956 N.am    
   7 C7             1.2166    -1.7083     1.0576 C.2     
   8 C8            -1.0122    -3.2552    -0.2045 C.3     
   9 C9             0.5988    -3.6914    -2.0400 C.ar    
  10 C10            1.5037    -4.7031    -1.7770 C.ar    
  11 C11            1.8585    -5.5953    -2.7835 C.ar    
  12 C12            1.3030    -5.4671    -4.0487 C.ar    
  13 C13            0.3990    -4.4543    -4.3064 C.ar    
  14 C14            0.0422    -3.5703    -3.3025 C.ar    
  15 N15            2.7753    -6.6209    -2.5205 N.am    
  16 C16            3.4919    -7.1587    -3.5273 C.2     
  17 C17            4.3712    -8.3215    -3.2711 C.ar    
  18 O18            3.4160    -6.6890    -4.6458 O.2     
  19 N19            4.4494    -8.8297    -2.0471 N.ar    
  20 C20            5.2174    -9.8617    -1.7762 C.ar    
  21 C21            5.9808   -10.4616    -2.7691 C.ar    
  22 C22            5.9277    -9.9605    -4.0635 C.ar    
  23 C23            5.1051    -8.8763    -4.3183 C.ar    
  24 F24           -0.8422    -2.5815    -3.5576 F       
  25 F25            6.7672   -11.5212    -2.4791 F       
  26 F26            2.0430    -4.8246    -0.5443 F       
  27 S27           -0.4668    -0.1883    -0.2214 S.o2    
  28 O28           -0.3520     1.1534    -0.6751 O.2     
  29 O29           -1.5877    -0.6169     0.5396 O.2     
  30 H30            2.3580     0.3760     2.0124 H       
  31 H31            1.9513     1.3644     0.5890 H       
  32 H32            0.8523     1.3250     1.9887 H       
  33 H33            1.3731    -1.4880     3.0149 H       
  34 H34            2.1460    -3.0804    -0.1421 H       
  35 H35            0.7345    -1.0047    -2.1529 H       
  36 H36           -0.9908    -1.4494    -2.2152 H       
  37 H37           -1.2317    -2.6052     0.6426 H       
  38 H38           -1.8683    -3.2746    -0.8790 H       
  39 H39           -0.8097    -4.2642     0.1546 H       
  40 H40            1.5773    -6.1585    -4.8317 H       
  41 H41           -0.0329    -4.3547    -5.2913 H       
  42 H42            2.8945    -6.9441    -1.6138 H       
  43 H43            5.2554   -10.2478    -0.7683 H       
  44 H44            6.5115   -10.4088    -4.8539 H       
  45 H45            5.0394    -8.4609    -5.3131 H       
@<TRIPOS>BOND
   1    1    6 1
   2    1   30 1
   3    1   31 1
   4    1   32 1
   5    2    7 2
   6    2   33 1
   7    3    4 1
   8    3    7 1
   9    3   34 1
  10    4    5 1
  11    4    8 1
  12    4    9 1
  13    5   27 1
  14    5   35 1
  15    5   36 1
  16    6    7 1
  17    6   27 am
  18    8   37 1
  19    8   38 1
  20    8   39 1
  21    9   10 ar
  22    9   14 ar
  23   10   11 ar
  24   10   26 1
  25   11   12 ar
  26   11   15 1
  27   12   13 ar
  28   12   40 1
  29   13   14 ar
  30   13   41 1
  31   14   24 1
  32   15   16 am
  33   15   42 1
  34   16   17 1
  35   16   18 2
  36   17   19 ar
  37   17   23 ar
  38   19   20 ar
  39   20   21 ar
  40   20   43 1
  41   21   22 ar
  42   21   25 1
  43   22   23 ar
  44   22   44 1
  45   23   45 1
  46   27   28 2
  47   27   29 2

#	End of record

