#	Name: ASD04530021
#	Creating user name:	WinNT
#	Creation time:	15. 06. 2019 20:49

#	Modifying user name:	WinNT
#	Modification time:	15. 06. 2019 20:49

#	Program:	/corina/corina34_cracker 3.40 0067  02.08.2006

@<TRIPOS>MOLECULE
ASD04530021
  30   31    0    0    0
SMALL
NO_CHARGES


@<TRIPOS>ATOM
   1 C1             0.2470     0.9178    -0.9755 C.ar    
   2 C2             0.0008    -0.0015     0.0282 C.ar    
   3 C3             0.9388    -0.2190     1.0207 C.ar    
   4 C4             2.1315     0.4846     1.0143 C.ar    
   5 C5             2.3835     1.4149     0.0009 C.ar    
   6 C6             1.4322     1.6260    -0.9942 C.ar    
   7 C7             3.6578     2.1734    -0.0139 C.2     
   8 C8             3.6960     3.5132    -0.1120 C.2     
   9 S9             5.3829     4.0215    -0.0941 S.3     
  10 C10            5.8909     2.3415     0.0472 C.2     
  11 N11            4.8447     1.5749     0.0748 N.2     
  12 N12            7.2040     1.9062     0.1224 N.pl3   
  13 O13            3.0536     0.2723     1.9896 O.3     
  14 C14            2.7272    -0.6924     2.9921 C.3     
  15 C15            1.9668     4.7332     1.1805 C.3     
  16 C16            2.5007     4.4246    -0.2197 C.3     
  17 H17           -0.4884     1.0791    -1.7498 H       
  18 H18           -0.9285    -0.5517     0.0370 H       
  19 H19            0.7409    -0.9381     1.8018 H       
  20 H20            1.6213     2.3428    -1.7796 H       
  21 H21            7.9301     2.5489     0.0984 H       
  22 H22            7.3973     0.9588     0.1991 H       
  23 H23            1.8187    -0.3851     3.5099 H       
  24 H24            2.5676    -1.6635     2.5235 H       
  25 H25            3.5465    -0.7644     3.7074 H       
  26 H26            1.1023     5.3925     1.1026 H       
  27 H27            1.6728     3.8048     1.6701 H       
  28 H28            2.7450     5.2223     1.7664 H       
  29 H29            2.7947     5.3530    -0.7093 H       
  30 H30            1.7225     3.9355    -0.8056 H       
@<TRIPOS>BOND
   1    1    2 ar
   2    1    6 ar
   3    1   17 1
   4    2    3 ar
   5    2   18 1
   6    3    4 ar
   7    3   19 1
   8    4    5 ar
   9    4   13 1
  10    5    6 ar
  11    5    7 1
  12    6   20 1
  13    7    8 2
  14    7   11 1
  15    8    9 1
  16    8   16 1
  17    9   10 1
  18   10   11 2
  19   10   12 1
  20   12   21 1
  21   12   22 1
  22   13   14 1
  23   14   23 1
  24   14   24 1
  25   14   25 1
  26   15   16 1
  27   15   26 1
  28   15   27 1
  29   15   28 1
  30   16   29 1
  31   16   30 1

#	End of record

