#	Name: ASD06660141
#	Creating user name:	WinNT
#	Creation time:	15. 06. 2019 21:08

#	Modifying user name:	WinNT
#	Modification time:	15. 06. 2019 21:08

#	Program:	/corina/corina34_cracker 3.40 0067  02.08.2006

@<TRIPOS>MOLECULE
ASD06660141
  80   84    0    0    0
SMALL
NO_CHARGES


@<TRIPOS>ATOM
   1 C1            -0.4416    -0.9511     1.0871 C.2     
   2 C2             0.0021    -0.0041     0.0020 C.3     
   3 C3            -0.8610     1.2586     0.0429 C.3     
   4 O4            -1.5721    -0.8981     1.5102 O.2     
   5 O5             0.4176    -1.8571     1.5797 O.3     
   6 C6             1.7880     0.9288     1.3722 C.2     
   7 C7             3.2049     1.2933     1.5851 C.ar    
   8 C8             4.0871     0.3740     2.1554 C.ar    
   9 C9             5.4080     0.7201     2.3509 C.ar    
  10 C10            5.8590     1.9757     1.9834 C.ar    
  11 C11            4.9900     2.8914     1.4177 C.ar    
  12 C12            3.6676     2.5558     1.2114 C.ar    
  13 O13            0.9675     1.1449     2.2425 O.2     
  14 N14            1.4061     0.3570     0.2130 N.am    
  15 C15            7.3032     2.3473     2.2009 C.3     
  16 F16            8.0488     2.0037     1.0681 F       
  17 F17            7.4018     3.7249     2.4238 F       
  18 F18            7.7997     1.6583     3.3126 F       
  19 C19            2.7236     3.5525     0.5897 C.3     
  20 C20            3.5974    -0.9934     2.5572 C.3     
  21 C21            3.6403    -1.9268     1.3456 C.3     
  22 C22           -0.1485    -0.6722    -1.3403 C.ar    
  23 C23            0.7542    -0.3996    -2.3518 C.ar    
  24 C24            0.6191    -1.0102    -3.5831 C.ar    
  25 C25           -0.4250    -1.8991    -3.8050 C.ar    
  26 C26           -1.3300    -2.1707    -2.7868 C.ar    
  27 C27           -1.1858    -1.5609    -1.5561 C.ar    
  28 N28           -0.5648    -2.5180    -5.0493 N.3     
  29 C29           -1.7288    -3.4132    -5.0640 C.3     
  30 C30           -1.7669    -4.1811    -6.3872 C.3     
  31 C31           -1.8506    -3.1853    -7.5474 C.3     
  32 C32           -0.6525    -2.2342    -7.4808 C.3     
  33 C33           -0.6468    -1.5227    -6.1259 C.3     
  34 C34           -1.8276    -3.9445    -8.8755 C.3     
  35 N35           -2.0277    -3.0029    -9.9798 N.pl3   
  36 C36           -2.0451    -3.4597   -11.2808 C.2     
  37 N37           -1.8870    -4.7628   -11.6568 N.pl3   
  38 C38           -1.9679    -4.8043   -13.0392 C.ar    
  39 C39           -2.1788    -3.4799   -13.4579 C.ar    
  40 N40           -2.2214    -2.7090   -12.3394 N.2     
  41 C41           -2.3030    -3.2013   -14.8208 C.ar    
  42 C42           -2.2179    -4.2246   -15.7387 C.ar    
  43 C43           -2.0101    -5.5300   -15.3199 C.ar    
  44 C44           -1.8844    -5.8217   -13.9769 C.ar    
  45 H45           -0.7521     1.7419     1.0138 H       
  46 H46           -0.5401     1.9436    -0.7420 H       
  47 H47           -1.9056     0.9899    -0.1141 H       
  48 H48            0.0873    -2.4429     2.2746 H       
  49 H49            6.0915     0.0099     2.7921 H       
  50 H50            5.3483     3.8696     1.1331 H       
  51 H51            2.0609     0.1846    -0.4816 H       
  52 H52            2.2632     4.1544     1.3732 H       
  53 H53            3.2763     4.2015    -0.0896 H       
  54 H54            1.9487     3.0225     0.0360 H       
  55 H55            4.2368    -1.3913     3.3452 H       
  56 H56            2.5733    -0.9196     2.9229 H       
  57 H57            4.6645    -2.0006     0.9799 H       
  58 H58            3.2861    -2.9159     1.6362 H       
  59 H59            3.0010    -1.5289     0.5576 H       
  60 H60            1.5656     0.2919    -2.1787 H       
  61 H61            1.3243    -0.7965    -4.3728 H       
  62 H62           -2.1429    -2.8613    -2.9560 H       
  63 H63           -1.8863    -1.7753    -0.7625 H       
  64 H64           -1.6548    -4.1188    -4.2365 H       
  65 H65           -2.6406    -2.8251    -4.9590 H       
  66 H66           -0.8616    -4.7801    -6.4864 H       
  67 H67           -2.6396    -4.8339    -6.4042 H       
  68 H68           -2.7750    -2.6128    -7.4700 H       
  69 H69            0.2702    -2.8026    -7.5973 H       
  70 H70           -0.7291    -1.4960    -8.2792 H       
  71 H71           -1.5636    -0.9435    -6.0160 H       
  72 H72            0.2131    -0.8553    -6.0698 H       
  73 H73           -0.8652    -4.4427    -8.9926 H       
  74 H74           -2.6248    -4.6879    -8.8829 H       
  75 H75           -2.1478    -2.0581    -9.7958 H       
  76 H76           -1.7440    -5.5187   -11.0660 H       
  77 H77           -2.4657    -2.1869   -15.1538 H       
  78 H78           -2.3140    -4.0087   -16.7925 H       
  79 H79           -1.9455    -6.3237   -16.0496 H       
  80 H80           -1.7225    -6.8405   -13.6571 H       
@<TRIPOS>BOND
   1    1    2 1
   2    1    4 2
   3    1    5 1
   4    2    3 1
   5    2   14 1
   6    2   22 1
   7    3   45 1
   8    3   46 1
   9    3   47 1
  10    5   48 1
  11    6    7 1
  12    6   13 2
  13    6   14 am
  14    7    8 ar
  15    7   12 ar
  16    8    9 ar
  17    8   20 1
  18    9   10 ar
  19    9   49 1
  20   10   11 ar
  21   10   15 1
  22   11   12 ar
  23   11   50 1
  24   12   19 1
  25   14   51 1
  26   15   16 1
  27   15   17 1
  28   15   18 1
  29   19   52 1
  30   19   53 1
  31   19   54 1
  32   20   21 1
  33   20   55 1
  34   20   56 1
  35   21   57 1
  36   21   58 1
  37   21   59 1
  38   22   23 ar
  39   22   27 ar
  40   23   24 ar
  41   23   60 1
  42   24   25 ar
  43   24   61 1
  44   25   26 ar
  45   25   28 1
  46   26   27 ar
  47   26   62 1
  48   27   63 1
  49   28   29 1
  50   28   33 1
  51   29   30 1
  52   29   64 1
  53   29   65 1
  54   30   31 1
  55   30   66 1
  56   30   67 1
  57   31   32 1
  58   31   34 1
  59   31   68 1
  60   32   33 1
  61   32   69 1
  62   32   70 1
  63   33   71 1
  64   33   72 1
  65   34   35 1
  66   34   73 1
  67   34   74 1
  68   35   36 1
  69   35   75 1
  70   36   37 1
  71   36   40 2
  72   37   38 1
  73   37   76 1
  74   38   39 ar
  75   38   44 ar
  76   39   40 1
  77   39   41 ar
  78   41   42 ar
  79   41   77 1
  80   42   43 ar
  81   42   78 1
  82   43   44 ar
  83   43   79 1
  84   44   80 1

#	End of record

