#	Name: ASD01913121
#	Creating user name:	WinNT
#	Creation time:	15. 06. 2019 20:01

#	Modifying user name:	WinNT
#	Modification time:	15. 06. 2019 20:01

#	Program:	/corina/corina34_cracker 3.40 0067  02.08.2006

@<TRIPOS>MOLECULE
ASD01913121
  44   47    0    0    0
SMALL
NO_CHARGES


@<TRIPOS>ATOM
   1 C1             0.0492     1.4636     0.0567 C.ar    
   2 C2             0.0550    -0.0202     0.0383 C.2     
   3 N3            -1.0279    -0.8242    -0.0552 N.2     
   4 C4            -0.6292    -2.0627    -0.0403 C.2     
   5 O5             0.7063    -2.0916     0.0619 O.3     
   6 C6             1.1472    -0.8197     0.1060 C.2     
   7 C7            -1.5260    -3.2709    -0.1242 C.3     
   8 C8            -1.1577    -4.0958    -1.3595 C.3     
   9 C9            -2.0893    -5.3054    -1.4637 C.3     
  10 C10           -1.9147    -6.1877    -0.2236 C.3     
  11 N11           -2.1255    -5.3652     0.9754 N.am    
  12 C12           -1.3450    -4.1302     1.1311 C.3     
  13 C13           -3.0179    -5.7365     1.9147 C.2     
  14 C14           -3.8637    -6.9320     1.7003 C.ar    
  15 O15           -3.1281    -5.0897     2.9377 O.2     
  16 C16           -3.2918    -8.1747     1.4095 C.ar    
  17 C17           -4.1181    -9.2642     1.2172 C.ar    
  18 N18           -5.4283    -9.1458     1.3037 N.ar    
  19 C19           -6.0108    -7.9957     1.5753 C.ar    
  20 C20           -5.2594    -6.8520     1.7887 C.ar    
  21 C21            1.2519     2.1672     0.0527 C.ar    
  22 C22            1.2418     3.5470     0.0694 C.ar    
  23 C23            0.0383     4.2327     0.0907 C.ar    
  24 C24           -1.1599     3.5372     0.0948 C.ar    
  25 C25           -1.1592     2.1575     0.0723 C.ar    
  26 F26            0.0330     5.5836     0.1080 F       
  27 F27           -5.8633    -5.6760     2.0672 F       
  28 H28            2.1750    -0.4981     0.1875 H       
  29 H29           -2.5646    -2.9487    -0.1984 H       
  30 H30           -1.2620    -3.4791    -2.2522 H       
  31 H31           -0.1264    -4.4380    -1.2734 H       
  32 H32           -3.1228    -4.9645    -1.5250 H       
  33 H33           -1.8416    -5.8796    -2.3565 H       
  34 H34           -2.6450    -6.9966    -0.2449 H       
  35 H35           -0.9069    -6.6028    -0.2094 H       
  36 H36           -0.2908    -4.3774     1.2558 H       
  37 H37           -1.6994    -3.5815     2.0037 H       
  38 H38           -2.2195    -8.2807     1.3361 H       
  39 H39           -3.6847   -10.2275     0.9923 H       
  40 H40           -7.0879    -7.9451     1.6365 H       
  41 H41            2.1906     1.6334     0.0368 H       
  42 H42            2.1736     4.0931     0.0663 H       
  43 H43           -2.0959     4.0757     0.1118 H       
  44 H44           -2.0936     1.6161     0.0755 H       
@<TRIPOS>BOND
   1    1    2 1
   2    1   21 ar
   3    1   25 ar
   4    2    3 1
   5    2    6 2
   6    3    4 2
   7    4    5 1
   8    4    7 1
   9    5    6 1
  10    6   28 1
  11    7    8 1
  12    7   12 1
  13    7   29 1
  14    8    9 1
  15    8   30 1
  16    8   31 1
  17    9   10 1
  18    9   32 1
  19    9   33 1
  20   10   11 1
  21   10   34 1
  22   10   35 1
  23   11   12 1
  24   11   13 am
  25   12   36 1
  26   12   37 1
  27   13   14 1
  28   13   15 2
  29   14   16 ar
  30   14   20 ar
  31   16   17 ar
  32   16   38 1
  33   17   18 ar
  34   17   39 1
  35   18   19 ar
  36   19   20 ar
  37   19   40 1
  38   20   27 1
  39   21   22 ar
  40   21   41 1
  41   22   23 ar
  42   22   42 1
  43   23   24 ar
  44   23   26 1
  45   24   25 ar
  46   24   43 1
  47   25   44 1

#	End of record

