#	Name: ASD01913527
#	Creating user name:	WinNT
#	Creation time:	15. 06. 2019 20:01

#	Modifying user name:	WinNT
#	Modification time:	15. 06. 2019 20:01

#	Program:	/corina/corina34_cracker 3.40 0067  02.08.2006

@<TRIPOS>MOLECULE
ASD01913527
  59   64    0    0    0
SMALL
NO_CHARGES


@<TRIPOS>ATOM
   1 C1             0.0901     1.4549     0.3150 C.ar    
   2 C2             0.0490    -0.0130     0.1343 C.2     
   3 N3            -1.0124    -0.8155     0.3819 N.pl3   
   4 N4            -0.6028    -2.1224     0.0718 N.2     
   5 C5             0.6461    -2.0459    -0.3347 C.2     
   6 N6             1.0364    -0.7669    -0.3008 N.2     
   7 C7             1.4842    -3.1921    -0.7660 C.ar    
   8 C8             2.7989    -2.9808    -1.1766 C.ar    
   9 C9             3.5748    -4.0494    -1.5764 C.ar    
  10 C10            3.0484    -5.3310    -1.5703 C.ar    
  11 C11            1.7416    -5.5454    -1.1633 C.ar    
  12 C12            0.9606    -4.4833    -0.7560 C.ar    
  13 C13           -2.3282    -0.4024     0.8761 C.3     
  14 C14           -3.2439    -0.1406    -0.2917 C.2     
  15 N15           -4.5146     0.2539    -0.0765 N.am    
  16 O16           -2.8375    -0.2848    -1.4253 O.2     
  17 F17            3.8115    -6.3744    -1.9629 F       
  18 C18           -5.4249     0.5148    -1.2018 C.3     
  19 C19            1.3155     2.1115     0.4337 C.ar    
  20 C20           -1.0962     2.1879     0.3614 C.ar    
  21 C21           -1.0524     3.5561     0.5294 C.ar    
  22 C22            0.1671     4.2029     0.6522 C.ar    
  23 C23            1.3484     3.4800     0.6014 C.ar    
  24 F24            0.2047     5.5434     0.8162 F       
  25 C25           -6.7224    -0.2669    -0.9697 C.3     
  26 N26           -7.2612     0.0673     0.3555 N.3     
  27 C27           -6.3407    -0.3436     1.4240 C.3     
  28 C28           -5.0295     0.4290     1.2901 C.3     
  29 C29           -8.5069    -0.4896     0.5362 C.2     
  30 O30           -9.1516    -1.2458    -0.3696 O.3     
  31 N31           -9.2342    -0.3650     1.6169 N.2     
  32 C32          -10.3994    -1.0466     1.4398 C.ar    
  33 C33          -10.3423    -1.6132     0.1574 C.ar    
  34 C34          -11.5238    -1.2565     2.2385 C.ar    
  35 C35          -12.5698    -2.0156     1.7603 C.ar    
  36 C36          -12.5107    -2.5708     0.4918 C.ar    
  37 C37          -11.4020    -2.3742    -0.3073 C.ar    
  38 H38            3.2098    -1.9821    -1.1823 H       
  39 H39            4.5939    -3.8865    -1.8948 H       
  40 H40            1.3349    -6.5459    -1.1607 H       
  41 H41           -0.0579    -4.6514    -0.4385 H       
  42 H42           -2.7481    -1.1940     1.4968 H       
  43 H43           -2.2249     0.5071     1.4679 H       
  44 H44           -5.6445     1.5811    -1.2556 H       
  45 H45           -4.9610     0.1863    -2.1319 H       
  46 H46            2.2366     1.5490     0.3946 H       
  47 H47           -2.0470     1.6848     0.2655 H       
  48 H48           -1.9701     4.1245     0.5651 H       
  49 H49            2.2963     3.9887     0.6975 H       
  50 H50           -7.4500     0.0002    -1.7361 H       
  51 H51           -6.5168    -1.3361    -1.0196 H       
  52 H52           -6.7916    -0.1322     2.3937 H       
  53 H53           -6.1404    -1.4118     1.3408 H       
  54 H54           -4.3041     0.0465     2.0082 H       
  55 H55           -5.2081     1.4883     1.4747 H       
  56 H56          -11.5741    -0.8261     3.2278 H       
  57 H57          -13.4406    -2.1792     2.3779 H       
  58 H58          -13.3362    -3.1641     0.1271 H       
  59 H59          -11.3631    -2.8096    -1.2949 H       
@<TRIPOS>BOND
   1    1    2 1
   2    1   19 ar
   3    1   20 ar
   4    2    3 1
   5    2    6 2
   6    3    4 1
   7    3   13 1
   8    4    5 2
   9    5    6 1
  10    5    7 1
  11    7    8 ar
  12    7   12 ar
  13    8    9 ar
  14    8   38 1
  15    9   10 ar
  16    9   39 1
  17   10   11 ar
  18   10   17 1
  19   11   12 ar
  20   11   40 1
  21   12   41 1
  22   13   14 1
  23   13   42 1
  24   13   43 1
  25   14   15 am
  26   14   16 2
  27   15   18 1
  28   15   28 1
  29   18   25 1
  30   18   44 1
  31   18   45 1
  32   19   23 ar
  33   19   46 1
  34   20   21 ar
  35   20   47 1
  36   21   22 ar
  37   21   48 1
  38   22   23 ar
  39   22   24 1
  40   23   49 1
  41   25   26 1
  42   25   50 1
  43   25   51 1
  44   26   27 1
  45   26   29 1
  46   27   28 1
  47   27   52 1
  48   27   53 1
  49   28   54 1
  50   28   55 1
  51   29   31 2
  52   29   30 1
  53   30   33 1
  54   31   32 1
  55   32   33 ar
  56   32   34 ar
  57   33   37 ar
  58   34   35 ar
  59   34   56 1
  60   35   36 ar
  61   35   57 1
  62   36   37 ar
  63   36   58 1
  64   37   59 1

#	End of record

