#	Name: ASD00170204
#	Creating user name:	WinNT
#	Creation time:	15. 06. 2019 18:31

#	Modifying user name:	WinNT
#	Modification time:	15. 06. 2019 18:31

#	Program:	/corina/corina34_cracker 3.40 0067  02.08.2006

@<TRIPOS>MOLECULE
ASD00170204
  36   38    0    0    0
SMALL
NO_CHARGES


@<TRIPOS>ATOM
   1 C1            -0.0139     1.3273     0.1874 C.2     
   2 C2             0.0134    -0.0089     0.2204 C.2     
   3 C3             1.3423    -0.5518    -0.0146 C.2     
   4 C4             2.2852     0.4256    -0.2203 C.2     
   5 S5             1.5843     1.9759    -0.1324 S.3     
   6 C6            -1.1828    -0.8477     0.4703 C.ar    
   7 C7            -2.0109    -0.5788     1.5591 C.ar    
   8 C8            -3.1234    -1.3634     1.7868 C.ar    
   9 C9            -3.4173    -2.4146     0.9372 C.ar    
  10 C10           -2.5989    -2.6865    -0.1447 C.ar    
  11 C11           -1.4875    -1.9053    -0.3860 C.ar    
  12 N12            3.6213     0.1841    -0.4649 N.pl3   
  13 C13            1.6330    -1.9400    -0.0294 C.2     
  14 C14            1.9051    -2.6524     1.2385 C.ar    
  15 O15            1.6586    -2.5456    -1.0856 O.2     
  16 C16            2.0816    -4.0368     1.2406 C.ar    
  17 C17            2.3350    -4.6950     2.4263 C.ar    
  18 C18            2.4142    -3.9856     3.6116 C.ar    
  19 C19            2.2402    -2.6130     3.6163 C.ar    
  20 C20            1.9920    -1.9421     2.4367 C.ar    
  21 C21           -4.0193    -1.0744     2.9636 C.3     
  22 F22           -5.0203    -0.1763     2.5781 F       
  23 F23           -4.6061    -2.2647     3.4063 F       
  24 F24           -3.2633    -0.5140     3.9987 F       
  25 H25           -0.9007     1.9263     0.3333 H       
  26 H26           -1.7822     0.2415     2.2233 H       
  27 H27           -4.2889    -3.0258     1.1193 H       
  28 H28           -2.8329    -3.5090    -0.8043 H       
  29 H29           -0.8493    -2.1184    -1.2308 H       
  30 H30            3.9653    -0.7220    -0.4266 H       
  31 H31            4.2167     0.9205    -0.6750 H       
  32 H32            2.0196    -4.5917     0.3161 H       
  33 H33            2.4714    -5.7663     2.4293 H       
  34 H34            2.6124    -4.5057     4.5371 H       
  35 H35            2.3033    -2.0651     4.5449 H       
  36 H36            1.8563    -0.8706     2.4417 H       
@<TRIPOS>BOND
   1    1    2 2
   2    1    5 1
   3    1   25 1
   4    2    3 1
   5    2    6 1
   6    3    4 2
   7    3   13 1
   8    4    5 1
   9    4   12 1
  10    6    7 ar
  11    6   11 ar
  12    7    8 ar
  13    7   26 1
  14    8    9 ar
  15    8   21 1
  16    9   10 ar
  17    9   27 1
  18   10   11 ar
  19   10   28 1
  20   11   29 1
  21   12   30 1
  22   12   31 1
  23   13   14 1
  24   13   15 2
  25   14   16 ar
  26   14   20 ar
  27   16   17 ar
  28   16   32 1
  29   17   18 ar
  30   17   33 1
  31   18   19 ar
  32   18   34 1
  33   19   20 ar
  34   19   35 1
  35   20   36 1
  36   21   22 1
  37   21   23 1
  38   21   24 1

#	End of record

