#	Name: ASD04590613
#	Creating user name:	WinNT
#	Creation time:	15. 06. 2019 20:51

#	Modifying user name:	WinNT
#	Modification time:	15. 06. 2019 20:51

#	Program:	/corina/corina34_cracker 3.40 0067  02.08.2006

@<TRIPOS>MOLECULE
ASD04590613
  32   33    0    0    0
SMALL
NO_CHARGES


@<TRIPOS>ATOM
   1 C1            -0.0166     1.3757     0.0096 C.ar    
   2 C2             0.0021    -0.0041     0.0020 C.ar    
   3 C3             1.2065    -0.6852    -0.0127 C.ar    
   4 C4             2.4025     0.0093    -0.0199 C.ar    
   5 C5             2.4014     1.3936    -0.0129 C.ar    
   6 C6             1.1838     2.0877     0.0020 C.ar    
   7 N7            -1.2714    -0.7586     0.0101 N.pl3   
   8 O8            -2.3329    -0.1616     0.0235 O.2     
   9 O9            -1.2577    -1.9765     0.0035 O.2     
  10 N10            1.1720     3.4558     0.0090 N.2     
  11 C11            0.3081     4.0966     0.7462 C.2     
  12 C12            0.2954     5.5666     0.7538 C.ar    
  13 C13            1.1909     7.6512    -0.0249 C.ar    
  14 C14            1.2061     6.2803    -0.0343 C.ar    
  15 C15           -0.6311     6.2564     1.5446 C.ar    
  16 C16           -0.6401     7.6274     1.5486 C.ar    
  17 C17            0.2710     8.3338     0.7672 C.ar    
  18 S18            0.2558    10.0957     0.7762 S.3     
  19 C19           -1.0858    10.4863     1.9329 C.3     
  20 O20            3.5758     2.0767    -0.0196 O.3     
  21 H21           -0.9587     1.9038     0.0169 H       
  22 H22            1.2127    -1.7652    -0.0182 H       
  23 H23            3.3386    -0.5291    -0.0307 H       
  24 H24           -0.3981     3.5474     1.3513 H       
  25 H25            1.8932     8.2025    -0.6326 H       
  26 H26            1.9200     5.7516    -0.6485 H       
  27 H27           -1.3382     5.7092     2.1504 H       
  28 H28           -1.3549     8.1602     2.1581 H       
  29 H29           -0.8564    10.0644     2.9114 H       
  30 H30           -1.1882    11.5681     2.0187 H       
  31 H31           -2.0192    10.0612     1.5637 H       
  32 H32            3.9082     2.2789    -0.9048 H       
@<TRIPOS>BOND
   1    1    2 ar
   2    1    6 ar
   3    1   21 1
   4    2    3 ar
   5    2    7 1
   6    3    4 ar
   7    3   22 1
   8    4    5 ar
   9    4   23 1
  10    5    6 ar
  11    5   20 1
  12    6   10 1
  13    7    8 2
  14    7    9 2
  15   10   11 2
  16   11   12 1
  17   11   24 1
  18   12   15 ar
  19   12   14 ar
  20   13   14 ar
  21   13   17 ar
  22   13   25 1
  23   14   26 1
  24   15   16 ar
  25   15   27 1
  26   16   17 ar
  27   16   28 1
  28   17   18 1
  29   18   19 1
  30   19   29 1
  31   19   30 1
  32   19   31 1
  33   20   32 1

#	End of record

