#	Name: ASD01913710
#	Creating user name:	WinNT
#	Creation time:	15. 06. 2019 20:02

#	Modifying user name:	WinNT
#	Modification time:	15. 06. 2019 20:02

#	Program:	/corina/corina34_cracker 3.40 0067  02.08.2006

@<TRIPOS>MOLECULE
ASD01913710
  31   33    0    0    0
SMALL
NO_CHARGES


@<TRIPOS>ATOM
   1 N1            -0.0170     1.4000     0.0097 N.2     
   2 N2             0.0021    -0.0041     0.0020 N.pl3   
   3 C3             1.2365     1.7998    -0.0001 C.2     
   4 N4             2.0346     0.7266    -0.0135 N.2     
   5 C5             1.3052    -0.3690    -0.0124 C.2     
   6 C6             1.8197    -1.7565    -0.0243 C.ar    
   7 C7             1.6912     3.2125     0.0032 C.ar    
   8 C8             0.7578     4.2467     0.0181 C.ar    
   9 C9             3.0530     3.5083    -0.0030 C.ar    
  10 C10            3.4713     4.8229    -0.0000 C.ar    
  11 C11            2.5396     5.8485     0.0096 C.ar    
  12 C12            1.1849     5.5589     0.0211 C.ar    
  13 F13            2.9535     7.1345     0.0134 F       
  14 C14            3.1943    -1.9936    -0.0388 C.ar    
  15 C15            0.9322    -2.8327    -0.0154 C.ar    
  16 C16            1.4182    -4.1240    -0.0266 C.ar    
  17 C17            3.6678    -3.2895    -0.0499 C.ar    
  18 C18            2.7825    -4.3526    -0.0467 C.ar    
  19 C19            0.1762     6.6784     0.0310 C.3     
  20 H20           -0.7668    -0.5955     0.0065 H       
  21 H21           -0.2984     4.0217     0.0271 H       
  22 H22            3.7799     2.7095    -0.0098 H       
  23 H23            4.5265     5.0530    -0.0048 H       
  24 H24            3.8864    -1.1645    -0.0416 H       
  25 H25           -0.1330    -2.6555     0.0007 H       
  26 H26            0.7322    -4.9581    -0.0194 H       
  27 H27            4.7318    -3.4744    -0.0614 H       
  28 H28            3.1580    -5.3652    -0.0551 H       
  29 H29           -0.0759     6.9494    -0.9943 H       
  30 H30           -0.7237     6.3521     0.5523 H       
  31 H31            0.5987     7.5436     0.5420 H       
@<TRIPOS>BOND
   1    1    2 1
   2    1    3 2
   3    2    5 1
   4    2   20 1
   5    3    4 1
   6    3    7 1
   7    4    5 2
   8    5    6 1
   9    6   14 ar
  10    6   15 ar
  11    7    8 ar
  12    7    9 ar
  13    8   12 ar
  14    8   21 1
  15    9   10 ar
  16    9   22 1
  17   10   11 ar
  18   10   23 1
  19   11   12 ar
  20   11   13 1
  21   12   19 1
  22   14   17 ar
  23   14   24 1
  24   15   16 ar
  25   15   25 1
  26   16   18 ar
  27   16   26 1
  28   17   18 ar
  29   17   27 1
  30   18   28 1
  31   19   29 1
  32   19   30 1
  33   19   31 1

#	End of record

