#	Name: ASD04590333
#	Creating user name:	WinNT
#	Creation time:	15. 06. 2019 20:50

#	Modifying user name:	WinNT
#	Modification time:	15. 06. 2019 20:50

#	Program:	/corina/corina34_cracker 3.40 0067  02.08.2006

@<TRIPOS>MOLECULE
ASD04590333
  42   45    0    0    0
SMALL
NO_CHARGES


@<TRIPOS>ATOM
   1 C1            -0.0167     1.3834     0.0096 C.ar    
   2 C2             0.0021    -0.0041     0.0020 C.ar    
   3 C3             1.1863    -0.6848    -0.0125 C.ar    
   4 C4             2.3948     0.0191    -0.0203 C.ar    
   5 C5             2.3756     1.4250    -0.0131 C.ar    
   6 C6             1.1624     2.0987     0.0022 C.ar    
   7 N7             3.6952    -0.3636    -0.0349 N.2     
   8 C8             4.4665     0.6967    -0.0371 C.2     
   9 N9             3.6970     1.8290    -0.0239 N.pl3   
  10 C10            5.9437     0.6731    -0.0516 C.2     
  11 C11            6.7566    -0.4840    -0.0658 C.2     
  12 C12            8.0504    -0.0799    -0.0770 C.2     
  13 N13            8.0626     1.2789    -0.0702 N.pl3   
  14 N14            6.7358     1.7273    -0.0593 N.2     
  15 N15            6.3044    -1.8133    -0.0672 N.am    
  16 C16            7.1924    -2.8271    -0.0816 C.2     
  17 C17            6.7164    -4.2266    -0.0831 C.ar    
  18 O18            8.3849    -2.5906    -0.0933 O.2     
  19 C19            6.0281    -6.1888    -1.2851 C.ar    
  20 C20            5.8247    -6.8484    -0.0860 C.ar    
  21 C21            6.0594    -6.2020     1.1147 C.ar    
  22 C22            6.5036    -4.8960     1.1232 C.ar    
  23 C23            6.7591    -4.1937     2.4318 C.3     
  24 C24            6.4722    -4.8827    -1.2908 C.ar    
  25 C25            6.6927    -4.1656    -2.5978 C.3     
  26 H26           -0.9614     1.9069     0.0170 H       
  27 H27           -0.9290    -0.5513     0.0080 H       
  28 H28            1.1893    -1.7648    -0.0177 H       
  29 H29            1.1417     3.1785     0.0075 H       
  30 H30            4.0192     2.7439    -0.0221 H       
  31 H31            8.9176    -0.7236    -0.0888 H       
  32 H32            8.8531     1.8410    -0.0754 H       
  33 H33            5.3530    -2.0020    -0.0579 H       
  34 H34            5.8435    -6.6991    -2.2189 H       
  35 H35            5.4766    -7.8707    -0.0871 H       
  36 H36            5.8986    -6.7225     2.0472 H       
  37 H37            5.8480    -3.6932     2.7595 H       
  38 H38            7.0630    -4.9233     3.1824 H       
  39 H39            7.5512    -3.4566     2.3000 H       
  40 H40            7.7188    -4.3233    -2.9300 H       
  41 H41            6.0041    -4.5561    -3.3471 H       
  42 H42            6.5148    -3.0989    -2.4615 H       
@<TRIPOS>BOND
   1    1    2 ar
   2    1    6 ar
   3    1   26 1
   4    2    3 ar
   5    2   27 1
   6    3    4 ar
   7    3   28 1
   8    4    5 ar
   9    4    7 1
  10    5    6 ar
  11    5    9 1
  12    6   29 1
  13    7    8 2
  14    8    9 1
  15    8   10 1
  16    9   30 1
  17   10   11 1
  18   10   14 2
  19   11   12 2
  20   11   15 1
  21   12   13 1
  22   12   31 1
  23   13   14 1
  24   13   32 1
  25   15   16 am
  26   15   33 1
  27   16   17 1
  28   16   18 2
  29   17   22 ar
  30   17   24 ar
  31   19   20 ar
  32   19   24 ar
  33   19   34 1
  34   20   21 ar
  35   20   35 1
  36   21   22 ar
  37   21   36 1
  38   22   23 1
  39   23   37 1
  40   23   38 1
  41   23   39 1
  42   24   25 1
  43   25   40 1
  44   25   41 1
  45   25   42 1

#	End of record

