#	Name: ASD01901407
#	Creating user name:	WinNT
#	Creation time:	15. 06. 2019 19:53

#	Modifying user name:	WinNT
#	Modification time:	15. 06. 2019 19:53

#	Program:	/corina/corina34_cracker 3.40 0067  02.08.2006

@<TRIPOS>MOLECULE
ASD01901407
  37   40    0    0    0
SMALL
NO_CHARGES


@<TRIPOS>ATOM
   1 C1            -0.0168     1.3891     0.0097 C.ar    
   2 C2             1.1698     2.0933     0.0021 C.ar    
   3 C3             2.3788     1.4169    -0.0135 C.ar    
   4 C4             2.4022     0.0318    -0.0216 C.ar    
   5 C5             1.2202    -0.6802    -0.0137 C.ar    
   6 C6             0.0021    -0.0041     0.0020 C.ar    
   7 C7            -1.2718    -0.7657     0.0106 C.2     
   8 N8            -3.2656    -1.3673     1.1229 N.2     
   9 C9            -2.1419    -0.6929     1.1201 C.2     
  10 C10           -1.6218    -1.5429    -1.0579 C.2     
  11 N11           -2.7993    -2.2292    -1.0177 N.pl3   
  12 C12           -3.6148    -2.1365     0.0807 C.2     
  13 C13           -3.4129    -3.0694    -1.9073 C.2     
  14 C14           -4.5729    -3.4664    -1.3424 C.2     
  15 N15           -4.6794    -2.8948    -0.1392 N.2     
  16 C16           -5.5791    -4.4003    -1.9641 C.3     
  17 O17           -5.1178    -4.8073    -3.2539 O.3     
  18 C18           -5.9130    -5.6556    -3.9531 C.ar    
  19 C19           -5.5160    -6.0913    -5.2106 C.ar    
  20 N20           -7.0565    -6.0639    -3.4283 N.ar    
  21 C21           -7.8592    -6.8883    -4.0738 C.ar    
  22 C22           -7.5304    -7.3572    -5.3304 C.ar    
  23 C23           -6.3364    -6.9566    -5.9135 C.ar    
  24 F24            3.5384     2.1102    -0.0213 F       
  25 H25           -0.9588     1.9171     0.0260 H       
  26 H26            1.1561     3.1732     0.0081 H       
  27 H27            3.3469    -0.4915    -0.0345 H       
  28 H28            1.2393    -1.7600    -0.0204 H       
  29 H29           -1.8803    -0.0796     1.9696 H       
  30 H30           -0.9758    -1.6121    -1.9207 H       
  31 H31           -3.0394    -3.3599    -2.8781 H       
  32 H32           -5.7018    -5.2774    -1.3287 H       
  33 H33           -6.5360    -3.8883    -2.0654 H       
  34 H34           -4.5798    -5.7591    -5.6344 H       
  35 H35           -8.7850    -7.2006    -3.6136 H       
  36 H36           -8.1932    -8.0317    -5.8519 H       
  37 H37           -6.0536    -7.3123    -6.8933 H       
@<TRIPOS>BOND
   1    1    6 ar
   2    1    2 ar
   3    1   25 1
   4    2    3 ar
   5    2   26 1
   6    3    4 ar
   7    3   24 1
   8    4    5 ar
   9    4   27 1
  10    5    6 ar
  11    5   28 1
  12    6    7 1
  13    7   10 2
  14    7    9 1
  15    8    9 2
  16    8   12 1
  17    9   29 1
  18   10   11 1
  19   10   30 1
  20   11   13 1
  21   11   12 1
  22   12   15 2
  23   13   14 2
  24   13   31 1
  25   14   15 1
  26   14   16 1
  27   16   17 1
  28   16   32 1
  29   16   33 1
  30   17   18 1
  31   18   20 ar
  32   18   19 ar
  33   19   23 ar
  34   19   34 1
  35   20   21 ar
  36   21   22 ar
  37   21   35 1
  38   22   23 ar
  39   22   36 1
  40   23   37 1

#	End of record

