#	Name: ASD01910984
#	Creating user name:	WinNT
#	Creation time:	15. 06. 2019 19:56

#	Modifying user name:	WinNT
#	Modification time:	15. 06. 2019 19:56

#	Program:	/corina/corina34_cracker 3.40 0067  02.08.2006

@<TRIPOS>MOLECULE
ASD01910984
  57   61    0    0    0
SMALL
NO_CHARGES


@<TRIPOS>ATOM
   1 N1             0.2499     1.1177    -0.0861 N.3     
   2 C2             0.0780    -0.3049     0.2371 C.3     
   3 C3            -1.4138    -0.6094     0.4105 C.3     
   4 N4            -2.1264    -0.1545    -0.7931 N.am    
   5 C5            -1.8973     1.2215    -1.2591 C.3     
   6 C6            -0.3864     1.4539    -1.3667 C.3     
   7 C7            -2.9666    -0.9771    -1.4519 C.2     
   8 C8            -3.7700    -0.4634    -2.5790 C.ar    
   9 C9            -3.9542    -1.2485    -3.7215 C.ar    
  10 C10           -4.7030    -0.7740    -4.7766 C.ar    
  11 C11           -5.2797     0.4863    -4.7138 C.ar    
  12 C12           -5.1013     1.2842    -3.5716 C.ar    
  13 C13           -4.3498     0.8022    -2.5021 C.ar    
  14 C14           -5.6949     2.5856    -3.5042 C.1     
  15 O15           -3.0630    -2.1421    -1.1179 O.2     
  16 C16           -6.1815     3.6526    -3.4489 C.1     
  17 C17           -6.7752     4.9540    -3.3814 C.ar    
  18 N18           -6.6017     5.7034    -2.2968 N.ar    
  19 C19           -7.1314     6.9053    -2.1969 C.ar    
  20 C20           -7.8923     7.4342    -3.2232 C.ar    
  21 C21           -8.0995     6.6863    -4.3749 C.ar    
  22 C22           -7.5281     5.4299    -4.4586 C.ar    
  23 C23            1.5910     1.4675    -0.0909 C.ar    
  24 C24            2.0062     2.7338     0.3803 C.ar    
  25 C25            3.3945     3.0260     0.3475 C.ar    
  26 C26            4.2613     2.0347    -0.1520 C.ar    
  27 N27            3.7565     0.8932    -0.5626 N.ar    
  28 N28            2.5052     0.6214    -0.5308 N.ar    
  29 O29           -6.0152     0.9480    -5.7553 O.3     
  30 C30           -6.1547     0.0837    -6.8847 C.3     
  31 Cl31           5.9726     2.3173    -0.2249 Cl      
  32 C32            1.1105     3.6908     0.8685 C.ar    
  33 C33            1.5864     4.8917     1.3059 C.ar    
  34 C34            2.9489     5.1793     1.2741 C.ar    
  35 C35            3.8490     4.2693     0.8046 C.ar    
  36 H36            0.4817    -0.9132    -0.5723 H       
  37 H37            0.6059    -0.5340     1.1629 H       
  38 H38           -1.5563    -1.6826     0.5367 H       
  39 H39           -1.7963    -0.0812     1.2839 H       
  40 H40           -2.3594     1.3588    -2.2368 H       
  41 H41           -2.3262     1.9257    -0.5462 H       
  42 H42           -0.1954     2.5004    -1.6042 H       
  43 H43            0.0237     0.8211    -2.1538 H       
  44 H44           -3.5076    -2.2302    -3.7774 H       
  45 H45           -4.8413    -1.3856    -5.6560 H       
  46 H46           -4.2087     1.4105    -1.6209 H       
  47 H47           -6.9694     7.4857    -1.3007 H       
  48 H48           -8.3222     8.4205    -3.1298 H       
  49 H49           -8.6903     7.0791    -5.1891 H       
  50 H50           -7.6687     4.8218    -5.3399 H       
  51 H51           -6.7646     0.5733    -7.6439 H       
  52 H52           -5.1701    -0.1376    -7.2968 H       
  53 H53           -6.6358    -0.8441    -6.5750 H       
  54 H54            0.0516     3.4807     0.8983 H       
  55 H55            0.8958     5.6316     1.6827 H       
  56 H56            3.2978     6.1387     1.6266 H       
  57 H57            4.9028     4.5049     0.7857 H       
@<TRIPOS>BOND
   1    1    2 1
   2    1   23 1
   3    1    6 1
   4    2    3 1
   5    2   36 1
   6    2   37 1
   7    3    4 1
   8    3   38 1
   9    3   39 1
  10    4    5 1
  11    4    7 am
  12    5    6 1
  13    5   40 1
  14    5   41 1
  15    6   42 1
  16    6   43 1
  17    7    8 1
  18    7   15 2
  19    8    9 ar
  20    8   13 ar
  21    9   10 ar
  22    9   44 1
  23   10   11 ar
  24   10   45 1
  25   11   12 ar
  26   11   29 1
  27   12   13 ar
  28   12   14 1
  29   13   46 1
  30   14   16 3
  31   16   17 1
  32   17   18 ar
  33   17   22 ar
  34   18   19 ar
  35   19   20 ar
  36   19   47 1
  37   20   21 ar
  38   20   48 1
  39   21   22 ar
  40   21   49 1
  41   22   50 1
  42   23   24 ar
  43   23   28 ar
  44   24   25 ar
  45   24   32 ar
  46   25   26 ar
  47   25   35 ar
  48   26   27 ar
  49   26   31 1
  50   27   28 ar
  51   29   30 1
  52   30   51 1
  53   30   52 1
  54   30   53 1
  55   32   33 ar
  56   32   54 1
  57   33   34 ar
  58   33   55 1
  59   34   35 ar
  60   34   56 1
  61   35   57 1

#	End of record

