#	Name: ASD05490152
#	Creating user name:	WinNT
#	Creation time:	15. 06. 2019 21:01

#	Modifying user name:	WinNT
#	Modification time:	15. 06. 2019 21:01

#	Program:	/corina/corina34_cracker 3.40 0067  02.08.2006

@<TRIPOS>MOLECULE
ASD05490152
  81   85    0    0    0
SMALL
NO_CHARGES


@<TRIPOS>ATOM
   1 N1             0.0548     1.2499     0.1916 N.ar    
   2 C2             1.1595     1.9791     0.1608 C.ar    
   3 C3             2.4046     1.3773     0.0798 C.ar    
   4 C4             2.4855    -0.0127     0.0307 C.ar    
   5 C5             1.3031    -0.7471     0.0652 C.ar    
   6 C6             0.0924    -0.0747     0.1468 C.ar    
   7 O7             1.0710     3.3322     0.2086 O.3     
   8 N8            -1.0945    -0.7977     0.1819 N.pl3   
   9 N9             3.7227    -0.6540    -0.0516 N.am    
  10 C10            4.2479    -1.0679    -1.3551 C.3     
  11 C11            5.0084     0.0753    -1.9763 C.ar    
  12 C12            6.3730     0.1904    -1.7869 C.ar    
  13 C13            4.3464     1.0193    -2.7488 C.ar    
  14 N14            7.0491     1.1851    -2.3251 N.ar    
  15 C15            6.4535     2.1105    -3.0656 C.ar    
  16 C16            5.0814     2.0534    -3.3018 C.ar    
  17 C17           -0.2403     3.8940     0.2911 C.3     
  18 C18           -0.1395     5.4201     0.3351 C.3     
  19 C19           -1.5451     6.0278     0.2977 C.3     
  20 C20           -1.4379     7.5499     0.4215 C.3     
  21 C21            7.2554     3.2127    -3.6510 C.ar    
  22 O22           -0.7537     7.8811     1.6316 O.3     
  23 C23            0.5825     7.3794     1.7024 C.3     
  24 C24            0.5566     5.8504     1.6300 C.3     
  25 C25            8.6290     3.2752    -3.4238 C.ar    
  26 C26            6.6390     4.1861    -4.4350 C.ar    
  27 C27            7.3902     5.2089    -4.9776 C.ar    
  28 C28            8.7524     5.2688    -4.7448 C.ar    
  29 C29            9.3702     4.3026    -3.9714 C.ar    
  30 C30            9.5672     6.3878    -5.3404 C.3     
  31 N31            9.6051     7.5184    -4.4032 N.3     
  32 C32           10.5811     8.5339    -4.8395 C.3     
  33 C33            9.8200     9.8690    -4.9797 C.3     
  34 C34            8.5804     9.6618    -4.0701 C.3     
  35 C35            8.2773     8.1589    -4.2918 C.3     
  36 C36            4.4341    -0.8923     1.0681 C.2     
  37 O37            5.5109    -1.4504     0.9964 O.2     
  38 O38            3.9514    -0.5118     2.2660 O.3     
  39 C39            4.0638    -0.2985     4.6893 C.3     
  40 C40            4.7713    -0.8008     3.4290 C.3     
  41 N41            1.3373    -2.2262     0.0151 N.pl3   
  42 O42            1.4850    -2.8670     1.0403 O.2     
  43 O43            1.2179    -2.8023    -1.0514 O.2     
  44 H44            3.3016     1.9782     0.0547 H       
  45 H45           -1.0732    -1.7669     0.1494 H       
  46 H46           -1.9440    -0.3329     0.2389 H       
  47 H47            4.9154    -1.9196    -1.2240 H       
  48 H48            3.4212    -1.3510    -2.0066 H       
  49 H49            6.8917    -0.5446    -1.1894 H       
  50 H50            3.2816     0.9484    -2.9149 H       
  51 H51            4.5978     2.8074    -3.9052 H       
  52 H52           -0.8200     3.5933    -0.5816 H       
  53 H53           -0.7327     3.5362     1.1953 H       
  54 H54            0.4331     5.7726    -0.5227 H       
  55 H55           -2.0274     5.7721    -0.6457 H       
  56 H56           -2.1338     5.6354     1.1269 H       
  57 H57           -0.8837     7.9457    -0.4295 H       
  58 H58           -2.4374     7.9845     0.4385 H       
  59 H59            1.1632     7.7730     0.8681 H       
  60 H60            1.0385     7.6912     2.6420 H       
  61 H61            0.0103     5.4545     2.4861 H       
  62 H62            1.5772     5.4679     1.6394 H       
  63 H63            9.1124     2.5214    -2.8201 H       
  64 H64            5.5757     4.1399    -4.6180 H       
  65 H65            6.9135     5.9638    -5.5853 H       
  66 H66           10.4341     4.3542    -3.7929 H       
  67 H67           10.5822     6.0378    -5.5287 H       
  68 H68            9.1136     6.7083    -6.2782 H       
  69 H69           11.3705     8.6336    -4.0946 H       
  70 H70           11.0089     8.2483    -5.8004 H       
  71 H71           10.4279    10.6989    -4.6195 H       
  72 H72            9.5162    10.0327    -6.0136 H       
  73 H73            8.8241     9.8612    -3.0266 H       
  74 H74            7.7462    10.2811    -4.3999 H       
  75 H75            7.7096     8.0180    -5.2115 H       
  76 H76            7.7302     7.7527    -3.4410 H       
  77 H77            3.9070     0.7774     4.6135 H       
  78 H78            3.1012    -0.7999     4.7898 H       
  79 H79            4.6793    -0.5154     5.5623 H       
  80 H80            4.9281    -1.8767     3.5047 H       
  81 H81            5.7339    -0.2994     3.3285 H       
@<TRIPOS>BOND
   1    1    2 ar
   2    1    6 ar
   3    2    3 ar
   4    2    7 1
   5    3    4 ar
   6    3   44 1
   7    4    5 ar
   8    4    9 1
   9    5    6 ar
  10    5   41 1
  11    6    8 1
  12    7   17 1
  13    8   45 1
  14    8   46 1
  15    9   10 1
  16    9   36 am
  17   10   11 1
  18   10   47 1
  19   10   48 1
  20   11   12 ar
  21   11   13 ar
  22   12   14 ar
  23   12   49 1
  24   13   16 ar
  25   13   50 1
  26   14   15 ar
  27   15   16 ar
  28   15   21 1
  29   16   51 1
  30   17   18 1
  31   17   52 1
  32   17   53 1
  33   18   19 1
  34   18   24 1
  35   18   54 1
  36   19   20 1
  37   19   55 1
  38   19   56 1
  39   20   22 1
  40   20   57 1
  41   20   58 1
  42   21   25 ar
  43   21   26 ar
  44   22   23 1
  45   23   24 1
  46   23   59 1
  47   23   60 1
  48   24   61 1
  49   24   62 1
  50   25   29 ar
  51   25   63 1
  52   26   27 ar
  53   26   64 1
  54   27   28 ar
  55   27   65 1
  56   28   29 ar
  57   28   30 1
  58   29   66 1
  59   30   31 1
  60   30   67 1
  61   30   68 1
  62   31   32 1
  63   31   35 1
  64   32   33 1
  65   32   69 1
  66   32   70 1
  67   33   34 1
  68   33   71 1
  69   33   72 1
  70   34   35 1
  71   34   73 1
  72   34   74 1
  73   35   75 1
  74   35   76 1
  75   36   37 2
  76   36   38 1
  77   38   40 1
  78   39   40 1
  79   39   77 1
  80   39   78 1
  81   39   79 1
  82   40   80 1
  83   40   81 1
  84   41   42 2
  85   41   43 2

#	End of record

