#	Name: ASD01940353
#	Creating user name:	WinNT
#	Creation time:	15. 06. 2019 20:12

#	Modifying user name:	WinNT
#	Modification time:	15. 06. 2019 20:12

#	Program:	/corina/corina34_cracker 3.40 0067  02.08.2006

@<TRIPOS>MOLECULE
ASD01940353
  45   48    0    0    0
SMALL
NO_CHARGES


@<TRIPOS>ATOM
   1 C1            -0.3056     1.7146    -0.3074 C.3     
   2 C2            -0.3893     0.1877    -0.3589 C.3     
   3 C3             0.9720     0.8757    -0.2380 C.3     
   4 S4            -0.6284     2.6234    -1.8437 S.o2    
   5 O5             0.3469     2.3039    -2.8265 O.2     
   6 O6            -2.0151     2.6022    -2.1537 O.2     
   7 N7            -0.3197     4.2048    -1.4611 N.am    
   8 C8             0.9598     4.5856    -1.0352 C.ar    
   9 C9             1.1069     5.5761    -0.0648 C.ar    
  10 C10            2.3769     5.9491     0.3537 C.ar    
  11 C11            3.4935     5.3365    -0.1935 C.ar    
  12 C12            3.3447     4.3536    -1.1565 C.ar    
  13 C13            2.0816     3.9742    -1.5736 C.ar    
  14 N14           -0.0241     6.1937     0.4860 N.pl3   
  15 C15            0.1014     7.4162     1.1500 C.ar    
  16 C16            0.3230     8.5831     0.4229 C.ar    
  17 C17            0.4476     9.7911     1.0780 C.ar    
  18 C18            0.3509     9.8420     2.4683 C.ar    
  19 C19            0.1287     8.6726     3.1930 C.ar    
  20 C20           -0.0006     7.4675     2.5347 C.ar    
  21 C21            0.7078    12.3152     2.4606 C.ar    
  22 C22            0.4850    11.1393     3.1749 C.ar    
  23 C23            0.3895    11.2025     4.5678 C.ar    
  24 C24            0.5212    12.4375     5.1796 C.ar    
  25 C25            0.7410    13.5584     4.4003 C.ar    
  26 N26            0.8266    13.4677     3.0870 N.ar    
  27 F27            0.4164     8.5323    -0.9239 F       
  28 F28            4.7293     5.6999     0.2136 F       
  29 F29            2.5245     6.9086     1.2933 F       
  30 H30           -0.6353     2.2061     0.6079 H       
  31 H31           -0.7740    -0.3253     0.5225 H       
  32 H32           -0.6383    -0.2706    -1.3160 H       
  33 H33            1.6185     0.8699    -1.1155 H       
  34 H34            1.4828     0.8152     0.7230 H       
  35 H35           -1.0246     4.8674    -1.5317 H       
  36 H36            4.2171     3.8789    -1.5807 H       
  37 H37            1.9693     3.2039    -2.3222 H       
  38 H38           -0.8941     5.7723     0.4062 H       
  39 H39            0.6201    10.6962     0.5146 H       
  40 H40            0.0537     8.7105     4.2698 H       
  41 H41           -0.1768     6.5621     3.0965 H       
  42 H42            0.7882    12.2803     1.3842 H       
  43 H43            0.2170    10.3107     5.1520 H       
  44 H44            0.4527    12.5245     6.2539 H       
  45 H45            0.8439    14.5234     4.8743 H       
@<TRIPOS>BOND
   1    1    2 1
   2    1    3 1
   3    1    4 1
   4    1   30 1
   5    2    3 1
   6    2   31 1
   7    2   32 1
   8    3   33 1
   9    3   34 1
  10    4    5 2
  11    4    6 2
  12    4    7 am
  13    7    8 1
  14    7   35 1
  15    8    9 ar
  16    8   13 ar
  17    9   10 ar
  18    9   14 1
  19   10   11 ar
  20   10   29 1
  21   11   12 ar
  22   11   28 1
  23   12   13 ar
  24   12   36 1
  25   13   37 1
  26   14   15 1
  27   14   38 1
  28   15   16 ar
  29   15   20 ar
  30   16   17 ar
  31   16   27 1
  32   17   18 ar
  33   17   39 1
  34   18   19 ar
  35   18   22 1
  36   19   20 ar
  37   19   40 1
  38   20   41 1
  39   21   22 ar
  40   21   26 ar
  41   21   42 1
  42   22   23 ar
  43   23   24 ar
  44   23   43 1
  45   24   25 ar
  46   24   44 1
  47   25   26 ar
  48   25   45 1

#	End of record

