#	Name: ASD01680152
#	Creating user name:	WinNT
#	Creation time:	15. 06. 2019 19:22

#	Modifying user name:	WinNT
#	Modification time:	15. 06. 2019 19:22

#	Program:	/corina/corina34_cracker 3.40 0067  02.08.2006

@<TRIPOS>MOLECULE
ASD01680152
  84   87    0    0    0
SMALL
NO_CHARGES


@<TRIPOS>ATOM
   1 C1             0.5011     1.5478     0.2839 C.2     
   2 C2             0.5157     0.0470     0.1474 C.3     
   3 C3             0.5924    -0.5907     1.5360 C.3     
   4 O4             1.4679     2.1937    -0.0447 O.2     
   5 O5            -0.5879     2.1673     0.7655 O.3     
   6 N6            -0.7085    -0.3940    -0.5256 N.am    
   7 S7            -1.0622     0.1579    -2.0464 S.o2    
   8 O8            -2.2798    -0.4678    -2.4273 O.2     
   9 O9            -0.8907     1.5681    -2.0114 O.2     
  10 C10            0.1787    -0.4675    -3.1298 C.ar    
  11 C11            0.2328    -1.8198    -3.4114 C.ar    
  12 C12            1.2063    -2.3104    -4.2613 C.ar    
  13 C13            2.1254    -1.4487    -4.8301 C.ar    
  14 C14            2.0708    -0.0962    -4.5493 C.ar    
  15 C15            1.0946     0.3950    -3.7027 C.ar    
  16 C16            1.0318     1.8701    -3.4006 C.3     
  17 C17            3.1874    -1.9837    -5.7559 C.3     
  18 C18           -0.7692    -2.7592    -2.7913 C.3     
  19 N19            1.6807    -0.3602    -0.6420 N.am    
  20 C20            2.9230    -0.0601    -0.2140 C.2     
  21 O21            3.0764     0.5470     0.8246 O.2     
  22 C22            4.1214    -0.4791    -1.0261 C.3     
  23 O23            5.3156    -0.0489    -0.3696 O.3     
  24 N24            7.6425     1.7148    -1.1710 N.am    
  25 C25            6.9503     0.7334    -2.0262 C.3     
  26 C26            6.5167    -0.3978    -1.0607 C.3     
  27 C27            7.7226    -0.4548    -0.0861 C.3     
  28 C28            8.1476     1.0247     0.0249 C.3     
  29 C29            9.6733     1.1251     0.0782 C.3     
  30 N30           10.1557     0.5659     1.3434 N.pl3   
  31 C31           11.5211     0.4542     1.5783 C.ar    
  32 C32           12.4244     0.8755     0.6074 C.ar    
  33 C33           13.7802     0.7586     0.8543 C.ar    
  34 C34           14.1890     0.2223     2.0684 C.ar    
  35 C35           13.2380    -0.1754     2.9863 C.ar    
  36 N36           11.9506    -0.0470     2.7259 N.ar    
  37 C37            7.7925     3.0262    -1.4433 C.2     
  38 O38            8.4528     3.7270    -0.7058 O.2     
  39 C39            7.1399     3.6218    -2.6641 C.3     
  40 C40            7.4602     5.0925    -2.7379 C.ar    
  41 C41            8.5864     5.5214    -3.4151 C.ar    
  42 C42            8.8802     6.8705    -3.4828 C.ar    
  43 C43            8.0477     7.7906    -2.8736 C.ar    
  44 C44            6.9210     7.3618    -2.1972 C.ar    
  45 C45            6.6248     6.0130    -2.1332 C.ar    
  46 H46           -0.2744    -0.2877     2.1233 H       
  47 H47            0.6029    -1.6762     1.4372 H       
  48 H48            1.5032    -0.2626     2.0367 H       
  49 H49           -0.5241     3.1220     0.9052 H       
  50 H50           -1.3120    -1.0092    -0.0805 H       
  51 H51            1.2490    -3.3670    -4.4807 H       
  52 H52            2.7891     0.5770    -4.9934 H       
  53 H53            1.4706     2.0593    -2.4210 H       
  54 H54            1.5873     2.4204    -4.1600 H       
  55 H55           -0.0079     2.1974    -3.4024 H       
  56 H56            2.8156    -1.9720    -6.7805 H       
  57 H57            4.0785    -1.3600    -5.6856 H       
  58 H58            3.4360    -3.0061    -5.4713 H       
  59 H59           -1.6391    -2.8441    -3.4426 H       
  60 H60           -0.3148    -3.7415    -2.6621 H       
  61 H61           -1.0785    -2.3715    -1.8207 H       
  62 H62            1.5580    -0.8458    -1.4727 H       
  63 H63            4.1319    -1.5645    -1.1248 H       
  64 H64            4.0668    -0.0247    -2.0153 H       
  65 H65            6.0773     1.1876    -2.4948 H       
  66 H66            7.6300     0.3450    -2.7846 H       
  67 H67            6.3987    -1.3417    -1.5928 H       
  68 H68            7.4152    -0.8416     0.8855 H       
  69 H69            8.5287    -1.0572    -0.5048 H       
  70 H70            7.7132     1.4690     0.9204 H       
  71 H71           10.1035     0.5668    -0.7533 H       
  72 H72            9.9713     2.1712     0.0062 H       
  73 H73            9.5221     0.2736     2.0173 H       
  74 H74           12.0717     1.2878    -0.3264 H       
  75 H75           14.5047     1.0768     0.1193 H       
  76 H76           15.2404     0.1171     2.2919 H       
  77 H77           13.5516    -0.5930     3.9317 H       
  78 H78            7.5160     3.1227    -3.5572 H       
  79 H79            6.0600     3.4879    -2.6006 H       
  80 H80            9.2369     4.8026    -3.8910 H       
  81 H81            9.7605     7.2056    -4.0112 H       
  82 H82            8.2776     8.8446    -2.9259 H       
  83 H83            6.2707     8.0806    -1.7210 H       
  84 H84            5.7426     5.6782    -1.6079 H       
@<TRIPOS>BOND
   1    1    2 1
   2    1    4 2
   3    1    5 1
   4    2    3 1
   5    2    6 1
   6    2   19 1
   7    3   46 1
   8    3   47 1
   9    3   48 1
  10    5   49 1
  11    6    7 am
  12    6   50 1
  13    7    8 2
  14    7    9 2
  15    7   10 1
  16   10   11 ar
  17   10   15 ar
  18   11   12 ar
  19   11   18 1
  20   12   13 ar
  21   12   51 1
  22   13   14 ar
  23   13   17 1
  24   14   15 ar
  25   14   52 1
  26   15   16 1
  27   16   53 1
  28   16   54 1
  29   16   55 1
  30   17   56 1
  31   17   57 1
  32   17   58 1
  33   18   59 1
  34   18   60 1
  35   18   61 1
  36   19   20 am
  37   19   62 1
  38   20   21 2
  39   20   22 1
  40   22   23 1
  41   22   63 1
  42   22   64 1
  43   23   26 1
  44   24   25 1
  45   24   28 1
  46   24   37 am
  47   25   26 1
  48   25   65 1
  49   25   66 1
  50   26   27 1
  51   26   67 1
  52   27   28 1
  53   27   68 1
  54   27   69 1
  55   28   29 1
  56   28   70 1
  57   29   30 1
  58   29   71 1
  59   29   72 1
  60   30   31 1
  61   30   73 1
  62   31   32 ar
  63   31   36 ar
  64   32   33 ar
  65   32   74 1
  66   33   34 ar
  67   33   75 1
  68   34   35 ar
  69   34   76 1
  70   35   36 ar
  71   35   77 1
  72   37   38 2
  73   37   39 1
  74   39   40 1
  75   39   78 1
  76   39   79 1
  77   40   41 ar
  78   40   45 ar
  79   41   42 ar
  80   41   80 1
  81   42   43 ar
  82   42   81 1
  83   43   44 ar
  84   43   82 1
  85   44   45 ar
  86   44   83 1
  87   45   84 1

#	End of record

