#	Name: ASD02508168
#	Creating user name:	WinNT
#	Creation time:	15. 06. 2019 20:23

#	Modifying user name:	WinNT
#	Modification time:	15. 06. 2019 20:23

#	Program:	/corina/corina34_cracker 3.40 0067  02.08.2006

@<TRIPOS>MOLECULE
ASD02508168
  48   51    0    0    0
SMALL
NO_CHARGES


@<TRIPOS>ATOM
   1 C1            -0.0168     1.3911     0.0097 C.ar    
   2 C2             0.0021    -0.0041     0.0020 C.ar    
   3 C3            -1.1670    -0.7436     0.0096 C.ar    
   4 C4            -2.3892    -0.1001     0.0251 C.ar    
   5 C5            -2.4296     1.2837     0.0330 C.ar    
   6 C6            -1.2699     2.0227     0.0305 C.ar    
   7 S7            -3.8842    -1.0326     0.0343 S.o2    
   8 N8            -4.2848    -1.3010     1.6186 N.am    
   9 C9            -5.1353    -0.3524     2.3534 C.3     
  10 C10           -6.2793    -1.1322     3.0103 C.3     
  11 N11           -5.7219    -2.2232     3.8207 N.3     
  12 C12           -4.9960    -3.1898     2.9861 C.3     
  13 C13           -3.8044    -2.4975     2.3264 C.3     
  14 C14           -6.7727    -2.8878     4.6030 C.3     
  15 C15           -6.2177    -4.1430     5.2256 C.ar    
  16 C16           -5.6373    -4.0943     6.4792 C.ar    
  17 C17           -5.1282    -5.2456     7.0503 C.ar    
  18 C18           -5.1998    -6.4457     6.3679 C.ar    
  19 C19           -5.7810    -6.4945     5.1146 C.ar    
  20 C20           -6.2940    -5.3440     4.5454 C.ar    
  21 N21            1.2342     1.9813     0.0009 N.am    
  22 C22            2.3140     1.1938    -0.0136 C.2     
  23 S23            1.7082    -0.4709    -0.0168 S.3     
  24 O24           -4.8913    -0.1815    -0.4955 O.2     
  25 O25           -3.5687    -2.3022    -0.5204 O.2     
  26 C26            1.3727     3.4397     0.0069 C.3     
  27 O27            3.4782     1.5486    -0.0234 O.2     
  28 H28           -1.1242    -1.8228     0.0030 H       
  29 H29           -3.3839     1.7892     0.0451 H       
  30 H30           -1.3241     3.1013     0.0371 H       
  31 H31           -4.5460     0.1492     3.1210 H       
  32 H32           -5.5441     0.3844     1.6619 H       
  33 H33           -6.8561    -0.4630     3.6486 H       
  34 H34           -6.9271    -1.5471     2.2381 H       
  35 H35           -4.6421    -4.0129     3.6069 H       
  36 H36           -5.6617    -3.5761     2.2142 H       
  37 H37           -3.3312    -3.1782     1.6187 H       
  38 H38           -3.0852    -2.2001     3.0895 H       
  39 H39           -7.1211    -2.2164     5.3877 H       
  40 H40           -7.6056    -3.1446     3.9483 H       
  41 H41           -5.5814    -3.1568     7.0124 H       
  42 H42           -4.6741    -5.2075     8.0295 H       
  43 H43           -4.8013    -7.3450     6.8138 H       
  44 H44           -5.8366    -7.4320     4.5814 H       
  45 H45           -6.7481    -5.3821     3.5662 H       
  46 H46            1.4167     3.7963     1.0360 H       
  47 H47            2.2881     3.7199    -0.5141 H       
  48 H48            0.5162     3.8881    -0.4966 H       
@<TRIPOS>BOND
   1    1    2 ar
   2    1   21 1
   3    1    6 ar
   4    2    3 ar
   5    2   23 1
   6    3    4 ar
   7    3   28 1
   8    4    5 ar
   9    4    7 1
  10    5    6 ar
  11    5   29 1
  12    6   30 1
  13    7    8 am
  14    7   24 2
  15    7   25 2
  16    8    9 1
  17    8   13 1
  18    9   10 1
  19    9   31 1
  20    9   32 1
  21   10   11 1
  22   10   33 1
  23   10   34 1
  24   11   12 1
  25   11   14 1
  26   12   13 1
  27   12   35 1
  28   12   36 1
  29   13   37 1
  30   13   38 1
  31   14   15 1
  32   14   39 1
  33   14   40 1
  34   15   16 ar
  35   15   20 ar
  36   16   17 ar
  37   16   41 1
  38   17   18 ar
  39   17   42 1
  40   18   19 ar
  41   18   43 1
  42   19   20 ar
  43   19   44 1
  44   20   45 1
  45   21   22 am
  46   21   26 1
  47   22   23 1
  48   22   27 2
  49   26   46 1
  50   26   47 1
  51   26   48 1

#	End of record

