#	Name: ASD01815877
#	Creating user name:	WinNT
#	Creation time:	15. 06. 2019 19:34

#	Modifying user name:	WinNT
#	Modification time:	15. 06. 2019 19:34

#	Program:	/corina/corina34_cracker 3.40 0067  02.08.2006

@<TRIPOS>MOLECULE
ASD01815877
  57   62    0    0    0
SMALL
NO_CHARGES


@<TRIPOS>ATOM
   1 C1            -0.0167     1.3813     0.0096 C.ar    
   2 C2             0.0021    -0.0041     0.0020 C.ar    
   3 C3             1.1984    -0.6909    -0.0127 C.ar    
   4 C4             2.4015     0.0059    -0.0204 C.ar    
   5 C5             2.3790     1.4106    -0.0132 C.ar    
   6 C6             1.1663     2.0916     0.0022 C.ar    
   7 N7             3.6053    -0.6773    -0.0347 N.pl3   
   8 C8             4.7970    -0.0587    -0.0427 C.2     
   9 C9             4.9000     1.3102    -0.0368 C.2     
  10 C10            3.6670     2.1301    -0.0217 C.2     
  11 C11            5.9971     2.2728    -0.0418 C.2     
  12 N12            5.4246     3.4960    -0.0305 N.am    
  13 N13            4.0323     3.3799    -0.0186 N.2     
  14 C14            6.1285     4.7112    -0.0300 C.2     
  15 O15            7.1916     2.0227    -0.0534 O.2     
  16 C16            3.5779    -2.1420    -0.0408 C.3     
  17 C17            3.5552    -2.6381    -1.4636 C.ar    
  18 C18            4.7439    -2.8873    -2.1255 C.ar    
  19 C19            4.7290    -3.3417    -3.4287 C.ar    
  20 C20            3.5135    -3.5494    -4.0775 C.ar    
  21 C21            2.3191    -3.2967    -3.4059 C.ar    
  22 C22            2.3457    -2.8479    -2.1010 C.ar    
  23 C23            3.4911    -4.0374    -5.4787 C.ar    
  24 C24            2.2756    -4.2451    -6.1274 C.ar    
  25 C25            2.2607    -4.6991    -7.4307 C.ar    
  26 C26            3.4494    -4.9484    -8.0926 C.ar    
  27 C27            4.6589    -4.7444    -7.4532 C.ar    
  28 C28            4.6856    -4.2842    -6.1523 C.ar    
  29 C29            5.5813     5.9482    -0.0189 C.2     
  30 N30            7.4653     4.8513    -0.0348 N.2     
  31 C31            7.7659     6.1214    -0.0327 C.2     
  32 N32            6.6234     6.8403    -0.0230 N.am    
  33 S33            6.5023     8.4918    -0.0178 S.o2    
  34 O34            5.2468     8.7492     0.5961 O.2     
  35 O35            7.7141     8.9301     0.5810 O.2     
  36 C36            6.4581     8.9481    -1.7729 C.3     
  37 H37           -0.9602     1.9068     0.0170 H       
  38 H38           -0.9289    -0.5515     0.0080 H       
  39 H39            1.2004    -1.7709    -0.0178 H       
  40 H40            1.1506     3.1715     0.0081 H       
  41 H41            5.6983    -0.6537    -0.0538 H       
  42 H42            4.4657    -2.5241     0.4631 H       
  43 H43            2.6862    -2.4909     0.4799 H       
  44 H44            5.6855    -2.7256    -1.6218 H       
  45 H45            5.6577    -3.5356    -3.9447 H       
  46 H46            1.3741    -3.4560    -3.9041 H       
  47 H47            1.4205    -2.6517    -1.5795 H       
  48 H48            1.3469    -4.0514    -5.6113 H       
  49 H49            1.3191    -4.8604    -7.9345 H       
  50 H50            3.4331    -5.3039    -9.1123 H       
  51 H51            5.5841    -4.9409    -7.9746 H       
  52 H52            5.6305    -4.1249    -5.6541 H       
  53 H53            4.5281     6.1872    -0.0090 H       
  54 H54            8.7655     6.5304    -0.0354 H       
  55 H55            5.5972     8.4784    -2.2488 H       
  56 H56            6.3781    10.0312    -1.8648 H       
  57 H57            7.3724     8.6086    -2.2597 H       
@<TRIPOS>BOND
   1    1    2 ar
   2    1    6 ar
   3    1   37 1
   4    2    3 ar
   5    2   38 1
   6    3    4 ar
   7    3   39 1
   8    4    5 ar
   9    4    7 1
  10    5    6 ar
  11    5   10 1
  12    6   40 1
  13    7    8 1
  14    7   16 1
  15    8    9 2
  16    8   41 1
  17    9   10 1
  18    9   11 1
  19   10   13 2
  20   11   12 am
  21   11   15 2
  22   12   13 1
  23   12   14 1
  24   14   29 2
  25   14   30 1
  26   16   17 1
  27   16   42 1
  28   16   43 1
  29   17   18 ar
  30   17   22 ar
  31   18   19 ar
  32   18   44 1
  33   19   20 ar
  34   19   45 1
  35   20   21 ar
  36   20   23 1
  37   21   22 ar
  38   21   46 1
  39   22   47 1
  40   23   24 ar
  41   23   28 ar
  42   24   25 ar
  43   24   48 1
  44   25   26 ar
  45   25   49 1
  46   26   27 ar
  47   26   50 1
  48   27   28 ar
  49   27   51 1
  50   28   52 1
  51   29   32 1
  52   29   53 1
  53   30   31 2
  54   31   32 1
  55   31   54 1
  56   32   33 am
  57   33   34 2
  58   33   35 2
  59   33   36 1
  60   36   55 1
  61   36   56 1
  62   36   57 1

#	End of record

