#	Name: ASD01410146
#	Creating user name:	WinNT
#	Creation time:	15. 06. 2019 19:16

#	Modifying user name:	WinNT
#	Modification time:	15. 06. 2019 19:16

#	Program:	/corina/corina34_cracker 3.40 0067  02.08.2006

@<TRIPOS>MOLECULE
ASD01410146
  72   78    0    0    0
SMALL
NO_CHARGES


@<TRIPOS>ATOM
   1 C1             0.0050     1.4329     0.0027 C.ar    
   2 C2             0.0092     0.0624     0.3239 C.ar    
   3 C3            -1.1711    -0.5713     0.6947 C.ar    
   4 C4            -2.3397     0.1319     0.7488 C.ar    
   5 C5            -2.3628     1.4965     0.4320 C.ar    
   6 C6            -1.1903     2.1494     0.0640 C.ar    
   7 N7             1.2790     1.7738    -0.3166 N.2     
   8 C8             2.0534     0.7209    -0.2145 C.2     
   9 N9             1.3137    -0.3625     0.1789 N.pl3   
  10 C10           -3.6342     2.2452     0.4936 C.2     
  11 N11           -4.7701     1.6157     0.8542 N.am    
  12 C12           -6.0313     2.3585     0.9153 C.3     
  13 C13            3.5060     0.7053    -0.4839 C.2     
  14 C14            4.3417    -0.4670    -0.7760 C.2     
  15 C15            5.5878     0.0013    -0.9512 C.2     
  16 O16            5.5817     1.3338    -0.7935 O.3     
  17 C17            4.3476     1.7752    -0.5190 C.2     
  18 C18            1.8147    -1.7206     0.4040 C.3     
  19 C19            1.4174    -2.1848     1.8067 C.3     
  20 C20            1.9407    -3.6032     2.0418 C.3     
  21 C21            1.3365    -4.5486     1.0015 C.3     
  22 C22            1.7338    -4.0844    -0.4012 C.3     
  23 C23            1.2105    -2.6660    -0.6363 C.3     
  24 O24           -3.6562     3.4293     0.2191 O.2     
  25 C25           -7.2021     1.3920     0.7251 C.3     
  26 C26           -6.1513     3.0351     2.2565 C.2     
  27 C27           -5.1730     3.0146     3.1667 C.2     
  28 S28           -5.7242     3.9178     4.5756 S.3     
  29 C29           -7.2153     4.2332     3.8007 C.2     
  30 N30           -7.2274     3.7002     2.6257 N.2     
  31 C31           -7.1505     0.8075    -0.6629 C.2     
  32 C32           -6.3721    -0.3581    -1.0890 C.ar    
  33 C33           -6.6388    -0.5245    -2.4595 C.ar    
  34 N34           -7.5166     0.4738    -2.8264 N.pl3   
  35 C35           -7.8137     1.2528    -1.7418 C.2     
  36 C36           -5.5046    -1.2359    -0.4350 C.ar    
  37 C37           -4.9137    -2.2638    -1.1420 C.ar    
  38 C38           -5.1796    -2.4257    -2.4994 C.ar    
  39 C39           -6.0337    -1.5668    -3.1540 C.ar    
  40 O40           -4.0683    -3.1216    -0.5105 O.3     
  41 C41           -8.3487     5.0246     4.4006 C.3     
  42 H42           -1.1635    -1.6230     0.9404 H       
  43 H43           -3.2529    -0.3672     1.0374 H       
  44 H44           -1.2071     3.2013    -0.1800 H       
  45 H45           -4.7525     0.6710     1.0732 H       
  46 H46           -6.0489     3.1102     0.1262 H       
  47 H47            4.0194    -1.4960    -0.8374 H       
  48 H48            6.4560    -0.5984    -1.1817 H       
  49 H49            4.0683     2.8043    -0.3477 H       
  50 H50            2.9009    -1.7269     0.3132 H       
  51 H51            1.8479    -1.5113     2.5478 H       
  52 H52            0.3312    -2.1786     1.8975 H       
  53 H53            3.0269    -3.6095     1.9510 H       
  54 H54            1.6577    -3.9339     3.0411 H       
  55 H55            1.7093    -5.5591     1.1690 H       
  56 H56            0.2503    -4.5424     1.0923 H       
  57 H57            2.8200    -4.0907    -0.4920 H       
  58 H58            1.3034    -4.7580    -1.1423 H       
  59 H59            0.1243    -2.6598    -0.5455 H       
  60 H60            1.4935    -2.3353    -1.6356 H       
  61 H61           -7.1340     0.5898     1.4599 H       
  62 H62           -8.1415     1.9284     0.8588 H       
  63 H63           -4.2140     2.5301     3.0579 H       
  64 H64           -7.8729     0.6023    -3.7194 H       
  65 H65           -8.4775     2.1046    -1.7535 H       
  66 H66           -5.2970    -1.1111     0.6175 H       
  67 H67           -4.7116    -3.2327    -3.0437 H       
  68 H68           -6.2327    -1.7015    -4.2069 H       
  69 H69           -4.5050    -3.8965    -0.1313 H       
  70 H70           -8.0684     5.3614     5.3987 H       
  71 H71           -8.5610     5.8892     3.7717 H       
  72 H72           -9.2367     4.3957     4.4654 H       
@<TRIPOS>BOND
   1    1    2 ar
   2    1    7 1
   3    1    6 ar
   4    2    3 ar
   5    2    9 1
   6    3    4 ar
   7    3   42 1
   8    4    5 ar
   9    4   43 1
  10    5    6 ar
  11    5   10 1
  12    6   44 1
  13    7    8 2
  14    8    9 1
  15    8   13 1
  16    9   18 1
  17   10   11 am
  18   10   24 2
  19   11   12 1
  20   11   45 1
  21   12   25 1
  22   12   26 1
  23   12   46 1
  24   13   14 1
  25   13   17 2
  26   14   15 2
  27   14   47 1
  28   15   16 1
  29   15   48 1
  30   16   17 1
  31   17   49 1
  32   18   19 1
  33   18   23 1
  34   18   50 1
  35   19   20 1
  36   19   51 1
  37   19   52 1
  38   20   21 1
  39   20   53 1
  40   20   54 1
  41   21   22 1
  42   21   55 1
  43   21   56 1
  44   22   23 1
  45   22   57 1
  46   22   58 1
  47   23   59 1
  48   23   60 1
  49   25   31 1
  50   25   61 1
  51   25   62 1
  52   26   27 2
  53   26   30 1
  54   27   28 1
  55   27   63 1
  56   28   29 1
  57   29   30 2
  58   29   41 1
  59   31   32 1
  60   31   35 2
  61   32   33 ar
  62   32   36 ar
  63   33   34 1
  64   33   39 ar
  65   34   35 1
  66   34   64 1
  67   35   65 1
  68   36   37 ar
  69   36   66 1
  70   37   38 ar
  71   37   40 1
  72   38   39 ar
  73   38   67 1
  74   39   68 1
  75   40   69 1
  76   41   70 1
  77   41   71 1
  78   41   72 1

#	End of record

