#	Name: ASD07300581
#	Creating user name:	WinNT
#	Creation time:	15. 06. 2019 21:10

#	Modifying user name:	WinNT
#	Modification time:	15. 06. 2019 21:10

#	Program:	/corina/corina34_cracker 3.40 0067  02.08.2006

@<TRIPOS>MOLECULE
ASD07300581
  50   53    0    0    0
SMALL
NO_CHARGES


@<TRIPOS>ATOM
   1 C1            -0.0173     1.4124    -0.0103 C.2     
   2 C2             0.0021    -0.0041     0.0020 C.2     
   3 N3             1.1769     2.0857    -0.0175 N.pl3   
   4 N4             1.1570    -0.6396     0.0063 N.2     
   5 C5             2.3154     0.0267    -0.0008 C.2     
   6 C6             2.3474     1.3749    -0.0130 C.2     
   7 N7            -1.0019     2.2989    -0.0117 N.2     
   8 C8            -0.4940     3.5297    -0.0253 C.2     
   9 C9             0.8866     3.4255    -0.0284 C.2     
  10 N10           -1.1868    -0.7178     0.0100 N.pl3   
  11 C11           -1.1905    -2.1846    -0.1073 C.3     
  12 C12           -2.0532    -2.7578     1.0228 C.3     
  13 O13           -3.3310    -2.1167     1.0110 O.3     
  14 C14           -3.2817    -0.7089     1.2547 C.3     
  15 C15           -2.4816    -0.0312     0.1422 C.3     
  16 C16            2.9651     4.5233     0.8101 C.ar    
  17 C17            1.8560     4.5388    -0.0391 C.ar    
  18 C18            1.6797     5.6286    -0.9011 C.ar    
  19 C19            2.6174     6.6457    -0.8721 C.ar    
  20 C20            3.6884     6.5550    -0.0015 C.ar    
  21 N21            3.8298     5.5161     0.7996 N.ar    
  22 C22            4.7113     7.6612     0.0324 C.3     
  23 C23            4.8472     8.1866     1.4629 C.3     
  24 O24            5.8171     9.2355     1.4950 O.3     
  25 C25            6.0213     9.7988     2.7924 C.3     
  26 O26           -1.2068     4.6868    -0.0313 O.3     
  27 C27           -2.6311     4.5715    -0.0217 C.3     
  28 H28            3.2438    -0.5250     0.0034 H       
  29 H29            3.2948     1.8933    -0.0188 H       
  30 H30           -1.6082    -2.4747    -1.0714 H       
  31 H31           -0.1719    -2.5625    -0.0193 H       
  32 H32           -2.1824    -3.8299     0.8742 H       
  33 H33           -1.5647    -2.5785     1.9805 H       
  34 H34           -4.2947    -0.3069     1.2731 H       
  35 H35           -2.7977    -0.5221     2.2133 H       
  36 H36           -2.3175     1.0162     0.3953 H       
  37 H37           -3.0315    -0.1008    -0.7963 H       
  38 H38            3.1123     3.6921     1.4838 H       
  39 H39            0.8341     5.6736    -1.5713 H       
  40 H40            2.5142     7.5014    -1.5229 H       
  41 H41            5.6734     7.2770    -0.3065 H       
  42 H42            4.3922     8.4713    -0.6234 H       
  43 H43            3.8851     8.5708     1.8018 H       
  44 H44            5.1663     7.3765     2.1187 H       
  45 H45            5.0836    10.2165     3.1588 H       
  46 H46            6.3648     9.0221     3.4757 H       
  47 H47            6.7714    10.5874     2.7321 H       
  48 H48           -3.0762     5.5664    -0.0279 H       
  49 H49           -2.9571     4.0221    -0.9049 H       
  50 H50           -2.9463     4.0380     0.8750 H       
@<TRIPOS>BOND
   1    1    2 1
   2    1    3 1
   3    1    7 2
   4    2    4 2
   5    2   10 1
   6    3    6 1
   7    3    9 1
   8    4    5 1
   9    5    6 2
  10    5   28 1
  11    6   29 1
  12    7    8 1
  13    8    9 2
  14    8   26 1
  15    9   17 1
  16   10   11 1
  17   10   15 1
  18   11   12 1
  19   11   30 1
  20   11   31 1
  21   12   13 1
  22   12   32 1
  23   12   33 1
  24   13   14 1
  25   14   15 1
  26   14   34 1
  27   14   35 1
  28   15   36 1
  29   15   37 1
  30   16   17 ar
  31   16   21 ar
  32   16   38 1
  33   17   18 ar
  34   18   19 ar
  35   18   39 1
  36   19   20 ar
  37   19   40 1
  38   20   21 ar
  39   20   22 1
  40   22   23 1
  41   22   41 1
  42   22   42 1
  43   23   24 1
  44   23   43 1
  45   23   44 1
  46   24   25 1
  47   25   45 1
  48   25   46 1
  49   25   47 1
  50   26   27 1
  51   27   48 1
  52   27   49 1
  53   27   50 1

#	End of record

