#	Name: ASD01914203
#	Creating user name:	WinNT
#	Creation time:	15. 06. 2019 20:03

#	Modifying user name:	WinNT
#	Modification time:	15. 06. 2019 20:03

#	Program:	/corina/corina34_cracker 3.40 0067  02.08.2006

@<TRIPOS>MOLECULE
ASD01914203
  39   40    0    0    0
SMALL
NO_CHARGES


@<TRIPOS>ATOM
   1 C1            -0.0229     1.4745     0.0049 C.2     
   2 C2             0.0080    -0.0036     0.0006 C.ar    
   3 C3             1.0006    -0.6819    -0.7085 C.ar    
   4 C4             1.0241    -2.0612    -0.7081 C.ar    
   5 C5             0.0663    -2.7722    -0.0071 C.ar    
   6 C6            -0.9204    -2.1060     0.6979 C.ar    
   7 C7            -0.9518    -0.7269     0.7104 C.ar    
   8 O8             1.0167     2.1042    -0.0100 O.2     
   9 N9            -1.2039     2.1238     0.0198 N.am    
  10 C10           -1.2359     3.5832     0.1439 C.3     
  11 C11           -1.1975     4.2144    -1.2493 C.3     
  12 C12           -1.2297     5.6808    -1.1246 C.1     
  13 C13           -1.2554     6.8503    -1.0252 C.1     
  14 C14           -1.2867     8.2768    -0.9040 C.ar    
  15 C15           -1.2602     9.0699    -2.0517 C.ar    
  16 C16           -1.2910    10.4466    -1.9178 C.ar    
  17 C17           -1.3474    10.9874    -0.6406 C.ar    
  18 C18           -1.3710    10.1427     0.4538 C.ar    
  19 N19           -1.3462     8.8346     0.2998 N.ar    
  20 C20            0.0975    -4.2789    -0.0119 C.3     
  21 C21           -2.4555     1.3701    -0.0880 C.3     
  22 H22            1.7484    -0.1280    -1.2567 H       
  23 H23            1.7916    -2.5872    -1.2564 H       
  24 H24           -1.6651    -2.6669     1.2431 H       
  25 H25           -1.7198    -0.2080     1.2647 H       
  26 H26           -2.1508     3.8844     0.6542 H       
  27 H27           -0.3723     3.9180     0.7185 H       
  28 H28           -0.2826     3.9131    -1.7595 H       
  29 H29           -2.0611     3.8795    -1.8239 H       
  30 H30           -1.2158     8.6157    -3.0305 H       
  31 H31           -1.2713    11.0863    -2.7878 H       
  32 H32           -1.3723    12.0583    -0.5030 H       
  33 H33           -1.4146    10.5611     1.4485 H       
  34 H34            0.7072    -4.6323     0.8197 H       
  35 H35           -0.9170    -4.6637     0.0921 H       
  36 H36            0.5250    -4.6304    -0.9509 H       
  37 H37           -2.7570     1.0230     0.9003 H       
  38 H38           -3.2328     2.0138    -0.4998 H       
  39 H39           -2.3080     0.5128    -0.7448 H       
@<TRIPOS>BOND
   1    1    2 1
   2    1    8 2
   3    1    9 am
   4    2    3 ar
   5    2    7 ar
   6    3    4 ar
   7    3   22 1
   8    4    5 ar
   9    4   23 1
  10    5    6 ar
  11    5   20 1
  12    6    7 ar
  13    6   24 1
  14    7   25 1
  15    9   10 1
  16    9   21 1
  17   10   11 1
  18   10   26 1
  19   10   27 1
  20   11   12 1
  21   11   28 1
  22   11   29 1
  23   12   13 3
  24   13   14 1
  25   14   15 ar
  26   14   19 ar
  27   15   16 ar
  28   15   30 1
  29   16   17 ar
  30   16   31 1
  31   17   18 ar
  32   17   32 1
  33   18   19 ar
  34   18   33 1
  35   20   34 1
  36   20   35 1
  37   20   36 1
  38   21   37 1
  39   21   38 1
  40   21   39 1

#	End of record

