#	Name: ASD01890339
#	Creating user name:	WinNT
#	Creation time:	15. 06. 2019 19:50

#	Modifying user name:	WinNT
#	Modification time:	15. 06. 2019 19:50

#	Program:	/corina/corina34_cracker 3.40 0067  02.08.2006

@<TRIPOS>MOLECULE
ASD01890339
  41   43    0    0    0
SMALL
NO_CHARGES


@<TRIPOS>ATOM
   1 C1            -0.0170     1.4053     0.0098 C.2     
   2 C2             0.0021    -0.0041     0.0020 C.2     
   3 C3             1.2050    -0.6769    -0.0131 C.2     
   4 O4             1.0289     2.0283     0.0031 O.2     
   5 O5            -1.1956     2.0645     0.0189 O.3     
   6 C6             2.4758     0.0800    -0.0212 C.ar    
   7 C7             2.8275     0.8712     1.0739 C.ar    
   8 C8             4.0140     1.5746     1.0599 C.ar    
   9 C9             4.8547     1.4976    -0.0365 C.ar    
  10 C10            4.5120     0.7152    -1.1252 C.ar    
  11 C11            3.3314     0.0018    -1.1215 C.ar    
  12 O12            1.7106    -2.9209     0.9700 O.3     
  13 C13            1.2249    -2.1456    -0.0212 C.2     
  14 C14            0.7558    -2.9296    -1.0292 C.2     
  15 C15            0.9801    -4.3109    -0.6055 C.ar    
  16 C16            1.5848    -4.2274     0.6633 C.ar    
  17 C17            0.7254    -5.5588    -1.1791 C.ar    
  18 C18            1.0658    -6.6970    -0.5033 C.ar    
  19 C19            1.6616    -6.6203     0.7477 C.ar    
  20 C20            1.9218    -5.3981     1.3308 C.ar    
  21 C21            0.7918    -8.0442    -1.1206 C.3     
  22 C22           -1.1401     3.4924     0.0264 C.3     
  23 C23           -2.5617     4.0579     0.0363 C.3     
  24 H24           -0.9258    -0.5567     0.0079 H       
  25 H25            2.1719     0.9327     1.9300 H       
  26 H26            4.2873     2.1871     1.9064 H       
  27 H27            5.7822     2.0508    -0.0427 H       
  28 H28            5.1726     0.6594    -1.9778 H       
  29 H29            3.0674    -0.6123    -1.9697 H       
  30 H30            0.3084    -2.5987    -1.9548 H       
  31 H31            0.2613    -5.6239    -2.1521 H       
  32 H32            1.9249    -7.5280     1.2702 H       
  33 H33            2.3865    -5.3511     2.3046 H       
  34 H34            1.6530    -8.3546    -1.7123 H       
  35 H35            0.6101    -8.7748    -0.3324 H       
  36 H36           -0.0858    -7.9775    -1.7636 H       
  37 H37           -0.6084     3.8307     0.9158 H       
  38 H38           -0.6168     3.8404    -0.8642 H       
  39 H39           -2.5195     5.1471     0.0420 H       
  40 H40           -3.0935     3.7196    -0.8531 H       
  41 H41           -3.0851     3.7100     0.9269 H       
@<TRIPOS>BOND
   1    1    2 1
   2    1    4 2
   3    1    5 1
   4    2    3 2
   5    2   24 1
   6    3    6 1
   7    3   13 1
   8    5   22 1
   9    6    7 ar
  10    6   11 ar
  11    7    8 ar
  12    7   25 1
  13    8    9 ar
  14    8   26 1
  15    9   10 ar
  16    9   27 1
  17   10   11 ar
  18   10   28 1
  19   11   29 1
  20   12   13 1
  21   12   16 1
  22   13   14 2
  23   14   15 1
  24   14   30 1
  25   15   16 ar
  26   15   17 ar
  27   16   20 ar
  28   17   18 ar
  29   17   31 1
  30   18   19 ar
  31   18   21 1
  32   19   20 ar
  33   19   32 1
  34   20   33 1
  35   21   34 1
  36   21   35 1
  37   21   36 1
  38   22   23 1
  39   22   37 1
  40   22   38 1
  41   23   39 1
  42   23   40 1
  43   23   41 1

#	End of record

