#	Name: ASD02030511
#	Creating user name:	WinNT
#	Creation time:	15. 06. 2019 20:15

#	Modifying user name:	WinNT
#	Modification time:	15. 06. 2019 20:15

#	Program:	/corina/corina34_cracker 3.40 0067  02.08.2006

@<TRIPOS>MOLECULE
ASD02030511
  61   65    0    0    0
SMALL
NO_CHARGES


@<TRIPOS>ATOM
   1 N1            -0.0330     1.2427     0.3466 N.am    
   2 C2            -0.2590    -0.2093     0.3692 C.3     
   3 C3            -1.3003    -0.5265     1.4496 C.3     
   4 N4            -2.4529     0.3669     1.2676 N.am    
   5 C5            -2.2270     1.8189     1.2450 C.3     
   6 C6            -1.1864     2.1363     0.1702 C.3     
   7 C7             1.2089     1.7460     0.4907 C.2     
   8 C8             2.3400     0.8457     0.8000 C.2     
   9 N9             3.5692     1.2176     1.0855 N.2     
  10 N10            2.2923    -0.4984     0.8448 N.2     
  11 C11            3.4926    -0.9202     1.1515 C.2     
  12 N12            4.2805     0.1646     1.2990 N.pl3   
  13 O13            1.3990     2.9402     0.3664 O.2     
  14 C14           -3.6949    -0.1363     1.1235 C.2     
  15 C15           -3.8938    -1.5903     1.0420 C.2     
  16 O16           -4.6513     0.6129     1.0609 O.2     
  17 C17           -0.7354     3.5920     0.3061 C.3     
  18 C18           -1.7942     1.9106    -1.2156 C.3     
  19 C19            5.6426     0.1491     1.6284 C.ar    
  20 C20            6.3421     1.3418     1.7504 C.ar    
  21 C21            7.6857     1.3230     2.0759 C.ar    
  22 C22            8.3324     0.1167     2.2794 C.ar    
  23 C23            7.6372    -1.0725     2.1584 C.ar    
  24 C24            6.2937    -1.0595     1.8390 C.ar    
  25 Cl25           8.5621     2.8138     2.2289 Cl      
  26 C26           -5.0733    -2.2034     0.7644 C.2     
  27 C27           -4.7988    -3.6397     0.7884 C.ar    
  28 C28           -3.4295    -3.7612     1.0892 C.ar    
  29 O29           -2.9305    -2.5173     1.2260 O.3     
  30 C30           -5.5756    -4.7831     0.5861 C.ar    
  31 C31           -4.9999    -6.0184     0.6818 C.ar    
  32 C32           -3.6495    -6.1441     0.9788 C.ar    
  33 C33           -2.8661    -5.0289     1.1817 C.ar    
  34 C34           -1.4020    -5.1829     1.5037 C.3     
  35 C35           -6.3971    -1.5384     0.4876 C.3     
  36 H36           -0.6284    -0.5372    -0.6025 H       
  37 H37            0.6752    -0.7213     0.5999 H       
  38 H38           -1.6225    -1.5634     1.3539 H       
  39 H39           -0.8649    -0.3656     2.4358 H       
  40 H40           -3.1611     2.3310     1.0143 H       
  41 H41           -1.8575     2.1468     2.2167 H       
  42 H42            3.7964    -1.9500     1.2683 H       
  43 H43           -0.1961     3.7193     1.2447 H       
  44 H44           -0.0808     3.8489    -0.5268 H       
  45 H45           -1.6081     4.2451     0.2970 H       
  46 H46           -2.6580     2.5628    -1.3441 H       
  47 H47           -1.0508     2.1374    -1.9797 H       
  48 H48           -2.1069     0.8707    -1.3102 H       
  49 H49            5.8376     2.2832     1.5908 H       
  50 H50            9.3821     0.1040     2.5330 H       
  51 H51            8.1446    -2.0125     2.3175 H       
  52 H52            5.7516    -1.9888     1.7451 H       
  53 H53           -6.6267    -4.6909     0.3556 H       
  54 H54           -5.5994    -6.9031     0.5256 H       
  55 H55           -3.2081    -7.1271     1.0515 H       
  56 H56           -0.8258    -5.1944     0.5785 H       
  57 H57           -1.0766    -4.3478     2.1241 H       
  58 H58           -1.2447    -6.1179     2.0414 H       
  59 H59           -6.4938    -1.3527    -0.5821 H       
  60 H60           -7.2067    -2.1891     0.8181 H       
  61 H61           -6.4482    -0.5924     1.0267 H       
@<TRIPOS>BOND
   1    1    2 1
   2    1    7 am
   3    1    6 1
   4    2    3 1
   5    2   36 1
   6    2   37 1
   7    3    4 1
   8    3   38 1
   9    3   39 1
  10    4    5 1
  11    4   14 am
  12    5    6 1
  13    5   40 1
  14    5   41 1
  15    6   17 1
  16    6   18 1
  17    7    8 1
  18    7   13 2
  19    8    9 2
  20    8   10 1
  21    9   12 1
  22   10   11 2
  23   11   12 1
  24   11   42 1
  25   12   19 1
  26   14   15 1
  27   14   16 2
  28   15   26 2
  29   15   29 1
  30   17   43 1
  31   17   44 1
  32   17   45 1
  33   18   46 1
  34   18   47 1
  35   18   48 1
  36   19   20 ar
  37   19   24 ar
  38   20   21 ar
  39   20   49 1
  40   21   22 ar
  41   21   25 1
  42   22   23 ar
  43   22   50 1
  44   23   24 ar
  45   23   51 1
  46   24   52 1
  47   26   27 1
  48   26   35 1
  49   27   28 ar
  50   27   30 ar
  51   28   29 1
  52   28   33 ar
  53   30   31 ar
  54   30   53 1
  55   31   32 ar
  56   31   54 1
  57   32   33 ar
  58   32   55 1
  59   33   34 1
  60   34   56 1
  61   34   57 1
  62   34   58 1
  63   35   59 1
  64   35   60 1
  65   35   61 1

#	End of record

