#	Name: ASD05580005
#	Creating user name:	WinNT
#	Creation time:	15. 06. 2019 21:01

#	Modifying user name:	WinNT
#	Modification time:	15. 06. 2019 21:01

#	Program:	/corina/corina34_cracker 3.40 0067  02.08.2006

@<TRIPOS>MOLECULE
ASD05580005
  48   50    0    0    0
SMALL
NO_CHARGES


@<TRIPOS>ATOM
   1 C1            -0.0187     1.5258     0.0104 C.3     
   2 C2             0.0021    -0.0041     0.0020 C.3     
   3 C3             0.7182    -0.4975    -1.2568 C.3     
   4 C4             2.1536     0.0321    -1.2676 C.3     
   5 C5             2.1328     1.5619    -1.2592 C.3     
   6 C6             1.4167     2.0553    -0.0004 C.3     
   7 C7             3.5467     2.0836    -1.2699 C.2     
   8 N8             4.3780     1.7708    -0.2872 N.2     
   9 C9             5.6236     2.2122    -0.2675 C.2     
  10 N10            6.1148     3.0099    -1.2546 N.am    
  11 C11            5.3249     3.3699    -2.2887 C.2     
  12 C12            3.9863     2.8928    -2.3178 C.2     
  13 O13            5.7512     4.0840    -3.1793 O.2     
  14 S14            6.6749     1.7566     1.0712 S.3     
  15 C15            5.5320     0.7365     2.0352 C.3     
  16 C16            6.2338     0.2216     3.2654 C.ar    
  17 C17            6.2026     0.9547     4.4366 C.ar    
  18 C18            6.8464     0.4823     5.5652 C.ar    
  19 C19            7.5210    -0.7233     5.5224 C.ar    
  20 C20            7.5514    -1.4571     4.3510 C.ar    
  21 C21            6.9041    -0.9869     3.2240 C.ar    
  22 C22            5.4671     2.2692     4.4834 C.3     
  23 C23            8.2873    -2.7714     4.3042 C.3     
  24 C24            3.1062     3.2443    -3.3913 C.1     
  25 N25            2.4080     3.5231    -4.2429 N.1     
  26 H26           -0.5459     1.8868    -0.8726 H       
  27 H27           -0.5289     1.8773     0.9072 H       
  28 H28            0.5293    -0.3651     0.8851 H       
  29 H29           -1.0205    -0.3814     0.0098 H       
  30 H30            0.7330    -1.5874    -1.2628 H       
  31 H31            0.1910    -0.1364    -2.1398 H       
  32 H32            2.6808    -0.3290    -0.3846 H       
  33 H33            2.6638    -0.3194    -2.1644 H       
  34 H34            1.6057     1.9230    -2.1423 H       
  35 H35            1.4019     3.1452     0.0056 H       
  36 H36            1.9439     1.6943     0.8826 H       
  37 H37            7.0329     3.3204    -1.2150 H       
  38 H38            4.6716     1.3363     2.3320 H       
  39 H39            5.1966    -0.1051     1.4292 H       
  40 H40            6.8226     1.0555     6.4803 H       
  41 H41            8.0245    -1.0919     6.4038 H       
  42 H42            6.9279    -1.5601     2.3090 H       
  43 H43            4.4321     2.0962     4.7784 H       
  44 H44            5.9461     2.9280     5.2077 H       
  45 H45            5.4910     2.7342     3.4978 H       
  46 H46            7.6075    -3.5783     4.5776 H       
  47 H47            8.6651    -2.9405     3.2958 H       
  48 H48            9.1216    -2.7459     5.0052 H       
@<TRIPOS>BOND
   1    1    2 1
   2    1    6 1
   3    1   26 1
   4    1   27 1
   5    2    3 1
   6    2   28 1
   7    2   29 1
   8    3    4 1
   9    3   30 1
  10    3   31 1
  11    4    5 1
  12    4   32 1
  13    4   33 1
  14    5    6 1
  15    5    7 1
  16    5   34 1
  17    6   35 1
  18    6   36 1
  19    7    8 1
  20    7   12 2
  21    8    9 2
  22    9   10 1
  23    9   14 1
  24   10   11 am
  25   10   37 1
  26   11   12 1
  27   11   13 2
  28   12   24 1
  29   14   15 1
  30   15   16 1
  31   15   38 1
  32   15   39 1
  33   16   17 ar
  34   16   21 ar
  35   17   18 ar
  36   17   22 1
  37   18   19 ar
  38   18   40 1
  39   19   20 ar
  40   19   41 1
  41   20   21 ar
  42   20   23 1
  43   21   42 1
  44   22   43 1
  45   22   44 1
  46   22   45 1
  47   23   46 1
  48   23   47 1
  49   23   48 1
  50   24   25 3

#	End of record

