#	Name: ASD01151047
#	Creating user name:	WinNT
#	Creation time:	15. 06. 2019 19:05

#	Modifying user name:	WinNT
#	Modification time:	15. 06. 2019 19:05

#	Program:	/corina/corina34_cracker 3.40 0067  02.08.2006

@<TRIPOS>MOLECULE
ASD01151047
  33   34    0    0    0
SMALL
NO_CHARGES


@<TRIPOS>ATOM
   1 N1             0.0515    -1.1342    -0.1744 N.1     
   2 C2             0.0257     0.0001    -0.1181 C.1     
   3 C3            -0.0068     1.4300    -0.0470 C.2     
   4 N4             1.0351     2.2342    -0.1419 N.2     
   5 N5             0.5833     3.5546    -0.0231 N.pl3   
   6 C6            -0.7681     3.5249     0.1471 C.2     
   7 C7            -1.1592     2.2244     0.1305 C.2     
   8 S8            -2.8098     1.6342     0.3093 S.o     
   9 O9            -3.4529     2.6904     1.0093 O.2     
  10 C10           -3.4135     1.5864    -1.4006 C.3     
  11 C11           -4.8592     1.0858    -1.4173 C.3     
  12 N12           -1.6000     4.6302     0.3041 N.pl3   
  13 C13            1.3819     4.7052    -0.0706 C.ar    
  14 C14            2.4490     4.8490     0.8075 C.ar    
  15 Cl15           2.7953     3.6030     1.9657 Cl      
  16 C16            3.2348     5.9851     0.7575 C.ar    
  17 C17            2.9598     6.9780    -0.1647 C.ar    
  18 C18            1.8983     6.8386    -1.0398 C.ar    
  19 C19            1.1119     5.7024    -0.9997 C.ar    
  20 Cl20          -0.2201     5.5281    -2.0993 Cl      
  21 C21            3.8185     8.2153    -0.2157 C.3     
  22 F22            4.8806     8.0096    -1.1028 F       
  23 F23            3.0493     9.2991    -0.6526 F       
  24 F24            4.3229     8.4859     1.0608 F       
  25 H25           -3.3707     2.5877    -1.8292 H       
  26 H26           -2.7890     0.9129    -1.9877 H       
  27 H27           -4.9019     0.0845    -0.9887 H       
  28 H28           -5.4836     1.7592    -0.8302 H       
  29 H29           -5.2219     1.0571    -2.4447 H       
  30 H30           -1.2165     5.5156     0.4041 H       
  31 H31           -2.5631     4.5150     0.3135 H       
  32 H32            4.0645     6.0975     1.4398 H       
  33 H33            1.6862     7.6162    -1.7585 H       
@<TRIPOS>BOND
   1    1    2 3
   2    2    3 1
   3    3    4 2
   4    3    7 1
   5    4    5 1
   6    5    6 1
   7    5   13 1
   8    6    7 2
   9    6   12 1
  10    7    8 1
  11    8    9 2
  12    8   10 1
  13   10   11 1
  14   10   25 1
  15   10   26 1
  16   11   27 1
  17   11   28 1
  18   11   29 1
  19   12   30 1
  20   12   31 1
  21   13   14 ar
  22   13   19 ar
  23   14   15 1
  24   14   16 ar
  25   16   17 ar
  26   16   32 1
  27   17   18 ar
  28   17   21 1
  29   18   19 ar
  30   18   33 1
  31   19   20 1
  32   21   22 1
  33   21   23 1
  34   21   24 1

#	End of record

