#	Name: ASD01913496
#	Creating user name:	WinNT
#	Creation time:	15. 06. 2019 20:01

#	Modifying user name:	WinNT
#	Modification time:	15. 06. 2019 20:01

#	Program:	/corina/corina34_cracker 3.40 0067  02.08.2006

@<TRIPOS>MOLECULE
ASD01913496
  35   37    0    0    0
SMALL
NO_CHARGES


@<TRIPOS>ATOM
   1 C1             0.3915     0.4707     1.3144 C.ar    
   2 C2            -0.0475    -0.0157     0.0872 C.ar    
   3 C3             0.7309     0.2353    -1.0381 C.ar    
   4 N4             1.8529     0.9228    -0.9022 N.ar    
   5 C5             2.2352     1.3671     0.2782 C.ar    
   6 N6             1.5255     1.1499     1.3672 N.ar    
   7 C7            -1.1262    -2.0696    -0.1117 C.ar    
   8 C8             0.1110    -2.7125    -0.1236 C.ar    
   9 C9             0.1548    -4.0871    -0.2227 C.ar    
  10 N10           -0.9550    -4.7967    -0.3060 N.ar    
  11 C11           -2.1504    -4.2256    -0.2982 C.ar    
  12 C12           -2.2756    -2.8468    -0.2010 C.ar    
  13 N13           -3.2936    -5.0172    -0.3889 N.am    
  14 C14           -3.1798    -6.3438    -0.5978 C.2     
  15 O15           -1.2068    -0.7185    -0.0097 O.3     
  16 C16           -4.3906    -7.1657    -0.8063 C.ar    
  17 O17           -2.0815    -6.8643    -0.6150 O.2     
  18 C18           -5.6534    -6.5691    -0.7869 C.ar    
  19 C19           -6.7857    -7.3354    -0.9813 C.ar    
  20 C20           -6.6786    -8.6949    -1.1956 C.ar    
  21 C21           -5.4214    -9.3050    -1.2175 C.ar    
  22 C22           -4.2743    -8.5365    -1.0281 C.ar    
  23 C23           -5.3118   -10.7153    -1.4399 C.1     
  24 N24           -5.2248   -11.8342    -1.6163 N.1     
  25 H25           -0.1873     0.3003     2.2101 H       
  26 H26            0.4239    -0.1261    -2.0084 H       
  27 H27            3.1567     1.9249     0.3553 H       
  28 H28            1.0245    -2.1403    -0.0562 H       
  29 H29            1.1105    -4.5901    -0.2327 H       
  30 H30           -3.2516    -2.3844    -0.1945 H       
  31 H31           -4.1712    -4.6135    -0.3016 H       
  32 H32           -5.7445    -5.5061    -0.6191 H       
  33 H33           -7.7597    -6.8689    -0.9654 H       
  34 H34           -7.5682    -9.2884    -1.3463 H       
  35 H35           -3.3003    -9.0028    -1.0441 H       
@<TRIPOS>BOND
   1    1    2 ar
   2    1    6 ar
   3    1   25 1
   4    2    3 ar
   5    2   15 1
   6    3    4 ar
   7    3   26 1
   8    4    5 ar
   9    5    6 ar
  10    5   27 1
  11    7    8 ar
  12    7   12 ar
  13    7   15 1
  14    8    9 ar
  15    8   28 1
  16    9   10 ar
  17    9   29 1
  18   10   11 ar
  19   11   12 ar
  20   11   13 1
  21   12   30 1
  22   13   14 am
  23   13   31 1
  24   14   16 1
  25   14   17 2
  26   16   18 ar
  27   16   22 ar
  28   18   19 ar
  29   18   32 1
  30   19   20 ar
  31   19   33 1
  32   20   21 ar
  33   20   34 1
  34   21   22 ar
  35   21   23 1
  36   22   35 1
  37   23   24 3

#	End of record

