#	Name: ASD07930084
#	Creating user name:	WinNT
#	Creation time:	15. 06. 2019 21:11

#	Modifying user name:	WinNT
#	Modification time:	15. 06. 2019 21:11

#	Program:	/corina/corina34_cracker 3.40 0067  02.08.2006

@<TRIPOS>MOLECULE
ASD07930084
  27   28    0    0    0
SMALL
NO_CHARGES


@<TRIPOS>ATOM
   1 C1            -0.0168     1.3897     0.0097 C.ar    
   2 C2             0.0021    -0.0041     0.0020 C.ar    
   3 C3             1.2196    -0.6644    -0.0132 C.ar    
   4 C4             2.3852     0.0931    -0.0203 C.ar    
   5 C5             2.2919     1.4904    -0.0119 C.ar    
   6 N6             1.1174     2.0853     0.0026 N.ar    
   7 C7            -1.3101     2.1021     0.0197 C.2     
   8 O8            -2.3567     1.4696     0.0212 O.co2   
   9 O9            -1.3346     3.3248     0.0264 O.co2   
  10 C10            4.6651    -0.2616    -0.8803 C.2     
  11 N11            5.6627    -1.0497    -0.5861 N.2     
  12 C12            5.3166    -1.8412     0.4402 C.2     
  13 C13            4.0557    -1.5360     0.8003 C.2     
  14 N14            3.6359    -0.5327    -0.0352 N.pl3   
  15 C15            6.1885    -2.8909     1.0796 C.3     
  16 O16            3.4237     2.2389    -0.0183 O.3     
  17 C17            3.2624     3.6588    -0.0091 C.3     
  18 H18           -0.9221    -0.5628     0.0082 H       
  19 H19            1.2624    -1.7435    -0.0191 H       
  20 H20            4.6598     0.4843    -1.6614 H       
  21 H21            3.4843    -1.9937     1.5943 H       
  22 H22            6.7568    -2.4436     1.8952 H       
  23 H23            5.5634    -3.6940     1.4700 H       
  24 H24            6.8761    -3.2943     0.3362 H       
  25 H25            2.7027     3.9666    -0.8924 H       
  26 H26            2.7191     3.9570     0.8875 H       
  27 H27            4.2425     4.1358    -0.0156 H       
@<TRIPOS>BOND
   1    1    2 ar
   2    1    6 ar
   3    1    7 1
   4    2    3 ar
   5    2   18 1
   6    3    4 ar
   7    3   19 1
   8    4    5 ar
   9    4   14 1
  10    5    6 ar
  11    5   16 1
  12    7    8 ar
  13    7    9 ar
  14   10   11 2
  15   10   14 1
  16   10   20 1
  17   11   12 1
  18   12   13 2
  19   12   15 1
  20   13   14 1
  21   13   21 1
  22   15   22 1
  23   15   23 1
  24   15   24 1
  25   16   17 1
  26   17   25 1
  27   17   26 1
  28   17   27 1

#	End of record

