#	Name: ASD04882515
#	Creating user name:	WinNT
#	Creation time:	15. 06. 2019 20:54

#	Modifying user name:	WinNT
#	Modification time:	15. 06. 2019 20:54

#	Program:	/corina/corina34_cracker 3.40 0067  02.08.2006

@<TRIPOS>MOLECULE
ASD04882515
  76   81    0    0    0
SMALL
NO_CHARGES


@<TRIPOS>ATOM
   1 C1            -0.0449     1.3795    -0.0142 C.ar    
   2 C2            -0.0294    -0.0181    -0.0069 C.ar    
   3 C3            -1.2244    -0.7283    -0.0202 C.ar    
   4 C4            -2.4273    -0.0580    -0.0401 C.ar    
   5 C5            -2.4499     1.3395    -0.0470 C.ar    
   6 C6            -1.2500     2.0560    -0.0288 C.ar    
   7 N7             1.1845    -0.6999     0.0132 N.3     
   8 C8             1.2915    -1.5499     1.2072 C.3     
   9 C9             1.3639    -1.4921    -1.2115 C.3     
  10 C10            2.7404    -2.1609    -1.1862 C.3     
  11 N11            2.8473    -3.0109     0.0078 N.3     
  12 C12            2.6679    -2.2186     1.2325 C.3     
  13 C13           -3.7387     2.0572    -0.0688 C.2     
  14 O14           -3.7574     3.2730    -0.0748 O.2     
  15 N15           -4.8952     1.3654    -0.0821 N.am    
  16 N16            1.1601     2.0940    -0.0008 N.am    
  17 C17            4.0597    -3.6918     0.0279 C.ar    
  18 C18            1.1967     3.3442     0.5014 C.2     
  19 C19            2.4740     4.0594     0.5963 C.2     
  20 O20            0.1701     3.8797     0.8762 O.2     
  21 O21            2.6654     5.3107     1.0752 O.3     
  22 C22            3.9710     5.5840     0.9868 C.2     
  23 N23            4.5906     4.5547     0.4742 N.2     
  24 C24            3.6991     3.5901     0.2246 C.2     
  25 C25            4.6240     6.8742     1.4110 C.3     
  26 C26            5.6989     6.7982     2.4972 C.3     
  27 C27            6.0962     7.0744     1.0457 C.3     
  28 C28           -6.1749     2.0782    -0.1038 C.3     
  29 C29           -7.3223     1.0660    -0.1155 C.3     
  30 C30           -8.6588     1.8104    -0.1381 C.3     
  31 N31           -9.7574     0.8413    -0.1493 N.am    
  32 C32          -10.3958     0.2992     1.0559 C.3     
  33 C33          -10.3141     0.3387    -1.2648 C.2     
  34 C34          -11.4111    -0.6386    -0.9040 C.3     
  35 C35          -11.1567    -0.9610     0.5879 C.3     
  36 O36           -9.9853     0.6273    -2.3960 O.2     
  37 C37            4.0699    -5.0794     0.1392 C.ar    
  38 C38            5.2841    -5.7439     0.1574 C.ar    
  39 C39            6.4500    -4.9959     0.0634 C.ar    
  40 C40            6.3655    -3.6222    -0.0446 C.ar    
  41 N41            5.1939    -3.0152    -0.0645 N.ar    
  42 Cl42           2.5807    -5.9640     0.2541 Cl      
  43 H43           -1.2094    -1.8082    -0.0152 H       
  44 H44           -3.3539    -0.6127    -0.0507 H       
  45 H45           -1.2644     3.1359    -0.0338 H       
  46 H46            1.1677    -0.9385     2.1011 H       
  47 H47            0.5158    -2.3152     1.1795 H       
  48 H48            0.5891    -2.2568    -1.2667 H       
  49 H49            1.2930    -0.8387    -2.0810 H       
  50 H50            2.8641    -2.7723    -2.0801 H       
  51 H51            3.5160    -1.3956    -1.1585 H       
  52 H52            3.4428    -1.4540     1.2877 H       
  53 H53            2.7388    -2.8721     2.1020 H       
  54 H54           -4.8803     0.3955    -0.0773 H       
  55 H55            1.9681     1.6890    -0.3529 H       
  56 H56            3.9098     2.6195    -0.1997 H       
  57 H57            3.9789     7.7528     1.4020 H       
  58 H58            5.7612     7.6269     3.2024 H       
  59 H59            5.9337     5.8150     2.9049 H       
  60 H60            6.5924     6.2729     0.4985 H       
  61 H61            6.4199     8.0848     0.7960 H       
  62 H62           -6.2551     2.7080     0.7822 H       
  63 H63           -6.2296     2.6996    -0.9976 H       
  64 H64           -7.2422     0.4362    -1.0014 H       
  65 H65           -7.2677     0.4446     0.7783 H       
  66 H66           -8.7389     2.4403     0.7478 H       
  67 H67           -8.7134     2.4319    -1.0319 H       
  68 H68           -9.6405     0.0312     1.7947 H       
  69 H69          -11.0917     1.0267     1.4738 H       
  70 H70          -12.3902    -0.1766    -1.0302 H       
  71 H71          -11.3329    -1.5408    -1.5105 H       
  72 H72          -10.5385    -1.8523     0.6945 H       
  73 H73          -12.0966    -1.0731     1.1285 H       
  74 H74            5.3236    -6.8197     0.2431 H       
  75 H75            7.4135    -5.4838     0.0751 H       
  76 H76            7.2702    -3.0368    -0.1176 H       
@<TRIPOS>BOND
   1    1    2 ar
   2    1   16 1
   3    1    6 ar
   4    2    3 ar
   5    2    7 1
   6    3    4 ar
   7    3   43 1
   8    4    5 ar
   9    4   44 1
  10    5    6 ar
  11    5   13 1
  12    6   45 1
  13    7    8 1
  14    7    9 1
  15    8   12 1
  16    8   46 1
  17    8   47 1
  18    9   10 1
  19    9   48 1
  20    9   49 1
  21   10   11 1
  22   10   50 1
  23   10   51 1
  24   11   12 1
  25   11   17 1
  26   12   52 1
  27   12   53 1
  28   13   14 2
  29   13   15 am
  30   15   28 1
  31   15   54 1
  32   16   18 am
  33   16   55 1
  34   17   37 ar
  35   17   41 ar
  36   18   19 1
  37   18   20 2
  38   19   21 1
  39   19   24 2
  40   21   22 1
  41   22   23 2
  42   22   25 1
  43   23   24 1
  44   24   56 1
  45   25   26 1
  46   25   27 1
  47   25   57 1
  48   26   27 1
  49   26   58 1
  50   26   59 1
  51   27   60 1
  52   27   61 1
  53   28   29 1
  54   28   62 1
  55   28   63 1
  56   29   30 1
  57   29   64 1
  58   29   65 1
  59   30   31 1
  60   30   66 1
  61   30   67 1
  62   31   32 1
  63   31   33 am
  64   32   35 1
  65   32   68 1
  66   32   69 1
  67   33   34 1
  68   33   36 2
  69   34   35 1
  70   34   70 1
  71   34   71 1
  72   35   72 1
  73   35   73 1
  74   37   38 ar
  75   37   42 1
  76   38   39 ar
  77   38   74 1
  78   39   40 ar
  79   39   75 1
  80   40   41 ar
  81   40   76 1

#	End of record

