#	Name: ASD03331327
#	Creating user name:	WinNT
#	Creation time:	15. 06. 2019 20:39

#	Modifying user name:	WinNT
#	Modification time:	15. 06. 2019 20:39

#	Program:	/corina/corina34_cracker 3.40 0067  02.08.2006

@<TRIPOS>MOLECULE
ASD03331327
  57   59    0    0    0
SMALL
NO_CHARGES


@<TRIPOS>ATOM
   1 C1             0.3346     1.6192     0.2633 C.3     
   2 C2             0.2778     0.1310     0.0264 C.2     
   3 C3             1.3703    -0.6260    -0.2363 C.2     
   4 C4             2.7660    -0.0598    -0.3253 C.3     
   5 C5             2.6471     1.4637    -0.4721 C.3     
   6 N6             1.7313     1.9883     0.5503 N.3     
   7 N7            -0.4304    -1.9397    -0.2203 N.2     
   8 N8             0.9626    -1.9082    -0.3908 N.am    
   9 C9            -0.8434    -0.7138     0.0304 C.2     
  10 C10            1.7535    -2.9656    -0.6607 C.2     
  11 O11            2.9519    -2.8112    -0.7874 O.2     
  12 N12            1.2149    -4.1943    -0.7901 N.am    
  13 C13           -2.2469    -0.2991     0.2741 C.ar    
  14 C14           -3.0448    -1.0171     1.1663 C.ar    
  15 C15           -4.3515    -0.6248     1.3889 C.ar    
  16 C16           -4.8672     0.4759     0.7291 C.ar    
  17 C17           -4.0800     1.1902    -0.1559 C.ar    
  18 C18           -2.7719     0.8117    -0.3822 C.ar    
  19 C19           -4.6501     2.3882    -0.8705 C.3     
  20 F20           -5.9796     2.5764    -0.4779 F       
  21 F21           -3.9024     3.5249    -0.5448 F       
  22 F22           -4.5975     2.1756    -2.2523 F       
  23 F23           -2.5416    -2.0928     1.8103 F       
  24 C24            1.2646    -6.4155    -1.7663 C.2     
  25 C25            2.0746    -5.3437    -1.0835 C.3     
  26 C26            2.6524    -5.8947     0.2216 C.3     
  27 C27            1.5141    -6.4021     1.1092 C.3     
  28 O28            0.0697    -6.4890    -1.5718 O.2     
  29 N29            1.8680    -7.2923    -2.5930 N.am    
  30 C30            1.1027    -8.3996    -3.1714 C.3     
  31 C31            3.6084    -7.0477    -0.0905 C.3     
  32 C32            3.4125    -4.7853     0.9514 C.3     
  33 H33           -0.0094     2.1464    -0.6265 H       
  34 H34           -0.2965     1.8804     1.1128 H       
  35 H35            3.3205    -0.3009     0.5816 H       
  36 H36            3.2780    -0.4753    -1.1932 H       
  37 H37            3.6298     1.9181    -0.3466 H       
  38 H38            2.2607     1.7037    -1.4627 H       
  39 H39            1.8291     2.9881     0.6446 H       
  40 H40            0.2581    -4.3176    -0.6890 H       
  41 H41           -4.9708    -1.1788     2.0788 H       
  42 H42           -5.8888     0.7786     0.9053 H       
  43 H43           -2.1578     1.3735    -1.0705 H       
  44 H44            2.8884    -5.0311    -1.7378 H       
  45 H45            0.9726    -7.1924     0.5894 H       
  46 H46            1.9258    -6.7946     2.0390 H       
  47 H47            0.8330    -5.5806     1.3316 H       
  48 H48            2.8090    -7.1903    -2.8052 H       
  49 H49            1.7541    -8.9978    -3.8085 H       
  50 H50            0.7048    -9.0234    -2.3710 H       
  51 H51            0.2797    -8.0015    -3.7650 H       
  52 H52            4.4550    -6.6723    -0.6654 H       
  53 H53            3.9672    -7.4847     0.8414 H       
  54 H54            3.0841    -7.8077    -0.6700 H       
  55 H55            2.7314    -3.9639     1.1738 H       
  56 H56            3.8241    -5.1779     1.8812 H       
  57 H57            4.2234    -4.4239     0.3190 H       
@<TRIPOS>BOND
   1    1    2 1
   2    1    6 1
   3    1   33 1
   4    1   34 1
   5    2    3 2
   6    2    9 1
   7    3    4 1
   8    3    8 1
   9    4    5 1
  10    4   35 1
  11    4   36 1
  12    5    6 1
  13    5   37 1
  14    5   38 1
  15    6   39 1
  16    7    8 1
  17    7    9 2
  18    8   10 am
  19    9   13 1
  20   10   11 2
  21   10   12 am
  22   12   25 1
  23   12   40 1
  24   13   14 ar
  25   13   18 ar
  26   14   15 ar
  27   14   23 1
  28   15   16 ar
  29   15   41 1
  30   16   17 ar
  31   16   42 1
  32   17   18 ar
  33   17   19 1
  34   18   43 1
  35   19   20 1
  36   19   21 1
  37   19   22 1
  38   24   28 2
  39   24   29 am
  40   24   25 1
  41   25   26 1
  42   25   44 1
  43   26   27 1
  44   26   31 1
  45   26   32 1
  46   27   45 1
  47   27   46 1
  48   27   47 1
  49   29   30 1
  50   29   48 1
  51   30   49 1
  52   30   50 1
  53   30   51 1
  54   31   52 1
  55   31   53 1
  56   31   54 1
  57   32   55 1
  58   32   56 1
  59   32   57 1

#	End of record

