#	Name: ASD01810747
#	Creating user name:	WinNT
#	Creation time:	15. 06. 2019 19:25

#	Modifying user name:	WinNT
#	Modification time:	15. 06. 2019 19:25

#	Program:	/corina/corina34_cracker 3.40 0067  02.08.2006

@<TRIPOS>MOLECULE
ASD01810747
  25   26    0    0    0
SMALL
NO_CHARGES


@<TRIPOS>ATOM
   1 N1            -0.0161     1.3329     0.0094 N.am    
   2 C2             0.0022    -0.0041     0.0176 C.2     
   3 C3             1.2767    -0.7995     0.0403 C.3     
   4 N4             2.4064     0.0511    -0.3578 N.3     
   5 C5             2.3992     1.3010     0.4195 C.3     
   6 C6             1.1984     2.1431    -0.0149 C.3     
   7 O7            -1.0545    -0.5997     0.0067 O.2     
   8 N8            -2.7995     3.5473     0.0917 N.pl3   
   9 N9            -3.4364     2.3062    -0.0339 N.2     
  10 C10           -2.5190     1.3745    -0.0775 C.2     
  11 C11           -1.2617     1.9885     0.0187 C.2     
  12 C12           -1.4596     3.3276     0.1221 C.2     
  13 C13           -3.4612     4.8520     0.1700 C.3     
  14 H14            1.4477    -1.1802     1.0472 H       
  15 H15            1.1929    -1.6371    -0.6522 H       
  16 H16            3.2826    -0.4373    -0.2492 H       
  17 H17            2.3185     1.0704     1.4818 H       
  18 H18            3.3201     1.8533     0.2321 H       
  19 H19            1.3646     2.5155    -1.0258 H       
  20 H20            1.0837     2.9872     0.6652 H       
  21 H21           -2.6991     0.3137    -0.1713 H       
  22 H22           -0.6912     4.0811     0.2122 H       
  23 H23           -3.6662     5.0934     1.2130 H       
  24 H24           -2.8117     5.6152    -0.2587 H       
  25 H25           -4.3981     4.8182    -0.3860 H       
@<TRIPOS>BOND
   1    1    2 am
   2    1    6 1
   3    1   11 1
   4    2    3 1
   5    2    7 2
   6    3    4 1
   7    3   14 1
   8    3   15 1
   9    4    5 1
  10    4   16 1
  11    5    6 1
  12    5   17 1
  13    5   18 1
  14    6   19 1
  15    6   20 1
  16    8    9 1
  17    8   12 1
  18    8   13 1
  19    9   10 2
  20   10   11 1
  21   10   21 1
  22   11   12 2
  23   12   22 1
  24   13   23 1
  25   13   24 1
  26   13   25 1

#	End of record

