#	Name: ASD01911409
#	Creating user name:	WinNT
#	Creation time:	15. 06. 2019 19:57

#	Modifying user name:	WinNT
#	Modification time:	15. 06. 2019 19:57

#	Program:	/corina/corina34_cracker 3.40 0067  02.08.2006

@<TRIPOS>MOLECULE
ASD01911409
  35   37    0    0    0
SMALL
NO_CHARGES


@<TRIPOS>ATOM
   1 N1            -0.0079     1.4083    -0.0034 N.2     
   2 N2            -0.0062     0.0083    -0.0447 N.pl3   
   3 C3             1.2404     1.8249     0.0377 C.2     
   4 C4             2.0818     0.6997     0.0239 C.2     
   5 C5             1.2913    -0.4109    -0.0271 C.2     
   6 C6             1.7571    -1.8152    -0.0578 C.ar    
   7 C7             1.6830     3.2408     0.0889 C.ar    
   8 C8             0.7410     4.2673     0.0972 C.ar    
   9 C9            -1.1896    -0.8537    -0.0974 C.3     
  10 C10           -1.6270    -1.0193    -1.5300 C.2     
  11 O11           -2.6985    -1.7733    -1.8217 O.3     
  12 O12           -1.0132    -0.4733    -2.4160 O.2     
  13 C13            1.1568     5.5822     0.1449 C.ar    
  14 C14            2.5087     5.8823     0.1840 C.ar    
  15 C15            3.4487     4.8646     0.1759 C.ar    
  16 C16            3.0414     3.5468     0.1346 C.ar    
  17 F17            2.9116     7.1710     0.2297 F       
  18 C18            0.9327    -2.8149    -0.5748 C.ar    
  19 C19            1.3716    -4.1223    -0.6012 C.ar    
  20 C20            3.0243    -2.1430     0.4249 C.ar    
  21 C21            3.4537    -3.4535     0.3941 C.ar    
  22 C22            2.6287    -4.4437    -0.1148 C.ar    
  23 F23            3.0539    -5.7257    -0.1428 F       
  24 H24            3.1615     0.7120     0.0486 H       
  25 H25           -0.3131     4.0342     0.0661 H       
  26 H26           -0.9474    -1.8294     0.3237 H       
  27 H27           -1.9959    -0.3994     0.4785 H       
  28 H28           -2.9406    -1.8498    -2.7547 H       
  29 H29            0.4272     6.3785     0.1514 H       
  30 H30            4.5017     5.1028     0.2061 H       
  31 H31            3.7748     2.7540     0.1287 H       
  32 H32           -0.0475    -2.5656    -0.9535 H       
  33 H33            0.7341    -4.8970    -1.0012 H       
  34 H34            3.6681    -1.3720     0.8217 H       
  35 H35            4.4346    -3.7083     0.7676 H       
@<TRIPOS>BOND
   1    1    2 1
   2    1    3 2
   3    2    9 1
   4    2    5 1
   5    3    4 1
   6    3    7 1
   7    4    5 2
   8    4   24 1
   9    5    6 1
  10    6   18 ar
  11    6   20 ar
  12    7    8 ar
  13    7   16 ar
  14    8   13 ar
  15    8   25 1
  16    9   10 1
  17    9   26 1
  18    9   27 1
  19   10   11 1
  20   10   12 2
  21   11   28 1
  22   13   14 ar
  23   13   29 1
  24   14   15 ar
  25   14   17 1
  26   15   16 ar
  27   15   30 1
  28   16   31 1
  29   18   19 ar
  30   18   32 1
  31   19   22 ar
  32   19   33 1
  33   20   21 ar
  34   20   34 1
  35   21   22 ar
  36   21   35 1
  37   22   23 1

#	End of record

