#	Name: ASD02198668
#	Creating user name:	WinNT
#	Creation time:	15. 06. 2019 20:19

#	Modifying user name:	WinNT
#	Modification time:	15. 06. 2019 20:19

#	Program:	/corina/corina34_cracker 3.40 0067  02.08.2006

@<TRIPOS>MOLECULE
ASD02198668
  38   41    0    0    0
SMALL
NO_CHARGES


@<TRIPOS>ATOM
   1 C1            -0.0439     1.5053    -0.1134 C.2     
   2 C2            -0.0745     0.1656     0.0995 C.2     
   3 N3             1.0693    -0.5368     0.2617 N.pl3   
   4 N4             2.2342    -0.0029     0.2276 N.2     
   5 C5             2.4066     1.2863     0.0290 C.2     
   6 C6             1.2214     2.1383    -0.1594 C.2     
   7 C7             0.9768    -1.9161     0.4783 C.ar    
   8 C8             1.5768    -2.4879     1.5957 C.ar    
   9 C9             1.4829    -3.8515     1.8068 C.ar    
  10 C10            0.7931    -4.6460     0.9068 C.ar    
  11 C11            0.1953    -4.0777    -0.2063 C.ar    
  12 C12            0.2809    -2.7162    -0.4189 C.ar    
  13 C13            3.7640     1.8676    -0.0042 C.2     
  14 N14            4.3062     2.6069    -1.0177 N.pl3   
  15 N15            5.6086     2.9572    -0.6407 N.2     
  16 C16            5.8526     2.4576     0.5447 C.2     
  17 C17            4.7200     1.7715     0.9832 C.2     
  18 C18            3.6729     2.9519    -2.2185 C.ar    
  19 C19            2.9052     2.0131    -2.8950 C.ar    
  20 O20            1.3252     3.3413    -0.3476 O.2     
  21 C21            3.8069     4.2352    -2.7320 C.ar    
  22 C22            3.1813     4.5723    -3.9162 C.ar    
  23 C23            2.4221     3.6335    -4.5904 C.ar    
  24 C24            2.2821     2.3565    -4.0787 C.ar    
  25 F25            2.2505    -1.7124     2.4731 F       
  26 F26            0.7032    -5.9780     1.1142 F       
  27 H27           -0.9549     2.0695    -0.2479 H       
  28 H28           -1.0247    -0.3461     0.1402 H       
  29 H29            1.9481    -4.2968     2.6738 H       
  30 H30           -0.3421    -4.7000    -0.9065 H       
  31 H31           -0.1859    -2.2745    -1.2869 H       
  32 H32            6.7765     2.5628     1.0939 H       
  33 H33            4.6140     1.2525     1.9243 H       
  34 H34            2.7958     1.0155    -2.4960 H       
  35 H35            4.3994     4.9689    -2.2057 H       
  36 H36            3.2848     5.5703    -4.3159 H       
  37 H37            1.9338     3.8996    -5.5163 H       
  38 H38            1.6888     1.6254    -4.6078 H       
@<TRIPOS>BOND
   1    1    2 2
   2    1    6 1
   3    1   27 1
   4    2    3 1
   5    2   28 1
   6    3    4 1
   7    3    7 1
   8    4    5 2
   9    5    6 1
  10    5   13 1
  11    6   20 2
  12    7    8 ar
  13    7   12 ar
  14    8    9 ar
  15    8   25 1
  16    9   10 ar
  17    9   29 1
  18   10   11 ar
  19   10   26 1
  20   11   12 ar
  21   11   30 1
  22   12   31 1
  23   13   14 1
  24   13   17 2
  25   14   15 1
  26   14   18 1
  27   15   16 2
  28   16   17 1
  29   16   32 1
  30   17   33 1
  31   18   21 ar
  32   18   19 ar
  33   19   24 ar
  34   19   34 1
  35   21   22 ar
  36   21   35 1
  37   22   23 ar
  38   22   36 1
  39   23   24 ar
  40   23   37 1
  41   24   38 1

#	End of record

