#	Name: ASD07930311
#	Creating user name:	WinNT
#	Creation time:	15. 06. 2019 21:12

#	Modifying user name:	WinNT
#	Modification time:	15. 06. 2019 21:12

#	Program:	/corina/corina34_cracker 3.40 0067  02.08.2006

@<TRIPOS>MOLECULE
ASD07930311
  47   48    0    0    0
SMALL
NO_CHARGES


@<TRIPOS>ATOM
   1 N1             0.0695     1.4483     0.1947 N.pl3   
   2 C2             0.0021    -0.0041     0.0020 C.3     
   3 C3             0.5412    -0.7049     1.2572 C.3     
   4 N4             2.0264     1.5670     1.4935 N.am    
   5 C5             1.2723     2.0494     0.4482 C.2     
   6 C6            -1.4292    -0.4154    -0.2289 C.ar    
   7 C7            -1.7133    -1.5334    -0.9936 C.ar    
   8 C8             2.6262     2.4626     2.4857 C.3     
   9 C9             0.8505    -0.3992    -1.2083 C.3     
  10 C10           -2.4599     0.3214     0.3285 C.ar    
  11 C11           -3.7750    -0.0567     0.1168 C.ar    
  12 C12           -4.0598    -1.1702    -0.6506 C.ar    
  13 C13           -3.0305    -1.9111    -1.2049 C.ar    
  14 F14           -0.7079    -2.2559    -1.5342 F       
  15 F15           -2.1826     1.4095     1.0796 F       
  16 F16           -3.3093    -2.9992    -1.9555 F       
  17 S17            2.2236    -0.0856     1.5755 S.o2    
  18 O18            2.6064    -0.3338     2.9212 O.2     
  19 O19            3.0890    -0.3967     0.4922 O.2     
  20 N20            1.6976     3.0634    -0.2894 N.2     
  21 O21            1.3807     4.5494    -2.0530 O.3     
  22 C22            0.5287     4.9804    -3.1162 C.3     
  23 C23           -0.8177     5.4260    -2.5422 C.3     
  24 C24            1.1828     6.1524    -3.8508 C.3     
  25 C25            0.3088     3.8245    -4.0941 C.3     
  26 C26            0.9472     3.5160    -1.3012 C.2     
  27 O27           -0.1263     2.9954    -1.5432 O.2     
  28 H28           -0.7377     1.9831     0.1385 H       
  29 H29           -0.1009    -0.4796     2.1087 H       
  30 H30            0.5708    -1.7821     1.0930 H       
  31 H31            2.3726     3.4947     2.2439 H       
  32 H32            2.2426     2.2167     3.4759 H       
  33 H33            3.7095     2.3426     2.4757 H       
  34 H34            1.8197     0.0961    -1.1499 H       
  35 H35            0.9944    -1.4796    -1.2141 H       
  36 H36            0.3418    -0.0955    -2.1233 H       
  37 H37           -4.5786     0.5187     0.5520 H       
  38 H38           -5.0859    -1.4647    -0.8146 H       
  39 H39           -0.6611     6.2495    -1.8455 H       
  40 H40           -1.4676     5.7547    -3.3532 H       
  41 H41           -1.2838     4.5911    -2.0189 H       
  42 H42            2.1421     5.8350    -4.2597 H       
  43 H43            0.5330     6.4811    -4.6618 H       
  44 H44            1.3395     6.9759    -3.1541 H       
  45 H45           -0.1572     2.9895    -3.5708 H       
  46 H46           -0.3410     4.1532    -4.9051 H       
  47 H47            1.2680     3.5071    -4.5031 H       
@<TRIPOS>BOND
   1    1    2 1
   2    1    5 1
   3    1   28 1
   4    2    3 1
   5    2    6 1
   6    2    9 1
   7    3   17 1
   8    3   29 1
   9    3   30 1
  10    4    5 1
  11    4    8 1
  12    4   17 am
  13    5   20 2
  14    6   10 ar
  15    6    7 ar
  16    7   14 1
  17    7   13 ar
  18    8   31 1
  19    8   32 1
  20    8   33 1
  21    9   34 1
  22    9   35 1
  23    9   36 1
  24   10   11 ar
  25   10   15 1
  26   11   12 ar
  27   11   37 1
  28   12   13 ar
  29   12   38 1
  30   13   16 1
  31   17   18 2
  32   17   19 2
  33   20   26 1
  34   21   22 1
  35   21   26 1
  36   22   23 1
  37   22   24 1
  38   22   25 1
  39   23   39 1
  40   23   40 1
  41   23   41 1
  42   24   42 1
  43   24   43 1
  44   24   44 1
  45   25   45 1
  46   25   46 1
  47   25   47 1
  48   26   27 2

#	End of record

