#	Name: ASD01914377
#	Creating user name:	WinNT
#	Creation time:	15. 06. 2019 20:03

#	Modifying user name:	WinNT
#	Modification time:	15. 06. 2019 20:03

#	Program:	/corina/corina34_cracker 3.40 0067  02.08.2006

@<TRIPOS>MOLECULE
ASD01914377
  46   47    0    0    0
SMALL
NO_CHARGES


@<TRIPOS>ATOM
   1 C1             0.8760     0.4511     1.9768 C.ar    
   2 C2             0.0384     0.1321     0.9213 C.ar    
   3 C3             0.3854     0.4857    -0.3717 C.ar    
   4 C4             1.5681     1.1576    -0.6111 C.ar    
   5 C5             2.4094     1.4784     0.4459 C.ar    
   6 C6             2.0596     1.1228     1.7418 C.ar    
   7 N7             3.6090     2.1595     0.2054 N.am    
   8 C8             3.6141     3.6210     0.1050 C.3     
   9 C9             3.8422     4.2176     1.4699 C.2     
  10 C10            3.8900     5.6791     1.6356 C.ar    
  11 C11            4.1016     6.2366     2.9007 C.ar    
  12 C12            4.1450     7.6069     3.0477 C.ar    
  13 C13            3.9795     8.4301     1.9475 C.ar    
  14 C14            3.7698     7.8861     0.6922 C.ar    
  15 C15            3.7299     6.5177     0.5278 C.ar    
  16 O16            3.9864     3.4934     2.4317 O.2     
  17 C17            4.0275     9.9268     2.1173 C.3     
  18 F18           -1.1188    -0.5255     1.1533 F       
  19 C19            4.7590     1.4705     0.0663 C.2     
  20 O20            5.7808     2.0504    -0.2348 O.2     
  21 C21            4.7752    -0.0205     0.2850 C.3     
  22 C22            6.1950    -0.5219     0.2224 C.2     
  23 O23            7.1007     0.2520     0.0208 O.2     
  24 O24            6.4533    -1.8284     0.3905 O.3     
  25 C25            7.8438    -2.2401     0.3173 C.3     
  26 C26            7.9400    -3.7519     0.5314 C.3     
  27 H27            0.6014     0.1783     2.9851 H       
  28 H28           -0.2691     0.2357    -1.1937 H       
  29 H29            1.8386     1.4329    -1.6198 H       
  30 H30            2.7124     1.3718     2.5653 H       
  31 H31            4.4121     3.9363    -0.5673 H       
  32 H32            2.6548     3.9617    -0.2848 H       
  33 H33            4.2301     5.5954     3.7602 H       
  34 H34            4.3083     8.0389     4.0239 H       
  35 H35            3.6412     8.5351    -0.1614 H       
  36 H36            3.5662     6.0946    -0.4523 H       
  37 H37            5.0536    10.2736     1.9951 H       
  38 H38            3.3929    10.3981     1.3668 H       
  39 H39            3.6707    10.1911     3.1127 H       
  40 H40            4.3521    -0.2488     1.2632 H       
  41 H41            4.1832    -0.5078    -0.4897 H       
  42 H42            8.2471    -1.9855    -0.6628 H       
  43 H43            8.4159    -1.7266     1.0901 H       
  44 H44            7.5368    -4.0065     1.5116 H       
  45 H45            7.3679    -4.2654    -0.2413 H       
  46 H46            8.9838    -4.0610     0.4765 H       
@<TRIPOS>BOND
   1    1    2 ar
   2    1    6 ar
   3    1   27 1
   4    2    3 ar
   5    2   18 1
   6    3    4 ar
   7    3   28 1
   8    4    5 ar
   9    4   29 1
  10    5    6 ar
  11    5    7 1
  12    6   30 1
  13    7    8 1
  14    7   19 am
  15    8    9 1
  16    8   31 1
  17    8   32 1
  18    9   10 1
  19    9   16 2
  20   10   11 ar
  21   10   15 ar
  22   11   12 ar
  23   11   33 1
  24   12   13 ar
  25   12   34 1
  26   13   14 ar
  27   13   17 1
  28   14   15 ar
  29   14   35 1
  30   15   36 1
  31   17   37 1
  32   17   38 1
  33   17   39 1
  34   19   20 2
  35   19   21 1
  36   21   22 1
  37   21   40 1
  38   21   41 1
  39   22   23 2
  40   22   24 1
  41   24   25 1
  42   25   26 1
  43   25   42 1
  44   25   43 1
  45   26   44 1
  46   26   45 1
  47   26   46 1

#	End of record

