#	Name: ASD03430546
#	Creating user name:	WinNT
#	Creation time:	15. 06. 2019 20:41

#	Modifying user name:	WinNT
#	Modification time:	15. 06. 2019 20:41

#	Program:	/corina/corina34_cracker 3.40 0067  02.08.2006

@<TRIPOS>MOLECULE
ASD03430546
  46   50    0    0    0
SMALL
NO_CHARGES


@<TRIPOS>ATOM
   1 N1            -0.0102     1.3585     0.0160 N.am    
   2 C2             0.0234     0.0153     0.0261 C.2     
   3 C3             1.4809    -0.3940     0.0083 C.3     
   4 C4             2.2307     0.9181    -0.0128 C.ar    
   5 C5             3.5715     1.2300    -0.0352 C.ar    
   6 C6             3.9717     2.5547    -0.0520 C.ar    
   7 C7             3.0222     3.5603    -0.0463 C.ar    
   8 C8             1.6782     3.2504    -0.0239 C.ar    
   9 C9             1.2675     1.9188    -0.0068 C.ar    
  10 O10           -0.9338    -0.7293     0.0460 O.2     
  11 C11           -1.2465     2.1445     0.0219 C.3     
  12 C12           -1.6050     2.5276    -1.3909 C.ar    
  13 C13           -2.7679     2.0399    -1.9568 C.ar    
  14 C14           -3.0887     2.3988    -3.2568 C.ar    
  15 C15           -2.2238     3.2386    -3.9422 C.ar    
  16 C16           -1.0791     3.6866    -3.3110 C.ar    
  17 N17           -0.8083     3.3285    -2.0709 N.ar    
  18 C18           -3.6755     1.1292    -1.1707 C.3     
  19 F19           -4.8327     0.8700    -1.9129 F       
  20 F20           -3.0126    -0.0739    -0.9051 F       
  21 F21           -4.0237     1.7459     0.0358 F       
  22 O22            2.6839    -3.1134     4.7823 O.3     
  23 C23            1.9357    -2.2601     5.6684 C.3     
  24 O24            1.8703    -1.0070     4.9623 O.3     
  25 C25            1.9565    -1.3300     3.6378 C.ar    
  26 C26            2.4568    -2.6254     3.5279 C.ar    
  27 C27            1.6416    -0.6119     2.4964 C.ar    
  28 C28            1.8242    -1.1785     1.2484 C.ar    
  29 C29            2.3223    -2.4676     1.1365 C.ar    
  30 C30            2.6387    -3.1909     2.2768 C.ar    
  31 O31            2.5002    -3.0232    -0.0918 O.3     
  32 F32            0.6514    -2.7741     5.8776 F       
  33 F33            2.6084    -2.1043     6.8851 F       
  34 H34            1.7034    -0.9755    -0.8864 H       
  35 H35            4.3100     0.4420    -0.0392 H       
  36 H36            5.0227     2.8026    -0.0693 H       
  37 H37            3.3347     4.5940    -0.0591 H       
  38 H38            0.9428     4.0414    -0.0195 H       
  39 H39           -2.0525     1.5506     0.4529 H       
  40 H40           -1.1011     3.0460     0.6170 H       
  41 H41           -3.9905     2.0327    -3.7249 H       
  42 H42           -2.4419     3.5384    -4.9565 H       
  43 H43           -0.4004     4.3409    -3.8379 H       
  44 H44            1.2537     0.3925     2.5810 H       
  45 H45            3.0269    -4.1949     2.1892 H       
  46 H46            3.3746    -2.8637    -0.4727 H       
@<TRIPOS>BOND
   1    1    2 am
   2    1    9 1
   3    1   11 1
   4    2    3 1
   5    2   10 2
   6    3    4 1
   7    3   28 1
   8    3   34 1
   9    4    5 ar
  10    4    9 ar
  11    5    6 ar
  12    5   35 1
  13    6    7 ar
  14    6   36 1
  15    7    8 ar
  16    7   37 1
  17    8    9 ar
  18    8   38 1
  19   11   12 1
  20   11   39 1
  21   11   40 1
  22   12   13 ar
  23   12   17 ar
  24   13   14 ar
  25   13   18 1
  26   14   15 ar
  27   14   41 1
  28   15   16 ar
  29   15   42 1
  30   16   17 ar
  31   16   43 1
  32   18   19 1
  33   18   20 1
  34   18   21 1
  35   22   23 1
  36   22   26 1
  37   23   24 1
  38   23   32 1
  39   23   33 1
  40   24   25 1
  41   25   26 ar
  42   25   27 ar
  43   26   30 ar
  44   27   28 ar
  45   27   44 1
  46   28   29 ar
  47   29   30 ar
  48   29   31 1
  49   30   45 1
  50   31   46 1

#	End of record

