#	Name: ASD08150188
#	Creating user name:	WinNT
#	Creation time:	15. 06. 2019 21:15

#	Modifying user name:	WinNT
#	Modification time:	15. 06. 2019 21:15

#	Program:	/corina/corina34_cracker 3.40 0067  02.08.2006

@<TRIPOS>MOLECULE
ASD08150188
  47   51    0    0    0
SMALL
NO_CHARGES


@<TRIPOS>ATOM
   1 N1            -0.0157     1.2951    -0.0515 N.2     
   2 C2             0.0018    -0.0026    -0.0874 C.2     
   3 N3             1.1464    -0.7343    -0.1048 N.am    
   4 C4             2.3544    -0.1243    -0.0848 C.2     
   5 C5             2.3698     1.3455    -0.0439 C.ar    
   6 C6             3.5600     2.0697    -0.0212 C.ar    
   7 C7             3.5164     3.4462     0.0164 C.ar    
   8 C8             2.2988     4.1141     0.0322 C.ar    
   9 C9             1.1117     3.4172     0.0107 C.ar    
  10 C10            1.1297     2.0215    -0.0284 C.ar    
  11 O11            3.3878    -0.7674    -0.0995 O.2     
  12 C12            4.8853     1.3525    -0.0372 C.3     
  13 C13            1.0724    -2.1968    -0.1451 C.3     
  14 C14            1.0500    -2.6664    -1.6011 C.3     
  15 C15            1.0924    -4.1741    -1.8578 C.3     
  16 C16           -0.2038    -3.3948    -2.0893 C.3     
  17 C17           -1.3151    -0.7349    -0.1106 C.3     
  18 S18           -2.6720     0.4626    -0.0804 S.3     
  19 N19           -5.9128     1.1017    -0.0703 N.2     
  20 C20           -7.2100     1.0022    -0.0764 C.2     
  21 N21           -7.5759    -0.3117    -0.1138 N.pl3   
  22 C22           -6.4252    -1.0585    -0.1316 C.ar    
  23 N23           -6.1529    -2.3593    -0.1674 N.ar    
  24 C24           -4.9000    -2.7852    -0.1765 C.ar    
  25 N25           -3.8684    -1.9516    -0.1499 N.ar    
  26 C26           -4.0498    -0.6352    -0.1138 C.ar    
  27 C27           -5.3650    -0.1378    -0.1033 C.ar    
  28 N28           -4.6574    -4.1485    -0.2136 N.pl3   
  29 H29            4.4369     4.0107     0.0341 H       
  30 H30            2.2830     5.1935     0.0621 H       
  31 H31            0.1710     3.9475     0.0234 H       
  32 H32            5.1525     1.1056    -1.0647 H       
  33 H33            5.6522     1.9967     0.3929 H       
  34 H34            4.8098     0.4365     0.5487 H       
  35 H35            1.9416    -2.6187     0.3594 H       
  36 H36            0.1640    -2.5287     0.3577 H       
  37 H37            1.5658    -2.0203    -2.3114 H       
  38 H38            1.6357    -4.5198    -2.7373 H       
  39 H39            1.1362    -4.8315    -0.9895 H       
  40 H40           -1.0127    -3.5395    -1.3732 H       
  41 H41           -0.5132    -3.2278    -3.1210 H       
  42 H42           -1.3809    -1.3357    -1.0178 H       
  43 H43           -1.3848    -1.3850     0.7615 H       
  44 H44           -7.8957     1.8363    -0.0550 H       
  45 H45           -8.4832    -0.6548    -0.1257 H       
  46 H46           -5.3995    -4.7729    -0.2326 H       
  47 H47           -3.7454    -4.4788    -0.2208 H       
@<TRIPOS>BOND
   1    1    2 2
   2    1   10 1
   3    2    3 1
   4    2   17 1
   5    3    4 am
   6    3   13 1
   7    4    5 1
   8    4   11 2
   9    5    6 ar
  10    5   10 ar
  11    6    7 ar
  12    6   12 1
  13    7    8 ar
  14    7   29 1
  15    8    9 ar
  16    8   30 1
  17    9   10 ar
  18    9   31 1
  19   12   32 1
  20   12   33 1
  21   12   34 1
  22   13   14 1
  23   13   35 1
  24   13   36 1
  25   14   15 1
  26   14   16 1
  27   14   37 1
  28   15   16 1
  29   15   38 1
  30   15   39 1
  31   16   40 1
  32   16   41 1
  33   17   18 1
  34   17   42 1
  35   17   43 1
  36   18   26 1
  37   19   20 2
  38   19   27 1
  39   20   21 1
  40   20   44 1
  41   21   22 1
  42   21   45 1
  43   22   23 ar
  44   22   27 ar
  45   23   24 ar
  46   24   25 ar
  47   24   28 1
  48   25   26 ar
  49   26   27 ar
  50   28   46 1
  51   28   47 1

#	End of record

