#	Name: ASD08710125
#	Creating user name:	WinNT
#	Creation time:	15. 06. 2019 21:19

#	Modifying user name:	WinNT
#	Modification time:	15. 06. 2019 21:19

#	Program:	/corina/corina34_cracker 3.40 0067  02.08.2006

@<TRIPOS>MOLECULE
ASD08710125
  36   37    0    0    0
SMALL
NO_CHARGES


@<TRIPOS>ATOM
   1 N1            -0.0179     1.4666     0.0101 N.am    
   2 C2             0.0021    -0.0041     0.0020 C.3     
   3 C3             0.9085    -0.4723    -1.1414 C.3     
   4 N4             2.2251     0.1660    -1.0110 N.3     
   5 C5             2.1249     1.6258    -1.1417 C.3     
   6 C6             1.2683     2.1800     0.0017 C.3     
   7 S7            -1.4505     2.2971     0.0215 S.o2    
   8 O8            -1.1734     3.5825    -0.5173 O.2     
   9 O9            -2.4270     1.4202    -0.5231 O.2     
  10 C10           -1.8936     2.5496     1.7080 C.ar    
  11 C11           -1.4663     3.6849     2.3714 C.ar    
  12 C12           -1.8124     3.8852     3.6937 C.ar    
  13 C13           -2.5894     2.9459     4.3560 C.ar    
  14 C14           -3.0170     1.8075     3.6882 C.ar    
  15 C15           -2.6729     1.6147     2.3642 C.ar    
  16 O16           -2.9309     3.1404     5.6570 O.3     
  17 C17           -3.7327     2.1318     6.2750 C.3     
  18 F18           -3.0514     0.9103     6.2438 F       
  19 F19           -3.9892     2.4889     7.6032 F       
  20 F20           -4.9424     2.0089     5.5832 F       
  21 C21            1.0694    -1.9924    -1.0756 C.3     
  22 H22            0.3920    -0.3702     0.9518 H       
  23 H23           -1.0081    -0.3831    -0.1529 H       
  24 H24            0.4625    -0.1944    -2.0963 H       
  25 H25            2.6663    -0.0896    -0.1404 H       
  26 H26            3.1216     2.0644    -1.0951 H       
  27 H27            1.6619     1.8745    -2.0966 H       
  28 H28            1.0953     3.2449    -0.1535 H       
  29 H29            1.7799     2.0238     0.9514 H       
  30 H30           -0.8611     4.4157     1.8555 H       
  31 H31           -1.4781     4.7720     4.2116 H       
  32 H32           -3.6219     1.0749     4.2016 H       
  33 H33           -3.0094     0.7310     1.8425 H       
  34 H34            0.0920    -2.4656    -1.1699 H       
  35 H35            1.7142    -2.3251    -1.8890 H       
  36 H36            1.5166    -2.2695    -0.1209 H       
@<TRIPOS>BOND
   1    1    2 1
   2    1    6 1
   3    1    7 am
   4    2    3 1
   5    2   22 1
   6    2   23 1
   7    3    4 1
   8    3   21 1
   9    3   24 1
  10    4    5 1
  11    4   25 1
  12    5    6 1
  13    5   26 1
  14    5   27 1
  15    6   28 1
  16    6   29 1
  17    7    8 2
  18    7    9 2
  19    7   10 1
  20   10   11 ar
  21   10   15 ar
  22   11   12 ar
  23   11   30 1
  24   12   13 ar
  25   12   31 1
  26   13   14 ar
  27   13   16 1
  28   14   15 ar
  29   14   32 1
  30   15   33 1
  31   16   17 1
  32   17   18 1
  33   17   19 1
  34   17   20 1
  35   21   34 1
  36   21   35 1
  37   21   36 1

#	End of record

