#	Name: ASD05720158
#	Creating user name:	WinNT
#	Creation time:	15. 06. 2019 21:01

#	Modifying user name:	WinNT
#	Modification time:	15. 06. 2019 21:01

#	Program:	/corina/corina34_cracker 3.40 0067  02.08.2006

@<TRIPOS>MOLECULE
ASD05720158
  71   74    0    0    0
SMALL
NO_CHARGES


@<TRIPOS>ATOM
   1 C1            -0.6505     1.0121     0.7094 C.3     
   2 C2             0.8387     1.3568     0.6434 C.3     
   3 C3             1.5276     0.4490    -0.3774 C.3     
   4 C4             0.8251     0.5779    -1.7305 C.3     
   5 O5            -0.8051    -0.3772     1.0061 O.3     
   6 N6             1.4451     1.1572     1.9620 N.pl3   
   7 C7             0.7273     4.2894     3.5270 C.2     
   8 N8             0.7900     3.3063     2.6235 N.2     
   9 C9             1.3896     2.1647     2.9087 C.2     
  10 C10            1.9731     1.9722     4.1785 C.2     
  11 C11            1.9110     2.9650     5.0939 C.2     
  12 N12            1.2833     4.1357     4.7690 N.pl3   
  13 N13            1.0645     5.3161     5.4882 N.2     
  14 C14            0.4067     6.1648     4.7376 C.2     
  15 C15            0.1705     5.5751     3.4891 C.2     
  16 C16           -0.5356     6.1931     2.3453 C.ar    
  17 C17           -1.7826     6.7926     2.5359 C.ar    
  18 C18           -2.4397     7.3671     1.4721 C.ar    
  19 C19           -1.8592     7.3510     0.2013 C.ar    
  20 C20           -0.6116     6.7516     0.0110 C.ar    
  21 C21            0.0475     6.1819     1.0762 C.ar    
  22 C22           -2.5648     7.9673    -0.9412 C.2     
  23 N23           -2.0224     8.3021    -2.0916 N.2     
  24 C24           -2.9613     8.8316    -2.8848 C.2     
  25 C25           -4.1324     8.8319    -2.2168 C.2     
  26 N26           -3.8923     8.2813    -0.9856 N.pl3   
  27 C27           -4.8736     8.0719     0.0819 C.3     
  28 O28           -6.1785     8.3993    -0.3998 O.3     
  29 C29           -7.2153     8.2288     0.5687 C.3     
  30 C30           -8.5613     8.6062    -0.0531 C.3     
  31 Si31          -9.9129     8.3839     1.2096 Si      
  32 C32           -9.5777     9.4808     2.6777 C.3     
  33 C33          -11.5518     8.8436     0.4524 C.3     
  34 C34           -9.9608     6.6052     1.7614 C.3     
  35 C35            2.9931     0.8641    -0.5220 C.3     
  36 H36           -1.1265     1.6055     1.4900 H       
  37 H37           -1.1174     1.2328    -0.2505 H       
  38 H38            0.9577     2.3977     0.3426 H       
  39 H39            1.4748    -0.5854    -0.0378 H       
  40 H40           -0.1921     0.1947    -1.6497 H       
  41 H41            0.7960     1.6266    -2.0263 H       
  42 H42            1.3711     0.0042    -2.4795 H       
  43 H43           -1.7258    -0.6671     1.0633 H       
  44 H44            1.8855     0.3187     2.1714 H       
  45 H45            2.4644     1.0405     4.4172 H       
  46 H46            2.3520     2.8349     6.0712 H       
  47 H47            0.1001     7.1576     5.0319 H       
  48 H48           -2.2313     6.8050     3.5182 H       
  49 H49           -3.4043     7.8301     1.6193 H       
  50 H50           -0.1627     6.7391    -0.9712 H       
  51 H51            1.0139     5.7224     0.9300 H       
  52 H52           -2.8070     9.1968    -3.8894 H       
  53 H53           -5.0810     9.1946    -2.5840 H       
  54 H54           -4.8530     7.0280     0.3946 H       
  55 H55           -4.6289     8.7104     0.9307 H       
  56 H56           -7.2433     7.1881     0.8916 H       
  57 H57           -7.0191     8.8705     1.4277 H       
  58 H58           -8.5332     9.6470    -0.3760 H       
  59 H59           -8.7574     7.9645    -0.9121 H       
  60 H60           -9.5497    10.5215     2.3548 H       
  61 H61          -10.3685     9.3507     3.4165 H       
  62 H62           -8.6188     9.2119     3.1207 H       
  63 H63          -11.7479     8.2018    -0.4066 H       
  64 H64          -12.3426     8.7135     1.1911 H       
  65 H65          -11.5238     9.8843     0.1295 H       
  66 H66           -9.0019     6.3363     2.2044 H       
  67 H67          -10.7516     6.4751     2.5002 H       
  68 H68          -10.1569     5.9635     0.9024 H       
  69 H69            3.4936     0.7722     0.4419 H       
  70 H70            3.4839     0.2173    -1.2493 H       
  71 H71            3.0459     1.8984    -0.8617 H       
@<TRIPOS>BOND
   1    1    5 1
   2    1    2 1
   3    1   36 1
   4    1   37 1
   5    2    3 1
   6    2    6 1
   7    2   38 1
   8    3    4 1
   9    3   35 1
  10    3   39 1
  11    4   40 1
  12    4   41 1
  13    4   42 1
  14    5   43 1
  15    6    9 1
  16    6   44 1
  17    7    8 1
  18    7   12 1
  19    7   15 2
  20    8    9 2
  21    9   10 1
  22   10   11 2
  23   10   45 1
  24   11   12 1
  25   11   46 1
  26   12   13 1
  27   13   14 2
  28   14   15 1
  29   14   47 1
  30   15   16 1
  31   16   17 ar
  32   16   21 ar
  33   17   18 ar
  34   17   48 1
  35   18   19 ar
  36   18   49 1
  37   19   20 ar
  38   19   22 1
  39   20   21 ar
  40   20   50 1
  41   21   51 1
  42   22   23 2
  43   22   26 1
  44   23   24 1
  45   24   25 2
  46   24   52 1
  47   25   26 1
  48   25   53 1
  49   26   27 1
  50   27   28 1
  51   27   54 1
  52   27   55 1
  53   28   29 1
  54   29   30 1
  55   29   56 1
  56   29   57 1
  57   30   31 1
  58   30   58 1
  59   30   59 1
  60   31   32 1
  61   31   33 1
  62   31   34 1
  63   32   60 1
  64   32   61 1
  65   32   62 1
  66   33   63 1
  67   33   64 1
  68   33   65 1
  69   34   66 1
  70   34   67 1
  71   34   68 1
  72   35   69 1
  73   35   70 1
  74   35   71 1

#	End of record

