#	Name: ASD01913991
#	Creating user name:	WinNT
#	Creation time:	15. 06. 2019 20:02

#	Modifying user name:	WinNT
#	Modification time:	15. 06. 2019 20:02

#	Program:	/corina/corina34_cracker 3.40 0067  02.08.2006

@<TRIPOS>MOLECULE
ASD01913991
  34   37    0    0    0
SMALL
NO_CHARGES


@<TRIPOS>ATOM
   1 O1            -0.0748     1.1983    -0.0445 O.3     
   2 N2            -0.0368    -0.0138     0.0002 N.2     
   3 C3             1.1768    -0.4743    -0.2171 C.2     
   4 C4             1.9865     0.6566    -0.4245 C.2     
   5 C5             1.1314     1.7173    -0.3002 C.2     
   6 C6             3.4526     0.7582    -0.7221 C.3     
   7 C7             1.5353     3.1268    -0.4315 C.ar    
   8 C8             0.7374     4.1430     0.0935 C.ar    
   9 C9             1.1350     5.4587    -0.0216 C.ar    
  10 C10            2.3252     5.7752    -0.6556 C.ar    
  11 C11            3.1219     4.7803    -1.1853 C.ar    
  12 C12            2.7340     3.4496    -1.0869 C.ar    
  13 S13            3.7356     2.1898    -1.8032 S.3     
  14 C14            1.6032    -1.8947    -0.2383 C.2     
  15 O15            2.7653    -2.1770    -0.4529 O.2     
  16 N16            0.7015    -2.8722    -0.0197 N.am    
  17 C17            1.0818    -4.2129    -0.1358 C.ar    
  18 C18            2.3538    -4.6117     0.2543 C.ar    
  19 C19            2.7261    -5.9375     0.1387 C.ar    
  20 C20            1.8328    -6.8669    -0.3657 C.ar    
  21 C21            0.5663    -6.4721    -0.7545 C.ar    
  22 C22            0.1864    -5.1493    -0.6360 C.ar    
  23 Cl23           4.3156    -6.4377     0.6257 Cl      
  24 H24            4.0058     0.8882     0.2081 H       
  25 H25            3.7871    -0.1499    -1.2238 H       
  26 H26           -0.1909     3.9001     0.5892 H       
  27 H27            0.5158     6.2452     0.3839 H       
  28 H28            2.6317     6.8076    -0.7364 H       
  29 H29            4.0484     5.0366    -1.6776 H       
  30 H30           -0.2112    -2.6459     0.2182 H       
  31 H31            3.0511    -3.8865     0.6472 H       
  32 H32            2.1259    -7.9024    -0.4559 H       
  33 H33           -0.1284    -7.1995    -1.1480 H       
  34 H34           -0.8047    -4.8427    -0.9362 H       
@<TRIPOS>BOND
   1    1    2 1
   2    1    5 1
   3    2    3 2
   4    3    4 1
   5    3   14 1
   6    4    5 2
   7    4    6 1
   8    5    7 1
   9    6   13 1
  10    6   24 1
  11    6   25 1
  12    7    8 ar
  13    7   12 ar
  14    8    9 ar
  15    8   26 1
  16    9   10 ar
  17    9   27 1
  18   10   11 ar
  19   10   28 1
  20   11   12 ar
  21   11   29 1
  22   12   13 1
  23   14   15 2
  24   14   16 am
  25   16   17 1
  26   16   30 1
  27   17   18 ar
  28   17   22 ar
  29   18   19 ar
  30   18   31 1
  31   19   20 ar
  32   19   23 1
  33   20   21 ar
  34   20   32 1
  35   21   22 ar
  36   21   33 1
  37   22   34 1

#	End of record

