#	Name: ASD01150193
#	Creating user name:	WinNT
#	Creation time:	15. 06. 2019 19:03

#	Modifying user name:	WinNT
#	Modification time:	15. 06. 2019 19:03

#	Program:	/corina/corina34_cracker 3.40 0067  02.08.2006

@<TRIPOS>MOLECULE
ASD01150193
  59   62    0    0    0
SMALL
NO_CHARGES


@<TRIPOS>ATOM
   1 N1            -0.0168     1.3843     0.0097 N.pl3   
   2 C2             0.0021    -0.0041     0.0020 C.2     
   3 C3            -1.3269    -0.4137     0.0134 C.2     
   4 N4            -2.0859     0.6832     0.0270 N.2     
   5 C5            -1.3235     1.7579     0.0301 C.2     
   6 C6             1.0195    -0.9745    -0.0131 C.2     
   7 N7             0.6852    -2.2815    -0.0164 N.am    
   8 C8            -0.6025    -2.6668    -0.0053 C.2     
   9 N9            -1.6073    -1.7707     0.0093 N.am    
  10 O10            2.1909    -0.6384    -0.0237 O.2     
  11 C11           -2.9981    -2.2307     0.0216 C.3     
  12 O12           -0.8665    -3.8538    -0.0090 O.2     
  13 C13            1.7417    -3.2963    -0.0326 C.3     
  14 C14            2.1189    -3.6515     1.3825 C.ar    
  15 C15            1.4624    -4.6780     2.0356 C.ar    
  16 C16            1.8078    -5.0043     3.3335 C.ar    
  17 C17            2.8109    -4.3034     3.9791 C.ar    
  18 C18            3.4675    -3.2762     3.3250 C.ar    
  19 C19            3.1250    -2.9546     2.0251 C.ar    
  20 N20           -1.7793     3.0561     0.0436 N.3     
  21 C21            1.1469     2.2743     0.0033 C.3     
  22 C22           -3.4674    -2.3977     1.4682 C.3     
  23 Cl23           3.2449    -4.7122     5.6094 Cl      
  24 C24           -4.9199    -2.8781     1.4810 C.3     
  25 C25           -3.2642     3.0990     0.0539 C.3     
  26 C26           -3.6091     4.5004     0.6020 C.3     
  27 C27           -2.3732     4.9257     1.4213 C.3     
  28 C28           -1.3855     3.7455     1.2993 C.3     
  29 C29           -3.8127     2.9309    -1.3645 C.3     
  30 O30           -3.4183     4.0483    -2.1632 O.3     
  31 C31           -3.8816     3.9897    -3.5138 C.3     
  32 H32           -3.6278    -1.4974    -0.4823 H       
  33 H33           -3.0689    -3.1873    -0.4961 H       
  34 H34            1.3819    -4.1872    -0.5473 H       
  35 H35            2.6149    -2.9034    -0.5536 H       
  36 H36            0.6792    -5.2248     1.5316 H       
  37 H37            1.2946    -5.8060     3.8437 H       
  38 H38            4.2506    -2.7287     3.8284 H       
  39 H39            3.6375    -2.1527     1.5144 H       
  40 H40            1.4254     2.5009    -1.0258 H       
  41 H41            0.8998     3.1990     0.5249 H       
  42 H42            1.9811     1.7852     0.5062 H       
  43 H43           -2.8377    -3.1310     1.9721 H       
  44 H44           -3.3965    -1.4411     1.9859 H       
  45 H45           -5.5496    -2.1448     0.9771 H       
  46 H46           -4.9908    -3.8347     0.9633 H       
  47 H47           -5.2542    -2.9971     2.5116 H       
  48 H48           -3.6623     2.3254     0.7105 H       
  49 H49           -3.7771     5.1973    -0.2192 H       
  50 H50           -4.4893     4.4502     1.2430 H       
  51 H51           -1.9346     5.8313     1.0023 H       
  52 H52           -2.6468     5.0842     2.4644 H       
  53 H53           -1.4897     3.0731     2.1509 H       
  54 H54           -0.3618     4.1125     1.2266 H       
  55 H55           -3.4163     2.0142    -1.8011 H       
  56 H56           -4.9007     2.8756    -1.3291 H       
  57 H57           -3.4866     3.0950    -3.9949 H       
  58 H58           -4.9711     3.9564    -3.5230 H       
  59 H59           -3.5406     4.8731    -4.0535 H       
@<TRIPOS>BOND
   1    1    2 1
   2    1   21 1
   3    1    5 1
   4    2    3 2
   5    2    6 1
   6    3    4 1
   7    3    9 1
   8    4    5 2
   9    5   20 1
  10    6    7 am
  11    6   10 2
  12    7    8 am
  13    7   13 1
  14    8    9 am
  15    8   12 2
  16    9   11 1
  17   11   22 1
  18   11   32 1
  19   11   33 1
  20   13   14 1
  21   13   34 1
  22   13   35 1
  23   14   15 ar
  24   14   19 ar
  25   15   16 ar
  26   15   36 1
  27   16   17 ar
  28   16   37 1
  29   17   18 ar
  30   17   23 1
  31   18   19 ar
  32   18   38 1
  33   19   39 1
  34   20   25 1
  35   20   28 1
  36   21   40 1
  37   21   41 1
  38   21   42 1
  39   22   24 1
  40   22   43 1
  41   22   44 1
  42   24   45 1
  43   24   46 1
  44   24   47 1
  45   25   26 1
  46   25   29 1
  47   25   48 1
  48   26   27 1
  49   26   49 1
  50   26   50 1
  51   27   28 1
  52   27   51 1
  53   27   52 1
  54   28   53 1
  55   28   54 1
  56   29   30 1
  57   29   55 1
  58   29   56 1
  59   30   31 1
  60   31   57 1
  61   31   58 1
  62   31   59 1

#	End of record

