#	Name: ASD02030755
#	Creating user name:	WinNT
#	Creation time:	15. 06. 2019 20:16

#	Modifying user name:	WinNT
#	Modification time:	15. 06. 2019 20:16

#	Program:	/corina/corina34_cracker 3.40 0067  02.08.2006

@<TRIPOS>MOLECULE
ASD02030755
  39   40    0    0    0
SMALL
NO_CHARGES


@<TRIPOS>ATOM
   1 C1            -0.0163     1.3532     0.0095 C.ar    
   2 C2             0.0021    -0.0041     0.0020 C.ar    
   3 C3             1.2194    -0.7087    -0.0134 C.ar    
   4 C4             2.4262    -0.0274    -0.0212 C.ar    
   5 C5             2.4262     1.3751    -0.0136 C.ar    
   6 C6             1.1919     2.0737     0.0018 C.ar    
   7 C7             3.6303     2.1022    -0.0216 C.ar    
   8 C8             3.5956     3.4626    -0.0145 C.ar    
   9 C9             2.3826     4.1487     0.0007 C.ar    
  10 C10            1.1976     3.4785     0.0088 C.ar    
  11 C11            1.2114    -2.1851    -0.0207 C.2     
  12 C12            2.3827     5.6557     0.0088 C.3     
  13 C13            2.3690     6.1734    -1.4309 C.3     
  14 C14            2.3691     7.7034    -1.4227 C.3     
  15 C15            2.3554     8.2211    -2.8624 C.3     
  16 C16            1.0416     7.8200    -3.5362 C.3     
  17 C17            2.4812     9.7459    -2.8573 C.3     
  18 O18            2.2601    -2.7982    -0.0340 O.2     
  19 O19            0.0411    -2.8525    -0.0127 O.3     
  20 H20           -0.9590     1.8801     0.0168 H       
  21 H21           -0.9298    -0.5499     0.0083 H       
  22 H22            3.3588    -0.5719    -0.0326 H       
  23 H23            4.5775     1.5835    -0.0330 H       
  24 H24            4.5215     4.0186    -0.0203 H       
  25 H25            0.2659     4.0245     0.0202 H       
  26 H26            1.4976     6.0163     0.5330 H       
  27 H27            3.2775     6.0163     0.5161 H       
  28 H28            3.2541     5.8128    -1.9551 H       
  29 H29            1.4742     5.8128    -1.9382 H       
  30 H30            1.4841     8.0640    -0.8985 H       
  31 H31            3.2639     8.0640    -0.9154 H       
  32 H32            3.1921     7.7894    -3.4117 H       
  33 H33            1.0319     8.1888    -4.5618 H       
  34 H34            0.9520     6.7337    -3.5398 H       
  35 H35            0.2050     8.2517    -2.9869 H       
  36 H36            3.4172    10.0316    -2.3773 H       
  37 H37            2.4715    10.1147    -3.8830 H       
  38 H38            1.6446    10.1776    -2.3080 H       
  39 H39            0.0865    -3.8184    -0.0181 H       
@<TRIPOS>BOND
   1    1    2 ar
   2    1    6 ar
   3    1   20 1
   4    2    3 ar
   5    2   21 1
   6    3    4 ar
   7    3   11 1
   8    4    5 ar
   9    4   22 1
  10    5    7 ar
  11    5    6 ar
  12    6   10 ar
  13    7    8 ar
  14    7   23 1
  15    8    9 ar
  16    8   24 1
  17    9   10 ar
  18    9   12 1
  19   10   25 1
  20   11   18 2
  21   11   19 1
  22   12   13 1
  23   12   26 1
  24   12   27 1
  25   13   14 1
  26   13   28 1
  27   13   29 1
  28   14   15 1
  29   14   30 1
  30   14   31 1
  31   15   16 1
  32   15   17 1
  33   15   32 1
  34   16   33 1
  35   16   34 1
  36   16   35 1
  37   17   36 1
  38   17   37 1
  39   17   38 1
  40   19   39 1

#	End of record

