#	Name: ASD00480003
#	Creating user name:	WinNT
#	Creation time:	15. 06. 2019 18:36

#	Modifying user name:	WinNT
#	Modification time:	15. 06. 2019 18:36

#	Program:	/corina/corina34_cracker 3.40 0067  02.08.2006

@<TRIPOS>MOLECULE
ASD00480003
  34   37    0    0    0
SMALL
NO_CHARGES


@<TRIPOS>ATOM
   1 P1            -0.0180     1.4758     0.0102 P.3     
   2 O2             0.0021    -0.0041     0.0020 O.2     
   3 O3             1.4876     2.0460    -0.0012 O.3     
   4 C4            -2.2705     2.1591    -1.2379 C.3     
   5 O5            -0.8294     2.0266    -1.2835 O.3     
   6 C6            -2.5991     2.9175     0.0329 C.3     
   7 O7            -3.9727     3.2269     0.2540 O.3     
   8 C8            -2.2375     2.0329     1.2611 C.3     
   9 O9            -0.8086     2.0154     1.3318 O.3     
  10 C10           -2.9263     2.8091     2.3911 C.3     
  11 O11           -2.0197     3.7368     2.9908 O.3     
  12 C12           -4.0719     3.5584     1.6608 C.3     
  13 N13           -5.0247     7.6822     4.6717 N.ar    
  14 C14           -5.3614     6.4207     4.8691 C.ar    
  15 N15           -5.0544     5.4657     4.0166 N.ar    
  16 C16           -4.3807     5.7412     2.9047 C.ar    
  17 C17           -3.9991     7.0692     2.6487 C.ar    
  18 C18           -4.3501     8.0531     3.5883 C.ar    
  19 N19           -4.0021     9.3778     3.3900 N.pl3   
  20 N20           -3.3349     7.0731     1.4680 N.2     
  21 C21           -3.2857     5.8619     0.9946 C.2     
  22 N22           -3.9171     5.0035     1.8448 N.pl3   
  23 H23            2.0045     1.7763    -0.7726 H       
  24 H24           -2.6213     2.7169    -2.1061 H       
  25 H25           -2.7349     1.1732    -1.2143 H       
  26 H26           -2.0079     3.8323     0.0749 H       
  27 H27           -2.6377     1.0243     1.1577 H       
  28 H28           -3.3255     2.1249     3.1398 H       
  29 H29           -2.4053     4.2536     3.7114 H       
  30 H30           -5.0361     3.2332     2.0516 H       
  31 H31           -5.9091     6.1628     5.7634 H       
  32 H32           -4.2504    10.0479     4.0458 H       
  33 H33           -3.5097     9.6361     2.5952 H       
  34 H34           -2.8147     5.5786     0.0650 H       
@<TRIPOS>BOND
   1    1    2 2
   2    1    3 1
   3    1    5 1
   4    1    9 1
   5    3   23 1
   6    4    5 1
   7    4    6 1
   8    4   24 1
   9    4   25 1
  10    6    7 1
  11    6    8 1
  12    6   26 1
  13    7   12 1
  14    8    9 1
  15    8   10 1
  16    8   27 1
  17   10   11 1
  18   10   12 1
  19   10   28 1
  20   11   29 1
  21   12   22 1
  22   12   30 1
  23   13   14 ar
  24   13   18 ar
  25   14   15 ar
  26   14   31 1
  27   15   16 ar
  28   16   17 ar
  29   16   22 1
  30   17   18 ar
  31   17   20 1
  32   18   19 1
  33   19   32 1
  34   19   33 1
  35   20   21 2
  36   21   22 1
  37   21   34 1

#	End of record

