#	Name: ASD03091863
#	Creating user name:	WinNT
#	Creation time:	15. 06. 2019 20:31

#	Modifying user name:	WinNT
#	Modification time:	15. 06. 2019 20:31

#	Program:	/corina/corina34_cracker 3.40 0067  02.08.2006

@<TRIPOS>MOLECULE
ASD03091863
  41   44    0    0    0
SMALL
NO_CHARGES


@<TRIPOS>ATOM
   1 C1            -0.0183     1.4987     0.0103 C.ar    
   2 C2            -1.1977     2.2216     0.0311 C.ar    
   3 N3            -2.4298     1.5770     0.0261 N.pl3   
   4 C4            -2.5607     0.1366    -0.0426 C.3     
   5 C5             0.0021    -0.0041     0.0020 C.3     
   6 C6             1.2267     3.5535     0.0208 C.ar    
   7 C7             0.0480     4.2756     0.0481 C.ar    
   8 C8            -1.1626     3.6131     0.0542 C.ar    
   9 C9             1.1938     2.1733     0.0023 C.ar    
  10 C10           -3.7117    -0.2800     0.8364 C.ar    
  11 C11           -4.5746    -1.2761     0.4190 C.ar    
  12 C12           -5.6301    -1.6588     1.2251 C.ar    
  13 C13           -5.8230    -1.0450     2.4496 C.ar    
  14 C14           -4.9592    -0.0483     2.8669 C.ar    
  15 C15           -3.9009     0.3301     2.0624 C.ar    
  16 C16            0.9424    -0.4616     1.1059 C.2     
  17 C17           -1.3401    -0.6237     0.3820 C.3     
  18 C18           -1.2204    -0.7299     1.9163 C.3     
  19 C19            0.2663    -0.8524     2.1547 C.2     
  20 S20            2.7740     4.3963     0.0060 S.o2    
  21 O21            2.5201     5.6920    -0.5194 O.2     
  22 N22            3.2297     4.6123     1.5833 N.am    
  23 O23            3.7152     3.4972    -0.5641 O.2     
  24 Br24          -7.2672    -1.5677     3.5527 Br      
  25 H25           -3.2356     2.1151     0.0708 H       
  26 H26           -2.7988    -0.1394    -1.0698 H       
  27 H27            0.3435    -0.3729    -0.9652 H       
  28 H28            0.0746     5.3551     0.0664 H       
  29 H29           -2.0845     4.1752     0.0766 H       
  30 H30            2.1181     1.6150    -0.0181 H       
  31 H31           -4.4242    -1.7550    -0.5372 H       
  32 H32           -6.3045    -2.4367     0.8988 H       
  33 H33           -5.1096     0.4314     3.8227 H       
  34 H34           -3.2240     1.1054     2.3899 H       
  35 H35            2.0200    -0.4636     1.0337 H       
  36 H36           -1.3914    -1.6340    -0.0239 H       
  37 H37           -1.6119     0.1682     2.3940 H       
  38 H38           -1.7403    -1.6161     2.2804 H       
  39 H39            0.7110    -1.2143     3.0699 H       
  40 H40            2.6625     4.2888     2.3006 H       
  41 H41            4.0638     5.0623     1.7899 H       
@<TRIPOS>BOND
   1    1    5 1
   2    1    9 ar
   3    1    2 ar
   4    2    3 1
   5    2    8 ar
   6    3    4 1
   7    3   25 1
   8    4   17 1
   9    4   10 1
  10    4   26 1
  11    5   16 1
  12    5   17 1
  13    5   27 1
  14    6    7 ar
  15    6    9 ar
  16    6   20 1
  17    7    8 ar
  18    7   28 1
  19    8   29 1
  20    9   30 1
  21   10   11 ar
  22   10   15 ar
  23   11   12 ar
  24   11   31 1
  25   12   13 ar
  26   12   32 1
  27   13   14 ar
  28   13   24 1
  29   14   15 ar
  30   14   33 1
  31   15   34 1
  32   16   19 2
  33   16   35 1
  34   17   18 1
  35   17   36 1
  36   18   19 1
  37   18   37 1
  38   18   38 1
  39   19   39 1
  40   20   21 2
  41   20   22 am
  42   20   23 2
  43   22   40 1
  44   22   41 1

#	End of record

