#	Name: ASD08780007
#	Creating user name:	WinNT
#	Creation time:	15. 06. 2019 21:19

#	Modifying user name:	WinNT
#	Modification time:	15. 06. 2019 21:19

#	Program:	/corina/corina34_cracker 3.40 0067  02.08.2006

@<TRIPOS>MOLECULE
ASD08780007
  39   41    0    0    0
SMALL
NO_CHARGES


@<TRIPOS>ATOM
   1 C1            -0.2563     0.4056    -2.6157 C.2     
   2 C2            -0.1141    -0.5569    -1.5056 C.ar    
   3 C3             1.1051    -1.2059    -1.2936 C.ar    
   4 C4             1.2331    -2.1064    -0.2519 C.ar    
   5 C5             0.1453    -2.3644     0.5843 C.ar    
   6 C6            -1.0644    -1.7189     0.3722 C.ar    
   7 C7            -1.1963    -0.8163    -0.6615 C.ar    
   8 O8             0.6879     0.6343    -3.3467 O.2     
   9 N9            -1.4345     1.0267    -2.8223 N.am    
  10 O10            0.2713    -3.2490     1.6068 O.3     
  11 C11           -0.8814    -3.4655     2.4232 C.3     
  12 N12            2.4529    -2.7594    -0.0362 N.pl3   
  13 S13            3.7805    -0.3223    -0.4054 S.3     
  14 C14            3.6434    -2.0589    -0.1493 C.2     
  15 N15            4.8292    -2.5814    -0.0825 N.2     
  16 C16            5.8618    -1.7492    -0.2133 C.2     
  17 C17            5.5373    -0.4566    -0.4003 C.2     
  18 S18            8.6969    -1.1983    -0.3165 S.3     
  19 C19            9.7219    -2.6169    -0.1177 C.2     
  20 N20            8.9737    -3.6677     0.0417 N.2     
  21 C21            7.6696    -3.4839     0.0254 C.2     
  22 C22            7.2650    -2.2133    -0.1568 C.2     
  23 C23            6.6955    -4.6206     0.1986 C.3     
  24 N24           11.1074    -2.6133    -0.1298 N.pl3   
  25 H25            1.9452    -1.0051    -1.9420 H       
  26 H26           -1.9038    -1.9213     1.0209 H       
  27 H27           -2.1382    -0.3126    -0.8212 H       
  28 H28           -2.1889     0.8412    -2.2416 H       
  29 H29           -1.5279     1.6592    -3.5518 H       
  30 H30           -0.6450    -4.1925     3.2001 H       
  31 H31           -1.1813    -2.5248     2.8850 H       
  32 H32           -1.6970    -3.8441     1.8072 H       
  33 H33            2.4647    -3.7020     0.1925 H       
  34 H34            6.2343     0.3587    -0.5263 H       
  35 H35            6.4685    -4.7463     1.2573 H       
  36 H36            5.7777    -4.3988    -0.3460 H       
  37 H37            7.1358    -5.5388    -0.1901 H       
  38 H38           11.5892    -1.7808    -0.2555 H       
  39 H39           11.5957    -3.4432    -0.0126 H       
@<TRIPOS>BOND
   1    1    2 1
   2    1    8 2
   3    1    9 am
   4    2    3 ar
   5    2    7 ar
   6    3    4 ar
   7    3   25 1
   8    4    5 ar
   9    4   12 1
  10    5    6 ar
  11    5   10 1
  12    6    7 ar
  13    6   26 1
  14    7   27 1
  15    9   28 1
  16    9   29 1
  17   10   11 1
  18   11   30 1
  19   11   31 1
  20   11   32 1
  21   12   14 1
  22   12   33 1
  23   13   14 1
  24   13   17 1
  25   14   15 2
  26   15   16 1
  27   16   17 2
  28   16   22 1
  29   17   34 1
  30   18   19 1
  31   18   22 1
  32   19   20 2
  33   19   24 1
  34   20   21 1
  35   21   22 2
  36   21   23 1
  37   23   35 1
  38   23   36 1
  39   23   37 1
  40   24   38 1
  41   24   39 1

#	End of record

