#	Name: ASD01880847
#	Creating user name:	WinNT
#	Creation time:	15. 06. 2019 19:41

#	Modifying user name:	WinNT
#	Modification time:	15. 06. 2019 19:41

#	Program:	/corina/corina34_cracker 3.40 0067  02.08.2006

@<TRIPOS>MOLECULE
ASD01880847
  65   68    0    0    0
SMALL
NO_CHARGES


@<TRIPOS>ATOM
   1 N1             0.0437     1.3483    -0.5141 N.ar    
   2 C2             0.0788     0.0411    -0.6745 C.ar    
   3 N3             1.1844    -0.6524    -0.4913 N.ar    
   4 C4             2.3136    -0.0560    -0.1359 C.ar    
   5 C5             2.3248     1.3135     0.0435 C.ar    
   6 C6             1.1364     2.0180    -0.1582 C.ar    
   7 C7             3.5878     2.0292     0.4479 C.3     
   8 O8             4.3077     2.4229    -0.7221 O.3     
   9 C9             5.4776     3.0840    -0.5324 C.ar    
  10 C10            6.2288     3.4961    -1.6288 C.ar    
  11 C11            7.4118     4.1651    -1.4356 C.ar    
  12 C12            7.8685     4.4361    -0.1414 C.ar    
  13 C13            7.1099     4.0203     0.9563 C.ar    
  14 C14            5.9214     3.3538     0.7567 C.ar    
  15 C15            8.4416     4.7358    -2.3786 C.3     
  16 N16            9.4837     5.3321    -1.5351 N.am    
  17 C17            9.1491     5.1569    -0.2452 C.2     
  18 O18            9.8092     5.5394     0.7015 O.2     
  19 N19            1.0960     3.3938     0.0089 N.pl3   
  20 C20           -0.1222     4.0734    -0.0813 C.ar    
  21 C21           -1.2957     3.4567     0.3335 C.ar    
  22 C22           -2.4975     4.1310     0.2430 C.ar    
  23 C23           -2.5336     5.4185    -0.2604 C.ar    
  24 C24           -1.3672     6.0353    -0.6743 C.ar    
  25 C25           -0.1611     5.3690    -0.5807 C.ar    
  26 C26            7.1491     5.7101     2.7708 C.3     
  27 C27            7.5897     4.3047     2.3563 C.3     
  28 C28           10.4025     7.4986    -2.2013 C.3     
  29 C29           10.6905     6.0070    -2.0192 C.3     
  30 C30           -1.2644    -0.7460    -2.6047 C.3     
  31 C31           -1.1806    -0.6813    -1.0783 C.3     
  32 C32            4.3379    -0.9566    -1.2495 C.3     
  33 C33            3.5698    -0.8625     0.0703 C.3     
  34 H34            3.3333     2.9133     1.0325 H       
  35 H35            4.2069     1.3626     1.0482 H       
  36 H36            5.8818     3.2896    -2.6305 H       
  37 H37            5.3355     3.0331     1.6053 H       
  38 H38            8.8661     3.9429    -2.9943 H       
  39 H39            7.9884     5.4996    -3.0105 H       
  40 H40            1.9132     3.8847     0.1885 H       
  41 H41           -1.2683     2.4510     0.7261 H       
  42 H42           -3.4103     3.6521     0.5653 H       
  43 H43           -3.4749     5.9433    -0.3308 H       
  44 H44           -1.3988     7.0408    -1.0673 H       
  45 H45            0.7495     5.8513    -0.9040 H       
  46 H46            7.5759     6.4417     2.0848 H       
  47 H47            6.0614     5.7739     2.7394 H       
  48 H48            7.4961     5.9158     3.7834 H       
  49 H49            7.1628     3.5730     3.0423 H       
  50 H50            8.6773     4.2409     2.3877 H       
  51 H51           11.3004     8.0007    -2.5615 H       
  52 H52            9.5985     7.6276    -2.9260 H       
  53 H53           10.1033     7.9301    -1.2461 H       
  54 H54           11.4944     5.8780    -1.2945 H       
  55 H55           10.9897     5.5755    -2.9744 H       
  56 H56           -1.2795     0.2653    -3.0109 H       
  57 H57           -0.3980    -1.2809    -2.9937 H       
  58 H58           -2.1753    -1.2686    -2.8967 H       
  59 H59           -1.1655    -1.6927    -0.6721 H       
  60 H60           -2.0470    -0.1464    -0.6893 H       
  61 H61            5.2465    -1.5399    -1.1003 H       
  62 H62            3.7135    -1.4422    -1.9995 H       
  63 H63            4.6009     0.0452    -1.5891 H       
  64 H64            4.1942    -0.3770     0.8203 H       
  65 H65            3.3068    -1.8643     0.4099 H       
@<TRIPOS>BOND
   1    1    2 ar
   2    1    6 ar
   3    2    3 ar
   4    2   31 1
   5    3    4 ar
   6    4    5 ar
   7    4   33 1
   8    5    6 ar
   9    5    7 1
  10    6   19 1
  11    7    8 1
  12    7   34 1
  13    7   35 1
  14    8    9 1
  15    9   10 ar
  16    9   14 ar
  17   10   11 ar
  18   10   36 1
  19   11   12 ar
  20   11   15 1
  21   12   13 ar
  22   12   17 1
  23   13   14 ar
  24   13   27 1
  25   14   37 1
  26   15   16 1
  27   15   38 1
  28   15   39 1
  29   16   17 am
  30   16   29 1
  31   17   18 2
  32   19   20 1
  33   19   40 1
  34   20   21 ar
  35   20   25 ar
  36   21   22 ar
  37   21   41 1
  38   22   23 ar
  39   22   42 1
  40   23   24 ar
  41   23   43 1
  42   24   25 ar
  43   24   44 1
  44   25   45 1
  45   26   27 1
  46   26   46 1
  47   26   47 1
  48   26   48 1
  49   27   49 1
  50   27   50 1
  51   28   29 1
  52   28   51 1
  53   28   52 1
  54   28   53 1
  55   29   54 1
  56   29   55 1
  57   30   31 1
  58   30   56 1
  59   30   57 1
  60   30   58 1
  61   31   59 1
  62   31   60 1
  63   32   33 1
  64   32   61 1
  65   32   62 1
  66   32   63 1
  67   33   64 1
  68   33   65 1

#	End of record

