#	Name: ASD01917567
#	Creating user name:	WinNT
#	Creation time:	15. 06. 2019 20:09

#	Modifying user name:	WinNT
#	Modification time:	15. 06. 2019 20:09

#	Program:	/corina/corina34_cracker 3.40 0067  02.08.2006

@<TRIPOS>MOLECULE
ASD01917567
  33   36    0    0    0
SMALL
NO_CHARGES


@<TRIPOS>ATOM
   1 C1             2.1068     1.3387     0.7634 C.ar    
   2 C2             2.0481    -0.0407     0.7363 C.ar    
   3 N3             1.1404    -0.6650     0.0077 N.ar    
   4 C4             0.2576    -0.0069    -0.7199 C.ar    
   5 C5             0.2504     1.3721    -0.7470 C.ar    
   6 C6             1.1917     2.0702     0.0084 C.ar    
   7 N7             1.2170     3.4647     0.0086 N.am    
   8 C8             2.3924     4.1174     0.1026 C.2     
   9 C9             2.4295     5.5879    -0.0010 C.2     
  10 O10            3.4222     3.4937     0.2729 O.2     
  11 N11            1.3668     6.3931    -0.1881 N.2     
  12 N12            1.7564     7.6217    -0.2286 N.2     
  13 N13            3.1447     7.6485    -0.0578 N.pl3   
  14 C14            3.5429     6.3656     0.0819 C.2     
  15 C15            4.9706     5.9251     0.2793 C.3     
  16 S16            6.0508     7.0737    -0.6246 S.3     
  17 C17            5.3483     8.6472    -0.2520 C.ar    
  18 C18            3.9800     8.7721    -0.0228 C.ar    
  19 C19            3.4438    10.0204     0.2596 C.ar    
  20 C20            4.2617    11.1329     0.3076 C.ar    
  21 C21            5.6212    11.0085     0.0737 C.ar    
  22 C22            6.1647     9.7696    -0.1951 C.ar    
  23 Cl23           7.8703     9.6172    -0.4804 Cl      
  24 Cl24           3.1815    -0.9656     1.6710 Cl      
  25 F25            6.4173    12.0988     0.1255 F       
  26 H26            2.8485     1.8435     1.3646 H       
  27 H27           -0.4684    -0.5552    -1.3019 H       
  28 H28           -0.4746     1.9040    -1.3453 H       
  29 H29            0.3885     3.9647    -0.0590 H       
  30 H30            5.2183     5.9458     1.3406 H       
  31 H31            5.1008     4.9151    -0.1095 H       
  32 H32            2.3842    10.1227     0.4420 H       
  33 H33            3.8398    12.1023     0.5279 H       
@<TRIPOS>BOND
   1    1    2 ar
   2    1    6 ar
   3    1   26 1
   4    2    3 ar
   5    2   24 1
   6    3    4 ar
   7    4    5 ar
   8    4   27 1
   9    5    6 ar
  10    5   28 1
  11    6    7 1
  12    7    8 am
  13    7   29 1
  14    8    9 1
  15    8   10 2
  16    9   11 1
  17    9   14 2
  18   11   12 2
  19   12   13 1
  20   13   18 1
  21   13   14 1
  22   14   15 1
  23   15   16 1
  24   15   30 1
  25   15   31 1
  26   16   17 1
  27   17   22 ar
  28   17   18 ar
  29   18   19 ar
  30   19   20 ar
  31   19   32 1
  32   20   21 ar
  33   20   33 1
  34   21   22 ar
  35   21   25 1
  36   22   23 1

#	End of record

