#	Name: ASD03330489
#	Creating user name:	WinNT
#	Creation time:	15. 06. 2019 20:37

#	Modifying user name:	WinNT
#	Modification time:	15. 06. 2019 20:37

#	Program:	/corina/corina34_cracker 3.40 0067  02.08.2006

@<TRIPOS>MOLECULE
ASD03330489
  54   56    0    0    0
SMALL
NO_CHARGES


@<TRIPOS>ATOM
   1 C1             0.4410     1.7706     0.1745 C.3     
   2 N2             0.7638     0.3568     0.4124 N.3     
   3 C3             0.9633    -0.3653    -0.8572 C.3     
   4 C4             1.9252     0.4321    -1.6995 C.2     
   5 N5             2.2453     1.7353    -1.4524 N.pl3   
   6 C6             1.6832     2.5083    -0.3415 C.3     
   7 C7             2.6228     0.0497    -2.7977 C.2     
   8 N8             3.3579     1.1090    -3.2071 N.2     
   9 C9             3.1358     2.1240    -2.4021 C.2     
  10 C10            3.7517     3.4646    -2.5120 C.ar    
  11 C11            2.5871    -1.2806    -3.4307 C.2     
  12 O12            1.8827    -2.1564    -2.9661 O.2     
  13 C13            3.2996    -2.8491    -5.1538 C.3     
  14 N14            3.3351    -1.5267    -4.5245 N.am    
  15 C15           -0.2725    -0.2897     1.2285 C.3     
  16 C16            4.2904    -3.7767    -4.4476 C.3     
  17 C17            3.6770    -2.7240    -6.6074 C.2     
  18 O18            4.3654    -1.7966    -6.9775 O.2     
  19 N19            3.2496    -3.6427    -7.4961 N.am    
  20 C20            3.6956    -3.5764    -8.8900 C.3     
  21 C21            4.3996     3.8430    -3.6881 C.ar    
  22 C22            4.9726     5.0944    -3.7862 C.ar    
  23 C23            4.9061     5.9750    -2.7206 C.ar    
  24 C24            4.2638     5.6052    -1.5481 C.ar    
  25 C25            3.6815     4.3570    -1.4418 C.ar    
  26 C26            4.1861    -5.1824    -5.0427 C.3     
  27 C27            5.7123    -3.2456    -4.6402 C.3     
  28 Cl28           5.6294     7.5476    -2.8516 Cl      
  29 F29            4.2025     6.4689    -0.5111 F       
  30 H30           -0.3557     1.8407    -0.5661 H       
  31 H31            0.1090     2.2281     1.1065 H       
  32 H32            1.3792    -1.3530    -0.6580 H       
  33 H33            0.0112    -0.4640    -1.3786 H       
  34 H34            1.4025     3.5023    -0.6900 H       
  35 H35            2.4196     2.5925     0.4577 H       
  36 H36            2.2943    -3.2627    -5.0738 H       
  37 H37            3.8969    -0.8281    -4.8951 H       
  38 H38           -1.2423    -0.1708     0.7453 H       
  39 H39           -0.0451    -1.3509     1.3306 H       
  40 H40           -0.2990     0.1727     2.2152 H       
  41 H41            4.0577    -3.8145    -3.3835 H       
  42 H42            2.6467    -4.3478    -7.2128 H       
  43 H43            3.3875    -2.6258    -9.3252 H       
  44 H44            4.7818    -3.6585    -8.9282 H       
  45 H45            3.2492    -4.3957    -9.4536 H       
  46 H46            4.4529     3.1571    -4.5206 H       
  47 H47            5.4745     5.3872    -4.6965 H       
  48 H48            3.1814     4.0691    -0.5288 H       
  49 H49            4.8180    -5.8652    -4.4747 H       
  50 H50            3.1511    -5.5210    -4.9956 H       
  51 H51            4.5149    -5.1624    -6.0818 H       
  52 H52            5.7867    -2.2442    -4.2162 H       
  53 H53            6.4182    -3.9065    -4.1371 H       
  54 H54            5.9451    -3.2079    -5.7044 H       
@<TRIPOS>BOND
   1    1    2 1
   2    1    6 1
   3    1   30 1
   4    1   31 1
   5    2    3 1
   6    2   15 1
   7    3    4 1
   8    3   32 1
   9    3   33 1
  10    4    5 1
  11    4    7 2
  12    5    6 1
  13    5    9 1
  14    6   34 1
  15    6   35 1
  16    7    8 1
  17    7   11 1
  18    8    9 2
  19    9   10 1
  20   10   21 ar
  21   10   25 ar
  22   11   12 2
  23   11   14 am
  24   13   14 1
  25   13   16 1
  26   13   17 1
  27   13   36 1
  28   14   37 1
  29   15   38 1
  30   15   39 1
  31   15   40 1
  32   16   26 1
  33   16   27 1
  34   16   41 1
  35   17   18 2
  36   17   19 am
  37   19   20 1
  38   19   42 1
  39   20   43 1
  40   20   44 1
  41   20   45 1
  42   21   22 ar
  43   21   46 1
  44   22   23 ar
  45   22   47 1
  46   23   24 ar
  47   23   28 1
  48   24   25 ar
  49   24   29 1
  50   25   48 1
  51   26   49 1
  52   26   50 1
  53   26   51 1
  54   27   52 1
  55   27   53 1
  56   27   54 1

#	End of record

