#	Name: ASD01120284
#	Creating user name:	WinNT
#	Creation time:	15. 06. 2019 18:59

#	Modifying user name:	WinNT
#	Modification time:	15. 06. 2019 18:59

#	Program:	/corina/corina34_cracker 3.40 0067  02.08.2006

@<TRIPOS>MOLECULE
ASD01120284
  43   45    0    0    0
SMALL
NO_CHARGES


@<TRIPOS>ATOM
   1 C1            -0.7331     1.2399     0.0277 C.3     
   2 C2            -0.3271    -0.2328     0.1135 C.3     
   3 O3             0.1348    -0.6841    -1.1870 O.3     
   4 C4             0.5326    -1.9693    -1.2834 C.2     
   5 O5             0.4943    -2.6925    -0.3066 O.2     
   6 C6             1.0115    -2.4946    -2.5666 C.2     
   7 N7             1.1028    -1.7753    -3.7450 N.pl3   
   8 C8             1.5937    -2.6010    -4.7292 C.ar    
   9 C9             1.8129    -3.8647    -4.1479 C.ar    
  10 C10            1.4430    -3.7660    -2.7880 C.2     
  11 C11            2.3187    -4.9153    -4.9374 C.ar    
  12 C12            2.5939    -4.6924    -6.2742 C.ar    
  13 C13            2.3743    -3.4438    -6.8368 C.ar    
  14 C14            1.8801    -2.4058    -6.0773 C.ar    
  15 N15            1.6528    -1.0804    -6.6965 N.pl3   
  16 O16            1.9027    -0.9084    -7.8761 O.2     
  17 O17            1.2159    -0.1620    -6.0262 O.2     
  18 N18            2.5407    -6.1698    -4.3758 N.pl3   
  19 C19            2.8921    -7.2480    -5.1916 C.ar    
  20 C20            3.8859    -8.1312    -4.7877 C.ar    
  21 C21            4.2328    -9.1976    -5.5945 C.ar    
  22 C22            3.5931    -9.3890    -6.8043 C.ar    
  23 C23            2.5998    -8.5097    -7.2133 C.ar    
  24 C24            2.2447    -7.4420    -6.4046 C.ar    
  25 O25            1.9720    -8.6992    -8.4036 O.3     
  26 C26            2.3848    -9.8237    -9.1829 C.3     
  27 H27            0.1259     1.8362    -0.2799 H       
  28 H28           -1.5346     1.3538    -0.7022 H       
  29 H29           -1.0798     1.5787     1.0040 H       
  30 H30            0.4744    -0.3468     0.8434 H       
  31 H31           -1.1861    -0.8292     0.4211 H       
  32 H32            0.8602    -0.8430    -3.8584 H       
  33 H33            1.4886    -4.5593    -2.0565 H       
  34 H34            2.9823    -5.4950    -6.8836 H       
  35 H35            2.5935    -3.2832    -7.8821 H       
  36 H36            2.4514    -6.2952    -3.4181 H       
  37 H37            4.3876    -7.9836    -3.8428 H       
  38 H38            5.0057    -9.8828    -5.2792 H       
  39 H39            3.8666   -10.2236    -7.4327 H       
  40 H40            1.4721    -6.7569    -6.7212 H       
  41 H41            3.4441    -9.7309    -9.4220 H       
  42 H42            2.2192   -10.7395    -8.6154 H       
  43 H43            1.8057    -9.8584   -10.1057 H       
@<TRIPOS>BOND
   1    1    2 1
   2    1   27 1
   3    1   28 1
   4    1   29 1
   5    2    3 1
   6    2   30 1
   7    2   31 1
   8    3    4 1
   9    4    5 2
  10    4    6 1
  11    6    7 1
  12    6   10 2
  13    7    8 1
  14    7   32 1
  15    8    9 ar
  16    8   14 ar
  17    9   10 1
  18    9   11 ar
  19   10   33 1
  20   11   12 ar
  21   11   18 1
  22   12   13 ar
  23   12   34 1
  24   13   14 ar
  25   13   35 1
  26   14   15 1
  27   15   16 2
  28   15   17 2
  29   18   19 1
  30   18   36 1
  31   19   20 ar
  32   19   24 ar
  33   20   21 ar
  34   20   37 1
  35   21   22 ar
  36   21   38 1
  37   22   23 ar
  38   22   39 1
  39   23   24 ar
  40   23   25 1
  41   24   40 1
  42   25   26 1
  43   26   41 1
  44   26   42 1
  45   26   43 1

#	End of record

