#	Name: ASD00311166
#	Creating user name:	WinNT
#	Creation time:	15. 06. 2019 18:34

#	Modifying user name:	WinNT
#	Modification time:	15. 06. 2019 18:34

#	Program:	/corina/corina34_cracker 3.40 0067  02.08.2006

@<TRIPOS>MOLECULE
ASD00311166
  36   39    0    0    0
SMALL
NO_CHARGES


@<TRIPOS>ATOM
   1 C1            -0.0167     1.3774     0.0096 C.2     
   2 C2             0.0021    -0.0041     0.0020 C.2     
   3 C3             1.2586    -0.6767    -0.0136 C.2     
   4 C4             2.4315     0.0671    -0.0208 C.2     
   5 C5             2.3575     1.4748    -0.0126 C.2     
   6 N6             1.1650     2.0900     0.0022 N.am    
   7 C7            -1.3435    -0.5755     0.0123 C.2     
   8 C8            -2.3233     0.3267     0.0268 C.2     
   9 S9            -1.6791     1.9565     0.0358 S.3     
  10 O10            3.3825     2.1369    -0.0184 O.2     
  11 C11           -1.5960    -2.0354     0.0062 C.ar    
  12 C12           -2.2065    -2.6449     1.1019 C.ar    
  13 C13           -2.4391    -4.0049     1.0904 C.ar    
  14 C14           -2.0680    -4.7637    -0.0052 C.ar    
  15 C15           -1.4616    -4.1649    -1.0950 C.ar    
  16 C16           -1.2294    -2.8047    -1.0977 C.ar    
  17 O17            1.3084    -2.0293    -0.0209 O.3     
  18 C18            3.7476    -0.6125    -0.0366 C.ar    
  19 C19            4.5932    -0.4750    -1.1372 C.ar    
  20 C20            5.8182    -1.1097    -1.1463 C.ar    
  21 C21            6.2086    -1.8820    -0.0656 C.ar    
  22 C22            5.3730    -2.0223     1.0294 C.ar    
  23 C23            4.1483    -1.3874     1.0516 C.ar    
  24 Cl24           7.7513    -2.6779    -0.0838 Cl      
  25 Cl25          -4.0154    -0.0609     0.0406 Cl      
  26 H26            1.1329     3.0595     0.0077 H       
  27 H27           -2.4963    -2.0536     1.9580 H       
  28 H28           -2.9114    -4.4781     1.9386 H       
  29 H29           -2.2520    -5.8279    -0.0097 H       
  30 H30           -1.1734    -4.7625    -1.9472 H       
  31 H31           -0.7604    -2.3375    -1.9511 H       
  32 H32            2.2056    -2.3898    -0.0315 H       
  33 H33            4.2894     0.1269    -1.9809 H       
  34 H34            6.4736    -1.0043    -1.9982 H       
  35 H35            5.6823    -2.6265     1.8695 H       
  36 H36            3.4993    -1.4936     1.9083 H       
@<TRIPOS>BOND
   1    1    2 2
   2    1    6 1
   3    1    9 1
   4    2    3 1
   5    2    7 1
   6    3    4 2
   7    3   17 1
   8    4    5 1
   9    4   18 1
  10    5    6 am
  11    5   10 2
  12    6   26 1
  13    7    8 2
  14    7   11 1
  15    8    9 1
  16    8   25 1
  17   11   12 ar
  18   11   16 ar
  19   12   13 ar
  20   12   27 1
  21   13   14 ar
  22   13   28 1
  23   14   15 ar
  24   14   29 1
  25   15   16 ar
  26   15   30 1
  27   16   31 1
  28   17   32 1
  29   18   19 ar
  30   18   23 ar
  31   19   20 ar
  32   19   33 1
  33   20   21 ar
  34   20   34 1
  35   21   22 ar
  36   21   24 1
  37   22   23 ar
  38   22   35 1
  39   23   36 1

#	End of record

