#	Name: ASD01812500
#	Creating user name:	WinNT
#	Creation time:	15. 06. 2019 19:28

#	Modifying user name:	WinNT
#	Modification time:	15. 06. 2019 19:28

#	Program:	/corina/corina34_cracker 3.40 0067  02.08.2006

@<TRIPOS>MOLECULE
ASD01812500
  48   52    0    0    0
SMALL
NO_CHARGES


@<TRIPOS>ATOM
   1 C1            -0.0179     1.4558     0.0036 C.ar    
   2 C2             0.0019    -0.0040    -0.0077 C.ar    
   3 C3            -1.2294    -0.7014     0.0514 C.ar    
   4 C4            -2.4414     0.0171     0.1199 C.ar    
   5 C5            -2.4531     1.3713     0.1304 C.ar    
   6 C6            -1.2610     2.1105     0.0783 C.ar    
   7 C7            -1.2208    -2.1046     0.0411 C.ar    
   8 C8            -0.0350    -2.7734    -0.0252 C.ar    
   9 C9             1.1727    -2.0852    -0.0826 C.ar    
  10 C10            1.2008    -0.7211    -0.0746 C.ar    
  11 N11            1.1101     2.1840    -0.0495 N.2     
  12 C12            1.0861     3.4846    -0.0387 C.2     
  13 N13           -0.0648     4.2047     0.0267 N.am    
  14 C14           -1.2630     3.5788     0.0886 C.2     
  15 C15           -3.7457    -0.7352     0.1819 C.3     
  16 C16           -4.0454    -1.1041     1.6119 C.ar    
  17 C17           -3.5933    -2.3001     2.1335 C.ar    
  18 C18           -4.7738    -0.2429     2.4206 C.ar    
  19 C19           -5.0267    -0.6205     3.7280 C.ar    
  20 C20           -4.5459    -1.8411     4.1838 C.ar    
  21 N21           -3.8506    -2.6327     3.3841 N.ar    
  22 O22           -2.3030     4.2091     0.1518 O.2     
  23 O23           -4.7867    -2.2226     5.4634 O.3     
  24 C24           -4.2657    -3.4890     5.8718 C.3     
  25 C25           -0.0101     5.6015     0.0350 C.ar    
  26 C26            0.5741     7.6680     1.0856 C.ar    
  27 C27            0.5388     6.2888     1.1159 C.ar    
  28 C28           -0.4978     6.3423    -1.0397 C.ar    
  29 C29           -0.4254     7.7195    -0.9928 C.ar    
  30 N30            0.0969     8.3341     0.0515 N.ar    
  31 H31           -3.3976     1.8925     0.1831 H       
  32 H32           -2.1504    -2.6527     0.0859 H       
  33 H33           -0.0329    -3.8534    -0.0329 H       
  34 H34            2.0993    -2.6375    -0.1339 H       
  35 H35            2.1444    -0.1976    -0.1196 H       
  36 H36            2.0246     4.0172    -0.0834 H       
  37 H37           -4.5468    -0.1062    -0.2066 H       
  38 H38           -3.6714    -1.6414    -0.4192 H       
  39 H39           -3.0222    -2.9719     1.5098 H       
  40 H40           -5.1348     0.7006     2.0385 H       
  41 H41           -5.5901     0.0255     4.3850 H       
  42 H42           -4.5288    -3.6713     6.9137 H       
  43 H43           -4.6900    -4.2750     5.2470 H       
  44 H44           -3.1808    -3.4868     5.7660 H       
  45 H45            0.9977     8.2089     1.9188 H       
  46 H46            0.9309     5.7496     1.9656 H       
  47 H47           -0.9262     5.8455    -1.8977 H       
  48 H48           -0.8007     8.3017    -1.8214 H       
@<TRIPOS>BOND
   1    1    2 ar
   2    1   11 1
   3    1    6 ar
   4    2   10 ar
   5    2    3 ar
   6    3    4 ar
   7    3    7 ar
   8    4    5 ar
   9    4   15 1
  10    5    6 ar
  11    5   31 1
  12    6   14 1
  13    7    8 ar
  14    7   32 1
  15    8    9 ar
  16    8   33 1
  17    9   10 ar
  18    9   34 1
  19   10   35 1
  20   11   12 2
  21   12   13 1
  22   12   36 1
  23   13   14 am
  24   13   25 1
  25   14   22 2
  26   15   16 1
  27   15   37 1
  28   15   38 1
  29   16   18 ar
  30   16   17 ar
  31   17   21 ar
  32   17   39 1
  33   18   19 ar
  34   18   40 1
  35   19   20 ar
  36   19   41 1
  37   20   21 ar
  38   20   23 1
  39   23   24 1
  40   24   42 1
  41   24   43 1
  42   24   44 1
  43   25   28 ar
  44   25   27 ar
  45   26   27 ar
  46   26   30 ar
  47   26   45 1
  48   27   46 1
  49   28   29 ar
  50   28   47 1
  51   29   30 ar
  52   29   48 1

#	End of record

