#	Name: ASD03092754
#	Creating user name:	WinNT
#	Creation time:	15. 06. 2019 20:33

#	Modifying user name:	WinNT
#	Modification time:	15. 06. 2019 20:33

#	Program:	/corina/corina34_cracker 3.40 0067  02.08.2006

@<TRIPOS>MOLECULE
ASD03092754
  39   40    0    0    0
SMALL
NO_CHARGES


@<TRIPOS>ATOM
   1 Cl1            0.0000     0.0000     0.0000 Cl      
   2 H2             0.0000     1.3700     0.0000 H       
   3 C3             6.2917    19.9494     9.5244 C.3     
   4 C4             6.3125    18.4196     9.5160 C.3     
   5 F5             6.9891    17.9562    10.6494 F       
   6 F6             5.0000    17.9354     9.5259 F       
   7 C7             7.0179    17.9336     8.2761 C.ar    
   8 C8             7.1599    16.5810     8.0379 C.ar    
   9 C9             7.8206    16.1785     6.8750 C.ar    
  10 N10            7.9882    14.8330     6.5906 N.pl3   
  11 C11            7.4706    13.8194     7.5130 C.3     
  12 C12            7.7815    12.4460     6.9760 C.ar    
  13 C13            6.8869    11.8061     6.1323 C.ar    
  14 N14            7.1324    10.6067     5.6491 N.ar    
  15 C15            8.2470     9.9516     5.9447 C.ar    
  16 N16            8.7378     8.7195     5.5845 N.pl3   
  17 H17            8.2867     8.0904     5.0000 H       
  18 C18            9.9569     8.5105     6.1716 C.2     
  19 C19           10.2940     9.5746     6.9170 C.2     
  20 C20            9.2014    10.5414     6.7959 C.ar    
  21 C21            8.9639    11.8156     7.3158 C.ar    
  22 C22           10.7956     7.2695     6.0059 C.3     
  23 F23           10.1358     6.3700     5.1617 F       
  24 F24           12.0313     7.6130     5.4470 F       
  25 F25           10.9984     6.6735     7.2552 F       
  26 N26            8.2857    17.1074     6.0451 N.ar    
  27 C27            8.1276    18.3881     6.3125 C.ar    
  28 N28            7.5047    18.7996     7.3982 N.ar    
  29 H29            7.3143    20.3267     9.5166 H       
  30 H30            5.7646    20.3105     8.6413 H       
  31 H31            5.7815    20.3010    10.4212 H       
  32 H32            6.7702    15.8525     8.7334 H       
  33 H33            8.4483    14.5622     5.7808 H       
  34 H34            7.9400    13.9427     8.4890 H       
  35 H35            6.3913    13.9352     7.6117 H       
  36 H36            5.9662    12.3035     5.8654 H       
  37 H37           11.1980     9.6945     7.4957 H       
  38 H38            9.6810    12.2927     7.9673 H       
  39 H39            8.5160    19.1207     5.6205 H       
@<TRIPOS>BOND
   1    1    2 1
   2    3    4 1
   3    3   29 1
   4    3   30 1
   5    3   31 1
   6    4    5 1
   7    4    6 1
   8    4    7 1
   9    7   28 ar
  10    7    8 ar
  11    8    9 ar
  12    8   32 1
  13    9   10 1
  14    9   26 ar
  15   10   11 1
  16   10   33 1
  17   11   12 1
  18   11   34 1
  19   11   35 1
  20   12   21 ar
  21   12   13 ar
  22   13   14 ar
  23   13   36 1
  24   14   15 ar
  25   15   20 ar
  26   15   16 1
  27   16   17 1
  28   16   18 1
  29   18   19 2
  30   18   22 1
  31   19   20 1
  32   19   37 1
  33   20   21 ar
  34   21   38 1
  35   22   23 1
  36   22   24 1
  37   22   25 1
  38   26   27 ar
  39   27   28 ar
  40   27   39 1

#	End of record

