#	Name: ASD01948230
#	Creating user name:	WinNT
#	Creation time:	15. 06. 2019 20:14

#	Modifying user name:	WinNT
#	Modification time:	15. 06. 2019 20:14

#	Program:	/corina/corina34_cracker 3.40 0067  02.08.2006

@<TRIPOS>MOLECULE
ASD01948230
  26   27    0    0    0
SMALL
NO_CHARGES


@<TRIPOS>ATOM
   1 C1            -0.4768     0.7309     1.4098 C.ar    
   2 C2             0.0244     0.0534     0.3114 C.ar    
   3 C3            -0.6885     0.0309    -0.8760 C.ar    
   4 C4            -1.9045     0.6864    -0.9666 C.ar    
   5 C5            -2.4092     1.3673     0.1360 C.ar    
   6 C6            -1.6945     1.3829     1.3262 C.ar    
   7 F7            -2.5997     0.6649    -2.1247 F       
   8 C8            -4.7896     0.0047     0.6786 C.ar    
   9 C9            -4.8280     1.3294     0.2656 C.ar    
  10 N10           -3.6372     2.0305     0.0477 N.pl3   
  11 C11           -5.9673    -0.6857     0.8928 C.ar    
  12 C12           -7.1845    -0.0590     0.6959 C.ar    
  13 C13           -7.2278     1.2619     0.2845 C.ar    
  14 C14           -6.0534     1.9582     0.0685 C.ar    
  15 N15           -2.2290     2.1068     2.5015 N.pl3   
  16 F16            0.2211     0.7508     2.5663 F       
  17 F17           -6.0953     3.2475    -0.3330 F       
  18 Br18          -8.7931    -1.0087     0.9898 Br      
  19 F19           -0.1967    -0.6307    -1.9463 F       
  20 O20           -2.9488     1.5297     3.2966 O.2     
  21 O21           -1.9490     3.2797     2.6734 O.2     
  22 H22            0.9731    -0.4582     0.3804 H       
  23 H23           -3.8400    -0.4874     0.8281 H       
  24 H24           -3.6633     2.9766    -0.1647 H       
  25 H25           -5.9373    -1.7163     1.2141 H       
  26 H26           -8.1797     1.7484     0.1309 H       
@<TRIPOS>BOND
   1    1    2 ar
   2    1   16 1
   3    1    6 ar
   4    2    3 ar
   5    2   22 1
   6    3    4 ar
   7    3   19 1
   8    4    5 ar
   9    4    7 1
  10    5    6 ar
  11    5   10 1
  12    6   15 1
  13    8    9 ar
  14    8   11 ar
  15    8   23 1
  16    9   10 1
  17    9   14 ar
  18   10   24 1
  19   11   12 ar
  20   11   25 1
  21   12   13 ar
  22   12   18 1
  23   13   14 ar
  24   13   26 1
  25   14   17 1
  26   15   20 2
  27   15   21 2

#	End of record

