#	Name: ASD01140116
#	Creating user name:	WinNT
#	Creation time:	15. 06. 2019 19:00

#	Modifying user name:	WinNT
#	Modification time:	15. 06. 2019 19:00

#	Program:	/corina/corina34_cracker 3.40 0067  02.08.2006

@<TRIPOS>MOLECULE
ASD01140116
  42   43    0    0    0
SMALL
NO_CHARGES


@<TRIPOS>ATOM
   1 C1            -0.0632     1.3133    -0.3966 C.3     
   2 C2             0.1245    -0.2117    -0.2473 C.3     
   3 C3             1.6315    -0.4063    -0.5249 C.3     
   4 C4             2.1514     0.9880    -0.8095 C.2     
   5 O5             1.2805     1.8731    -0.2910 O.3     
   6 O6             3.1708     1.2582    -1.3992 O.2     
   7 N7            -0.2120    -0.6443     1.1114 N.am    
   8 C8             2.3284    -0.9951     0.7033 C.3     
   9 C9             1.8373    -1.3111    -1.7414 C.3     
  10 S10           -1.7193    -1.2466     1.4391 S.o2    
  11 C11            3.7939    -1.2815     0.3698 C.3     
  12 C12            4.5223    -1.7486     1.6316 C.3     
  13 C13            1.1734    -0.6780    -2.9659 C.3     
  14 C14            1.2932    -1.6281    -4.1592 C.3     
  15 C15           -1.8881    -2.7499     0.5357 C.2     
  16 O16           -1.7186    -1.6031     2.8147 O.2     
  17 O17           -2.6485    -0.3322     0.8737 O.2     
  18 C18           -1.5562    -3.9602     0.9878 C.2     
  19 C19           -1.7790    -4.9966     0.0978 C.2     
  20 C20           -2.2918    -4.6281    -1.0772 C.2     
  21 S21           -2.5269    -2.8851    -1.0974 S.3     
  22 H22           -0.4957     1.5480    -1.3692 H       
  23 H23           -0.6970     1.6968     0.4030 H       
  24 H24           -0.4752    -0.7476    -0.9830 H       
  25 H25            0.4482    -0.5779     1.8189 H       
  26 H26            2.2757    -0.2833     1.5271 H       
  27 H27            1.8337    -1.9224     0.9922 H       
  28 H28            2.9044    -1.4316    -1.9282 H       
  29 H29            1.3898    -2.2862    -1.5489 H       
  30 H30            3.8480    -2.0607    -0.3904 H       
  31 H31            4.2650    -0.3734    -0.0066 H       
  32 H32            4.0512    -2.6566     2.0080 H       
  33 H33            5.5663    -1.9526     1.3940 H       
  34 H34            4.4683    -0.9693     2.3918 H       
  35 H35            0.1206    -0.4927    -2.7533 H       
  36 H36            1.6680     0.2644    -3.2008 H       
  37 H37            0.8202    -1.1771    -5.0316 H       
  38 H38            2.3460    -1.8134    -4.3719 H       
  39 H39            0.7986    -2.5706    -3.9243 H       
  40 H40           -1.1445    -4.1193     1.9735 H       
  41 H41           -1.5543    -6.0257     0.3364 H       
  42 H42           -2.5297    -5.2979    -1.8903 H       
@<TRIPOS>BOND
   1    1    2 1
   2    1    5 1
   3    1   22 1
   4    1   23 1
   5    2    3 1
   6    2    7 1
   7    2   24 1
   8    3    4 1
   9    3    9 1
  10    3    8 1
  11    4    5 1
  12    4    6 2
  13    7   10 am
  14    7   25 1
  15    8   11 1
  16    8   26 1
  17    8   27 1
  18    9   13 1
  19    9   28 1
  20    9   29 1
  21   10   15 1
  22   10   16 2
  23   10   17 2
  24   11   12 1
  25   11   30 1
  26   11   31 1
  27   12   32 1
  28   12   33 1
  29   12   34 1
  30   13   14 1
  31   13   35 1
  32   13   36 1
  33   14   37 1
  34   14   38 1
  35   14   39 1
  36   15   18 2
  37   15   21 1
  38   18   19 1
  39   18   40 1
  40   19   20 2
  41   19   41 1
  42   20   21 1
  43   20   42 1

#	End of record

