#	Name: ASD05940087
#	Creating user name:	WinNT
#	Creation time:	15. 06. 2019 21:04

#	Modifying user name:	WinNT
#	Modification time:	15. 06. 2019 21:04

#	Program:	/corina/corina34_cracker 3.40 0067  02.08.2006

@<TRIPOS>MOLECULE
ASD05940087
  63   66    0    0    0
SMALL
NO_CHARGES


@<TRIPOS>ATOM
   1 N1             0.2069     1.5599     0.6879 N.ar    
   2 C2             0.1233     0.2412     0.6364 C.ar    
   3 N3             1.1810    -0.5236     0.4158 N.ar    
   4 C4             2.3820     0.0188     0.2362 C.ar    
   5 C5             2.5070     1.4069     0.2689 C.ar    
   6 C6             1.3745     2.1785     0.5094 C.ar    
   7 N7             1.4583     3.5633     0.5620 N.pl3   
   8 O8            -1.0845    -0.3466     0.8158 O.3     
   9 C9            -2.1980     0.5176     1.0514 C.3     
  10 C10           -3.4656    -0.3206     1.2286 C.3     
  11 N11            3.5016    -0.7711     0.0422 N.3     
  12 C12            3.9179    -0.8145    -1.3627 C.3     
  13 C13            3.8786     0.5827    -1.9752 C.3     
  14 C14            4.4760     1.5904    -1.0299 C.2     
  15 N15            3.7613     1.9995     0.0415 N.am    
  16 O16            5.5889     2.0309    -1.2278 O.2     
  17 C17            3.2884    -2.1253     0.5702 C.3     
  18 C18            4.4876    -2.9819     0.2550 C.ar    
  19 C19            5.5912    -2.9589     1.0870 C.ar    
  20 C20            6.6912    -3.7446     0.7980 C.ar    
  21 C21            6.6874    -4.5537    -0.3229 C.ar    
  22 C22            5.5833    -4.5773    -1.1544 C.ar    
  23 C23            4.4816    -3.7949    -0.8630 C.ar    
  24 C24           -4.6577     0.6047     1.4809 C.3     
  25 C25           -5.9253    -0.2335     1.6581 C.3     
  26 C26            8.7652    -7.6642    -0.4681 C.3     
  27 N27            7.7364    -6.7207     0.0064 N.3     
  28 C28            6.4040    -7.2980    -0.2716 C.3     
  29 C29            6.6435    -8.8265    -0.3488 C.3     
  30 C30            8.0289    -8.8920    -1.0441 C.3     
  31 C31            7.8869    -5.4095    -0.6386 C.3     
  32 H32            2.3129     4.0028     0.4304 H       
  33 H33            0.6622     4.0913     0.7304 H       
  34 H34           -2.0197     1.1020     1.9541 H       
  35 H35           -2.3224     1.1896     0.2023 H       
  36 H36           -3.6439    -0.9050     0.3260 H       
  37 H37           -3.3411    -0.9926     2.0778 H       
  38 H38            4.9332    -1.2062    -1.4251 H       
  39 H39            3.2456    -1.4694    -1.9171 H       
  40 H40            4.4451     0.5832    -2.9065 H       
  41 H41            2.8440     0.8548    -2.1841 H       
  42 H42            4.1043     2.6838     0.6373 H       
  43 H43            3.1504    -2.0766     1.6503 H       
  44 H44            2.4008    -2.5592     0.1097 H       
  45 H45            5.5943    -2.3268     1.9628 H       
  46 H46            7.5538    -3.7261     1.4476 H       
  47 H47            5.5804    -5.2092    -2.0303 H       
  48 H48            3.6191    -3.8134    -1.5126 H       
  49 H49           -4.4794     1.1890     2.3836 H       
  50 H50           -4.7822     1.2766     0.6318 H       
  51 H51           -6.7746     0.4256     1.8379 H       
  52 H52           -6.1036    -0.8179     0.7555 H       
  53 H53           -5.8009    -0.9055     2.5073 H       
  54 H54            9.3683    -7.1951    -1.2456 H       
  55 H55            9.4005    -7.9692     0.3635 H       
  56 H56            5.7122    -7.0627     0.5371 H       
  57 H57            6.0198    -6.9257    -1.2212 H       
  58 H58            6.6857    -9.2659     0.6478 H       
  59 H59            5.8788    -9.3114    -0.9555 H       
  60 H60            7.9219    -8.8049    -2.1253 H       
  61 H61            8.5495    -9.8125    -0.7801 H       
  62 H62            7.9647    -5.5422    -1.7177 H       
  63 H63            8.7885    -4.9228    -0.2664 H       
@<TRIPOS>BOND
   1    1    2 ar
   2    1    6 ar
   3    2    3 ar
   4    2    8 1
   5    3    4 ar
   6    4    5 ar
   7    4   11 1
   8    5    6 ar
   9    5   15 1
  10    6    7 1
  11    7   32 1
  12    7   33 1
  13    8    9 1
  14    9   10 1
  15    9   34 1
  16    9   35 1
  17   10   24 1
  18   10   36 1
  19   10   37 1
  20   11   12 1
  21   11   17 1
  22   12   13 1
  23   12   38 1
  24   12   39 1
  25   13   14 1
  26   13   40 1
  27   13   41 1
  28   14   15 am
  29   14   16 2
  30   15   42 1
  31   17   18 1
  32   17   43 1
  33   17   44 1
  34   18   19 ar
  35   18   23 ar
  36   19   20 ar
  37   19   45 1
  38   20   21 ar
  39   20   46 1
  40   21   22 ar
  41   21   31 1
  42   22   23 ar
  43   22   47 1
  44   23   48 1
  45   24   25 1
  46   24   49 1
  47   24   50 1
  48   25   51 1
  49   25   52 1
  50   25   53 1
  51   26   27 1
  52   26   30 1
  53   26   54 1
  54   26   55 1
  55   27   28 1
  56   27   31 1
  57   28   29 1
  58   28   56 1
  59   28   57 1
  60   29   30 1
  61   29   58 1
  62   29   59 1
  63   30   60 1
  64   30   61 1
  65   31   62 1
  66   31   63 1

#	End of record

