#	Name: ASD01916206
#	Creating user name:	WinNT
#	Creation time:	15. 06. 2019 20:06

#	Modifying user name:	WinNT
#	Modification time:	15. 06. 2019 20:06

#	Program:	/corina/corina34_cracker 3.40 0067  02.08.2006

@<TRIPOS>MOLECULE
ASD01916206
  38   40    0    0    0
SMALL
NO_CHARGES


@<TRIPOS>ATOM
   1 C1            -0.0743     1.5140    -0.4045 C.ar    
   2 C2            -0.1828     0.1300    -0.3841 C.ar    
   3 C3             0.9245    -0.6483    -0.0746 C.ar    
   4 C4             2.1391    -0.0422     0.2142 C.ar    
   5 C5             2.2462     1.3422     0.1934 C.ar    
   6 C6             1.1400     2.1190    -0.1158 C.ar    
   7 O7             1.2456     3.4736    -0.1360 O.3     
   8 C8             0.7186     4.1701     0.9051 C.ar    
   9 C9             0.8071     5.5541     0.9424 C.ar    
  10 N10            0.2974     6.2338     1.9505 N.ar    
  11 C11           -0.3114     5.6347     2.9549 C.ar    
  12 C12           -0.4389     4.2584     2.9885 C.ar    
  13 C13            0.0774     3.5057     1.9464 C.ar    
  14 N14            3.2547    -0.8253     0.5264 N.am    
  15 C15            5.6474    -1.3169     0.3617 C.ar    
  16 C16            6.9212    -0.9153    -0.0435 C.ar    
  17 C17            8.0039    -1.7429     0.1722 C.ar    
  18 C18            7.8297    -2.9687     0.7888 C.ar    
  19 C19            6.5688    -3.3739     1.1936 C.ar    
  20 C20            5.4781    -2.5528     0.9883 C.ar    
  21 Cl21           6.3603    -4.9143     1.9666 Cl      
  22 N22           -1.4057    -0.4791    -0.6744 N.pl3   
  23 C23            4.4835    -0.4347     0.1340 C.2     
  24 O24            4.6346     0.6432    -0.4074 O.2     
  25 H25           -0.9344     2.1195    -0.6496 H       
  26 H26            0.8406    -1.7249    -0.0582 H       
  27 H27            3.1913     1.8140     0.4184 H       
  28 H28            1.2990     6.0800     0.1375 H       
  29 H29           -0.7156     6.2270     3.7625 H       
  30 H30           -0.9388     3.7761     3.8154 H       
  31 H31           -0.0081     2.4291     1.9462 H       
  32 H32            3.1443    -1.6497     1.0255 H       
  33 H33            7.0590     0.0414    -0.5254 H       
  34 H34            8.9898    -1.4329    -0.1414 H       
  35 H35            8.6806    -3.6128     0.9549 H       
  36 H36            4.4951    -2.8692     1.3046 H       
  37 H37           -2.1793     0.0648    -0.8903 H       
  38 H38           -1.4814    -1.4460    -0.6601 H       
@<TRIPOS>BOND
   1    1    2 ar
   2    1    6 ar
   3    1   25 1
   4    2    3 ar
   5    2   22 1
   6    3    4 ar
   7    3   26 1
   8    4    5 ar
   9    4   14 1
  10    5    6 ar
  11    5   27 1
  12    6    7 1
  13    7    8 1
  14    8    9 ar
  15    8   13 ar
  16    9   10 ar
  17    9   28 1
  18   10   11 ar
  19   11   12 ar
  20   11   29 1
  21   12   13 ar
  22   12   30 1
  23   13   31 1
  24   14   23 am
  25   14   32 1
  26   15   16 ar
  27   15   23 1
  28   15   20 ar
  29   16   17 ar
  30   16   33 1
  31   17   18 ar
  32   17   34 1
  33   18   19 ar
  34   18   35 1
  35   19   20 ar
  36   19   21 1
  37   20   36 1
  38   22   37 1
  39   22   38 1
  40   23   24 2

#	End of record

