#	Name: ASD01884429
#	Creating user name:	WinNT
#	Creation time:	15. 06. 2019 19:48

#	Modifying user name:	WinNT
#	Modification time:	15. 06. 2019 19:48

#	Program:	/corina/corina34_cracker 3.40 0067  02.08.2006

@<TRIPOS>MOLECULE
ASD01884429
  59   62    0    0    0
SMALL
NO_CHARGES


@<TRIPOS>ATOM
   1 C1             0.2450     1.4659    -0.0426 C.2     
   2 C2             0.1566     0.0763    -0.0199 C.2     
   3 C3            -1.1043    -0.5200     0.0269 C.2     
   4 C4            -2.2215     0.2496     0.0492 C.2     
   5 N5            -2.1432     1.6024     0.0273 N.am    
   6 C6            -0.9517     2.2285    -0.0119 C.2     
   7 O7            -0.9013     3.4464    -0.0312 O.2     
   8 C8            -3.3742     2.3962     0.0521 C.3     
   9 C9             1.5211     2.1141    -0.0901 C.1     
  10 N10            2.5333     2.6283    -0.1278 N.1     
  11 N11            1.7825    -1.1254     1.3281 N.3     
  12 C12            2.8467    -2.1389     1.3353 C.3     
  13 C13            3.2678    -2.4224     2.7792 C.3     
  14 N14            2.1012    -2.8822     3.5456 N.3     
  15 C15            1.0371    -1.8687     3.5384 C.3     
  16 C16            0.6160    -1.5852     2.0945 C.3     
  17 C17            2.4808    -3.2373     4.9196 C.3     
  18 C18           -3.7603     2.6934     1.5024 C.3     
  19 C19            1.4030    -0.7703    -0.0459 C.3     
  20 C20           -5.0459     3.5225     1.5284 C.3     
  21 C21           -6.2001     2.6914     0.9645 C.3     
  22 C22           -5.3640     3.9253     2.9697 C.3     
  23 N23            1.2985    -3.6886     5.6715 N.2     
  24 C24            1.3020    -4.9763     5.7403 C.2     
  25 C25            2.5117    -5.4747     4.9620 C.3     
  26 O26            3.3986    -4.3557     4.9097 O.3     
  27 C27            0.5301    -5.9737     6.3892 C.2     
  28 C28            1.1126    -7.1577     6.6833 C.2     
  29 C29            2.4979    -7.4675     6.3466 C.2     
  30 C30            3.2095    -6.6874     5.5203 C.2     
  31 H31           -1.1910    -1.5964     0.0450 H       
  32 H32           -3.1911    -0.2246     0.0846 H       
  33 H33           -3.2129     3.3335    -0.4804 H       
  34 H34           -4.1765     1.8378    -0.4303 H       
  35 H35            2.4778    -3.0567     0.8772 H       
  36 H36            3.7040    -1.7701     0.7722 H       
  37 H37            4.0367    -3.1949     2.7887 H       
  38 H38            3.6619    -1.5109     3.2286 H       
  39 H39            0.1798    -2.2375     4.1015 H       
  40 H40            1.4060    -0.9509     3.9965 H       
  41 H41           -0.1529    -0.8127     2.0850 H       
  42 H42            0.2219    -2.4967     1.6451 H       
  43 H43            2.9367    -2.3806     5.4159 H       
  44 H44           -3.9215     1.7561     2.0349 H       
  45 H45           -2.9580     3.2519     1.9848 H       
  46 H46            1.2130    -1.6792    -0.6168 H       
  47 H47            2.2129    -0.2103    -0.5134 H       
  48 H48           -4.9129     4.4182     0.9217 H       
  49 H49           -5.9735     2.4044    -0.0623 H       
  50 H50           -6.3331     1.7956     1.5712 H       
  51 H51           -7.1161     3.2820     0.9830 H       
  52 H52           -4.5417     4.5174     3.3714 H       
  53 H53           -6.2800     4.5159     2.9882 H       
  54 H54           -5.4970     3.0295     3.5764 H       
  55 H55            2.1916    -5.6917     3.9429 H       
  56 H56           -0.5035    -5.7909     6.6432 H       
  57 H57            0.5254    -7.9089     7.1906 H       
  58 H58            2.9610    -8.3450     6.7732 H       
  59 H59            4.2336    -6.9179     5.2664 H       
@<TRIPOS>BOND
   1    1    2 2
   2    1    9 1
   3    1    6 1
   4    2    3 1
   5    2   19 1
   6    3    4 2
   7    3   31 1
   8    4    5 1
   9    4   32 1
  10    5    6 am
  11    5    8 1
  12    6    7 2
  13    8   18 1
  14    8   33 1
  15    8   34 1
  16    9   10 3
  17   11   12 1
  18   11   16 1
  19   11   19 1
  20   12   13 1
  21   12   35 1
  22   12   36 1
  23   13   14 1
  24   13   37 1
  25   13   38 1
  26   14   15 1
  27   14   17 1
  28   15   16 1
  29   15   39 1
  30   15   40 1
  31   16   41 1
  32   16   42 1
  33   17   23 1
  34   17   26 1
  35   17   43 1
  36   18   20 1
  37   18   44 1
  38   18   45 1
  39   19   46 1
  40   19   47 1
  41   20   21 1
  42   20   22 1
  43   20   48 1
  44   21   49 1
  45   21   50 1
  46   21   51 1
  47   22   52 1
  48   22   53 1
  49   22   54 1
  50   23   24 2
  51   24   25 1
  52   24   27 1
  53   25   26 1
  54   25   30 1
  55   25   55 1
  56   27   28 2
  57   27   56 1
  58   28   29 1
  59   28   57 1
  60   29   30 2
  61   29   58 1
  62   30   59 1

#	End of record

