#	Name: ASD02508198
#	Creating user name:	WinNT
#	Creation time:	15. 06. 2019 20:23

#	Modifying user name:	WinNT
#	Modification time:	15. 06. 2019 20:23

#	Program:	/corina/corina34_cracker 3.40 0067  02.08.2006

@<TRIPOS>MOLECULE
ASD02508198
  41   43    0    0    0
SMALL
NO_CHARGES


@<TRIPOS>ATOM
   1 C1             0.3954     0.5587     0.3491 C.ar    
   2 C2             0.1334    -0.7889     0.1035 C.ar    
   3 C3            -1.1780    -1.2308     0.0243 C.ar    
   4 C4            -2.2175    -0.3363     0.1887 C.ar    
   5 C5            -1.9564     1.0010     0.4320 C.ar    
   6 C6            -0.6529     1.4497     0.5181 C.ar    
   7 S7            -3.8838    -0.9002     0.0877 S.o2    
   8 N8            -4.5762    -0.6516     1.5713 N.am    
   9 C9            -5.4250     0.5613     1.8244 C.3     
  10 N10            1.7830     0.6971     0.3728 N.am    
  11 C11            2.3154    -0.5209     0.1499 C.2     
  12 O12            1.3292    -1.4169    -0.0125 O.3     
  13 O13           -4.5483    -0.0283    -0.8164 O.2     
  14 O14           -3.8206    -2.3080    -0.0949 O.2     
  15 C15            2.5260     1.9393     0.5987 C.3     
  16 O16            3.5047    -0.7695     0.1032 O.2     
  17 C17           -3.0976     1.9693     0.6090 C.3     
  18 C18           -6.8032     0.0880     2.0024 C.3     
  19 N19           -6.9749    -0.8768     3.0872 N.3     
  20 C20           -6.8354    -2.1794     2.4881 C.3     
  21 C21           -5.4135    -2.7381     2.7432 C.3     
  22 C22           -4.3801    -1.5953     2.6360 C.3     
  23 H23           -1.3867    -2.2732    -0.1660 H       
  24 H24           -0.4510     2.4934     0.7084 H       
  25 H25           -5.0868     1.0706     2.7269 H       
  26 H26           -5.3710     1.2380     0.9716 H       
  27 H27            2.7114     2.0628     1.6657 H       
  28 H28            3.4767     1.8957     0.0673 H       
  29 H29            1.9427     2.7835     0.2311 H       
  30 H30           -3.4417     1.9402     1.6428 H       
  31 H31           -2.7600     2.9769     0.3666 H       
  32 H32           -3.9164     1.6910    -0.0544 H       
  33 H33           -7.4416     0.9489     2.2009 H       
  34 H34           -7.1327    -0.3752     1.0723 H       
  35 H35           -6.2848    -0.7352     3.8095 H       
  36 H36           -7.5721    -2.8563     2.9206 H       
  37 H37           -7.0058    -2.1029     1.4142 H       
  38 H38           -5.3696    -3.1765     3.7401 H       
  39 H39           -5.1859    -3.5031     2.0009 H       
  40 H40           -3.3930    -2.0410     2.5133 H       
  41 H41           -4.3835    -1.0455     3.5772 H       
@<TRIPOS>BOND
   1    1    2 ar
   2    1   10 1
   3    1    6 ar
   4    2    3 ar
   5    2   12 1
   6    3    4 ar
   7    3   23 1
   8    4    5 ar
   9    4    7 1
  10    5    6 ar
  11    5   17 1
  12    6   24 1
  13    7    8 am
  14    7   13 2
  15    7   14 2
  16    8    9 1
  17    8   22 1
  18    9   18 1
  19    9   25 1
  20    9   26 1
  21   10   11 am
  22   10   15 1
  23   11   12 1
  24   11   16 2
  25   15   27 1
  26   15   28 1
  27   15   29 1
  28   17   30 1
  29   17   31 1
  30   17   32 1
  31   18   19 1
  32   18   33 1
  33   18   34 1
  34   19   20 1
  35   19   35 1
  36   20   21 1
  37   20   36 1
  38   20   37 1
  39   21   22 1
  40   21   38 1
  41   21   39 1
  42   22   40 1
  43   22   41 1

#	End of record

