#	Name: ASD05313060
#	Creating user name:	WinNT
#	Creation time:	15. 06. 2019 20:58

#	Modifying user name:	WinNT
#	Modification time:	15. 06. 2019 20:58

#	Program:	/corina/corina34_cracker 3.40 0067  02.08.2006

@<TRIPOS>MOLECULE
ASD05313060
  37   40    0    0    0
SMALL
NO_CHARGES


@<TRIPOS>ATOM
   1 C1            -0.0722     0.8173     1.0241 C.2     
   2 C2             0.1138    -0.6190     0.5966 C.3     
   3 N3             0.9302     1.7307     1.0504 N.pl3   
   4 N4             1.4570    -0.7183    -0.0052 N.am    
   5 C5             2.5713    -0.0367     0.6708 C.3     
   6 C6             2.3169     1.4753     0.6642 C.3     
   7 N7            -0.9040     2.6403     1.7083 N.2     
   8 N8            -1.1571     1.4083     1.4268 N.2     
   9 C9             0.3719     2.8903     1.4950 C.2     
  10 C10            1.0648     4.1807     1.7019 C.ar    
  11 C11            0.3558     5.2934     2.1664 C.ar    
  12 C12            1.0527     6.4786     2.3431 C.ar    
  13 C13            2.4086     6.4891     2.0490 C.ar    
  14 N14            3.0000     5.3922     1.6142 N.ar    
  15 N15            2.3654     4.2883     1.4527 N.ar    
  16 C16            1.6574    -1.4143    -1.1419 C.2     
  17 O17            2.7491    -1.4036    -1.6766 O.2     
  18 C18            0.5501    -2.1902    -1.7382 C.ar    
  19 C19            0.3187    -2.1382    -3.1150 C.ar    
  20 C20           -0.7191    -2.8669    -3.6652 C.ar    
  21 C21           -1.5270    -3.6454    -2.8545 C.ar    
  22 C22           -1.3020    -3.6997    -1.4904 C.ar    
  23 C23           -0.2658    -2.9829    -0.9291 C.ar    
  24 Cl24          -1.0101    -2.8051    -5.3755 Cl      
  25 Cl25           1.3311    -1.1610    -4.1317 Cl      
  26 H26            0.0447    -1.2769     1.4629 H       
  27 H27           -0.6441    -0.8894    -0.1386 H       
  28 H28            2.6433    -0.3893     1.6997 H       
  29 H29            3.5019    -0.2517     0.1455 H       
  30 H30            2.4949     1.8701    -0.3361 H       
  31 H31            2.9877     1.9608     1.3731 H       
  32 H32           -0.7009     5.2312     2.3802 H       
  33 H33            0.5546     7.3683     2.6991 H       
  34 H34            2.9808     7.3962     2.1757 H       
  35 H35           -2.3369    -4.2128    -3.2887 H       
  36 H36           -1.9366    -4.3090    -0.8639 H       
  37 H37           -0.0892    -3.0307     0.1353 H       
@<TRIPOS>BOND
   1    1    2 1
   2    1    3 1
   3    1    8 2
   4    2    4 1
   5    2   26 1
   6    2   27 1
   7    3    6 1
   8    3    9 1
   9    4    5 1
  10    4   16 am
  11    5    6 1
  12    5   28 1
  13    5   29 1
  14    6   30 1
  15    6   31 1
  16    7    8 1
  17    7    9 2
  18    9   10 1
  19   10   11 ar
  20   10   15 ar
  21   11   12 ar
  22   11   32 1
  23   12   13 ar
  24   12   33 1
  25   13   14 ar
  26   13   34 1
  27   14   15 ar
  28   16   17 2
  29   16   18 1
  30   18   19 ar
  31   18   23 ar
  32   19   20 ar
  33   19   25 1
  34   20   21 ar
  35   20   24 1
  36   21   22 ar
  37   21   35 1
  38   22   23 ar
  39   22   36 1
  40   23   37 1

#	End of record

