#	Name: ASD01820027
#	Creating user name:	WinNT
#	Creation time:	15. 06. 2019 19:36

#	Modifying user name:	WinNT
#	Modification time:	15. 06. 2019 19:36

#	Program:	/corina/corina34_cracker 3.40 0067  02.08.2006

@<TRIPOS>MOLECULE
ASD01820027
  52   54    0    0    0
SMALL
NO_CHARGES


@<TRIPOS>ATOM
   1 C1             3.1897     0.1838     4.3247 C.ar    
   2 C2             3.4472    -1.0996     4.7731 C.ar    
   3 C3             2.4155    -2.0126     4.8856 C.ar    
   4 C4             1.1263    -1.6443     4.5499 C.ar    
   5 C5             0.8677    -0.3614     4.1009 C.ar    
   6 C6             1.8988     0.5547     3.9940 C.ar    
   7 C7             1.6177     1.9523     3.5056 C.3     
   8 O8             1.3065     2.7924     4.6189 O.3     
   9 Cl9            4.4855     1.3305     4.1841 Cl      
  10 Cl10          -0.7514     0.1007     3.6782 Cl      
  11 N11            1.0248     4.1346     4.2666 N.2     
  12 C12            0.7285     4.9953     5.1846 C.2     
  13 C13            0.4346     6.3957     4.8171 C.ar    
  14 C14            0.1116     7.3436     5.7951 C.ar    
  15 C15           -0.1558     8.6405     5.4069 C.ar    
  16 N16           -0.1100     8.9904     4.1360 N.ar    
  17 C17            0.1895     8.1292     3.1829 C.ar    
  18 C18            0.4770     6.8131     3.4816 C.ar    
  19 C19           -0.4015    10.3791     3.7715 C.3     
  20 C20            0.8940    11.1928     3.7859 C.3     
  21 C21            0.5896    12.6431     3.4052 C.3     
  22 N22            1.8301    13.4223     3.4190 N.ar    
  23 C23            2.5439    13.5065     2.3130 C.ar    
  24 C24            3.7185    14.2300     2.2808 C.ar    
  25 C25            4.1476    14.8790     3.4444 C.ar    
  26 C26            3.3585    14.7622     4.5947 C.ar    
  27 C27            2.1954    14.0221     4.5355 C.ar    
  28 C28            5.3985    15.6647     3.4583 C.2     
  29 N29            6.0323    15.8905     2.3543 N.2     
  30 O30            5.4388    15.5497     1.1147 O.3     
  31 H31            4.4544    -1.3881     5.0349 H       
  32 H32            2.6170    -3.0142     5.2356 H       
  33 H33            0.3207    -2.3582     4.6376 H       
  34 H34            2.4967     2.3412     2.9915 H       
  35 H35            0.7728     1.9336     2.8172 H       
  36 H36            0.6958     4.6906     6.2202 H       
  37 H37            0.0719     7.0641     6.8375 H       
  38 H38           -0.4064     9.3791     6.1540 H       
  39 H39            0.2145     8.4598     2.1550 H       
  40 H40            0.7215     6.1134     2.6961 H       
  41 H41           -0.8382    10.4087     2.7732 H       
  42 H42           -1.1048    10.8029     4.4884 H       
  43 H43            1.3307    11.1632     4.7842 H       
  44 H44            1.5973    10.7690     3.0690 H       
  45 H45            0.1530    12.6727     2.4069 H       
  46 H46           -0.1136    13.0670     4.1221 H       
  47 H47            2.2046    13.0019     1.4204 H       
  48 H48            4.2980    14.2943     1.3717 H       
  49 H49            3.6535    15.2472     5.5134 H       
  50 H50            1.5798    13.9261     5.4176 H       
  51 H51            5.7836    16.0505     4.3906 H       
  52 H52            5.9878    15.7559     0.3459 H       
@<TRIPOS>BOND
   1    1    2 ar
   2    1    9 1
   3    1    6 ar
   4    2    3 ar
   5    2   31 1
   6    3    4 ar
   7    3   32 1
   8    4    5 ar
   9    4   33 1
  10    5    6 ar
  11    5   10 1
  12    6    7 1
  13    7    8 1
  14    7   34 1
  15    7   35 1
  16    8   11 1
  17   11   12 2
  18   12   13 1
  19   12   36 1
  20   13   14 ar
  21   13   18 ar
  22   14   15 ar
  23   14   37 1
  24   15   16 ar
  25   15   38 1
  26   16   17 ar
  27   16   19 1
  28   17   18 ar
  29   17   39 1
  30   18   40 1
  31   19   20 1
  32   19   41 1
  33   19   42 1
  34   20   21 1
  35   20   43 1
  36   20   44 1
  37   21   22 1
  38   21   45 1
  39   21   46 1
  40   22   23 ar
  41   22   27 ar
  42   23   24 ar
  43   23   47 1
  44   24   25 ar
  45   24   48 1
  46   25   26 ar
  47   25   28 1
  48   26   27 ar
  49   26   49 1
  50   27   50 1
  51   28   29 2
  52   28   51 1
  53   29   30 1
  54   30   52 1

#	End of record

