#	Name: ASD01150488
#	Creating user name:	WinNT
#	Creation time:	15. 06. 2019 19:04

#	Modifying user name:	WinNT
#	Modification time:	15. 06. 2019 19:04

#	Program:	/corina/corina34_cracker 3.40 0067  02.08.2006

@<TRIPOS>MOLECULE
ASD01150488
  44   47    0    0    0
SMALL
NO_CHARGES


@<TRIPOS>ATOM
   1 C1             2.0455     1.4038    -0.8411 C.ar    
   2 C2             2.0585     0.0229    -0.8454 C.ar    
   3 C3             0.3431    -0.0046     0.8288 C.ar    
   4 C4             0.3254     1.3763     0.8383 C.ar    
   5 C5             1.1777     2.0861     0.0020 C.ar    
   6 N6             1.1623     3.4852     0.0092 N.am    
   7 C7            -0.0113     4.1355    -0.0781 C.2     
   8 N8            -0.0630     5.4805    -0.0744 N.am    
   9 C9             1.0745     6.2002     0.0182 C.2     
  10 C10            2.3615     5.4949     0.1145 C.2     
  11 N11            2.3686     4.1879     0.1129 N.2     
  12 O12            1.0361     7.4166     0.0217 O.2     
  13 C13           -1.3553     6.1636    -0.1717 C.3     
  14 O14           -1.0435     3.4978    -0.1621 O.2     
  15 C15           -1.9093     6.3898     1.2114 C.2     
  16 O16            3.5243     6.1909     0.2090 O.3     
  17 C17            4.7305     5.4299     0.2986 C.3     
  18 C18            1.2084    -0.6807    -0.0119 C.ar    
  19 N19           -2.6019     5.4710     1.8440 N.2     
  20 C20           -3.0336     5.7706     3.0355 C.2     
  21 S21           -2.5199     7.4068     3.4388 S.3     
  22 C22           -1.7213     7.5366     1.8729 C.2     
  23 C23           -3.8275     4.8805     3.9096 C.ar    
  24 C24           -4.2332     5.3172     5.1713 C.ar    
  25 C25           -4.9741     4.4820     5.9818 C.ar    
  26 C26           -5.3149     3.2139     5.5461 C.ar    
  27 C27           -4.9154     2.7746     4.2964 C.ar    
  28 C28           -4.1790     3.6022     3.4739 C.ar    
  29 H29            2.7126     1.9527    -1.4894 H       
  30 H30            2.7330    -0.5082    -1.5007 H       
  31 H31           -0.3192    -0.5570     1.4787 H       
  32 H32           -0.3505     1.9037     1.4951 H       
  33 H33           -1.2224     7.1233    -0.6713 H       
  34 H34           -2.0491     5.5487    -0.7449 H       
  35 H35            4.8337     4.8066    -0.5896 H       
  36 H36            5.5824     6.1063     0.3688 H       
  37 H37            4.6955     4.7965     1.1850 H       
  38 H38            1.2200    -1.7606    -0.0177 H       
  39 H39           -1.1781     8.3960     1.5085 H       
  40 H40           -3.9675     6.3068     5.5127 H       
  41 H41           -5.2885     4.8187     6.9586 H       
  42 H42           -5.8950     2.5639     6.1843 H       
  43 H43           -5.1843     1.7835     3.9623 H       
  44 H44           -3.8680     3.2583     2.4985 H       
@<TRIPOS>BOND
   1    1    2 ar
   2    1    5 ar
   3    1   29 1
   4    2   18 ar
   5    2   30 1
   6    3    4 ar
   7    3   18 ar
   8    3   31 1
   9    4    5 ar
  10    4   32 1
  11    5    6 1
  12    6    7 am
  13    6   11 1
  14    7    8 am
  15    7   14 2
  16    8    9 am
  17    8   13 1
  18    9   10 1
  19    9   12 2
  20   10   11 2
  21   10   16 1
  22   13   15 1
  23   13   33 1
  24   13   34 1
  25   15   19 1
  26   15   22 2
  27   16   17 1
  28   17   35 1
  29   17   36 1
  30   17   37 1
  31   18   38 1
  32   19   20 2
  33   20   21 1
  34   20   23 1
  35   21   22 1
  36   22   39 1
  37   23   24 ar
  38   23   28 ar
  39   24   25 ar
  40   24   40 1
  41   25   26 ar
  42   25   41 1
  43   26   27 ar
  44   26   42 1
  45   27   28 ar
  46   27   43 1
  47   28   44 1

#	End of record

