#	Name: ASD01883313
#	Creating user name:	WinNT
#	Creation time:	15. 06. 2019 19:46

#	Modifying user name:	WinNT
#	Modification time:	15. 06. 2019 19:46

#	Program:	/corina/corina34_cracker 3.40 0067  02.08.2006

@<TRIPOS>MOLECULE
ASD01883313
  44   45    0    0    0
SMALL
NO_CHARGES


@<TRIPOS>ATOM
   1 N1            -0.0162     1.3415     0.0094 N.am    
   2 C2             0.0021    -0.0041     0.0020 C.2     
   3 C3            -1.2146    -0.7277     0.0102 C.2     
   4 C4            -2.4289    -0.0086     0.0261 C.2     
   5 C5            -2.3787     1.4040     0.0332 C.2     
   6 C6            -1.1852     2.0353     0.0299 C.2     
   7 O7             1.0660    -0.5996    -0.0122 O.2     
   8 C8            -1.2133    -2.1597     0.0021 C.1     
   9 N9            -1.2123    -3.2957    -0.0044 N.1     
  10 C10            1.2519     2.0750     0.0012 C.3     
  11 C11            1.6796     2.3381    -1.4440 C.3     
  12 C12            3.0040     3.1041    -1.4525 C.3     
  13 C13            3.4947     3.2584    -2.8935 C.3     
  14 C14            2.7968     4.4879    -0.8335 C.3     
  15 C15           -3.6854    -0.6955     0.0345 C.1     
  16 C16           -4.7154    -1.2587     0.0413 C.1     
  17 C17           -5.9719    -1.9456     0.0496 C.ar    
  18 C18           -7.1687    -1.2202     0.0654 C.ar    
  19 C19           -8.3741    -1.8855     0.0734 C.ar    
  20 C20           -8.4038    -3.2752     0.0663 C.ar    
  21 C21           -7.2181    -4.0004     0.0506 C.ar    
  22 C22           -6.0074    -3.3447     0.0362 C.ar    
  23 O23           -9.5950    -3.9265     0.0751 O.3     
  24 C24           -9.5535    -5.3549     0.0671 C.3     
  25 H25           -3.2937     1.9775     0.0451 H       
  26 H26           -1.1587     3.1149     0.0354 H       
  27 H27            1.1258     3.0245     0.5214 H       
  28 H28            2.0169     1.4838     0.5046 H       
  29 H29            1.8058     1.3885    -1.9642 H       
  30 H30            0.9147     2.9293    -1.9474 H       
  31 H31            3.7456     2.5542    -0.8731 H       
  32 H32            2.7531     3.8083    -3.4729 H       
  33 H33            4.4382     3.8041    -2.8996 H       
  34 H34            3.6423     2.2726    -3.3345 H       
  35 H35            3.7403     5.0336    -0.8395 H       
  36 H36            2.0552     5.0378    -1.4129 H       
  37 H37            2.4472     4.3780     0.1931 H       
  38 H38           -7.1467    -0.1404     0.0717 H       
  39 H39           -9.2982    -1.3267     0.0856 H       
  40 H40           -7.2465    -5.0800     0.0452 H       
  41 H41           -5.0867    -3.9090     0.0237 H       
  42 H42           -9.0386    -5.6983    -0.8301 H       
  43 H43           -9.0202    -5.7078     0.9497 H       
  44 H44          -10.5702    -5.7479     0.0755 H       
@<TRIPOS>BOND
   1    1    2 am
   2    1   10 1
   3    1    6 1
   4    2    3 1
   5    2    7 2
   6    3    4 2
   7    3    8 1
   8    4    5 1
   9    4   15 1
  10    5    6 2
  11    5   25 1
  12    6   26 1
  13    8    9 3
  14   10   11 1
  15   10   27 1
  16   10   28 1
  17   11   12 1
  18   11   29 1
  19   11   30 1
  20   12   13 1
  21   12   14 1
  22   12   31 1
  23   13   32 1
  24   13   33 1
  25   13   34 1
  26   14   35 1
  27   14   36 1
  28   14   37 1
  29   15   16 3
  30   16   17 1
  31   17   18 ar
  32   17   22 ar
  33   18   19 ar
  34   18   38 1
  35   19   20 ar
  36   19   39 1
  37   20   21 ar
  38   20   23 1
  39   21   22 ar
  40   21   40 1
  41   22   41 1
  42   23   24 1
  43   24   42 1
  44   24   43 1
  45   24   44 1

#	End of record

