#	Name: ASD08710138
#	Creating user name:	WinNT
#	Creation time:	15. 06. 2019 21:19

#	Modifying user name:	WinNT
#	Modification time:	15. 06. 2019 21:19

#	Program:	/corina/corina34_cracker 3.40 0067  02.08.2006

@<TRIPOS>MOLECULE
ASD08710138
  37   37    0    0    0
SMALL
NO_CHARGES


@<TRIPOS>ATOM
   1 N1            -0.1213     1.2906     0.2936 N.am    
   2 C2             0.0692    -0.1475     0.0509 C.3     
   3 C3             0.9100    -0.3197    -1.2185 C.3     
   4 N4             2.1496     0.4581    -1.0903 N.3     
   5 C5             1.8676     1.8955    -0.9798 C.3     
   6 C6             1.0660     2.1586     0.2995 C.3     
   7 S7            -1.6333     1.9169     0.5467 S.o2    
   8 O8            -1.5222     3.3213     0.3604 O.2     
   9 O9            -2.5335     1.1036    -0.1931 O.2     
  10 C10           -2.0223     1.6698     2.2473 C.ar    
  11 C11           -1.6905     2.6351     3.1796 C.ar    
  12 C12           -1.9956     2.4412     4.5138 C.ar    
  13 C13           -2.6329     1.2822     4.9157 C.ar    
  14 C14           -2.9655     0.3174     3.9834 C.ar    
  15 C15           -2.6643     0.5132     2.6485 C.ar    
  16 C16           -2.9646     1.0704     6.3704 C.3     
  17 F17           -4.2376     1.5852     6.6382 F       
  18 F18           -2.9451    -0.2984     6.6587 F       
  19 F19           -2.0192     1.7279     7.1649 F       
  20 C20           -1.2913    -0.8214    -0.1384 C.3     
  21 H21            0.5885    -0.5961     0.8978 H       
  22 H22            1.1541    -1.3735    -1.3529 H       
  23 H23            0.3450     0.0359    -2.0801 H       
  24 H24            2.6991     0.1362    -0.3077 H       
  25 H25            2.8062     2.4484    -0.9410 H       
  26 H26            1.2892     2.2203    -1.8447 H       
  27 H27            0.7559     3.2031     0.3290 H       
  28 H28            1.6812     1.9316     1.1702 H       
  29 H29           -1.1925     3.5405     2.8655 H       
  30 H30           -1.7357     3.1950     5.2422 H       
  31 H31           -3.4631    -0.5882     4.2975 H       
  32 H32           -2.9274    -0.2390     1.9196 H       
  33 H33           -1.7514    -0.4592    -1.0577 H       
  34 H34           -1.1564    -1.9012    -0.2006 H       
  35 H35           -1.9354    -0.5839     0.7083 H       
  36 Cl36           7.8062     8.5405    12.1649 Cl      
  37 H37            7.8062     9.9105    12.1649 H       
@<TRIPOS>BOND
   1    1    2 1
   2    1    6 1
   3    1    7 am
   4    2    3 1
   5    2   20 1
   6    2   21 1
   7    3    4 1
   8    3   22 1
   9    3   23 1
  10    4    5 1
  11    4   24 1
  12    5    6 1
  13    5   25 1
  14    5   26 1
  15    6   27 1
  16    6   28 1
  17    7    8 2
  18    7    9 2
  19    7   10 1
  20   10   11 ar
  21   10   15 ar
  22   11   12 ar
  23   11   29 1
  24   12   13 ar
  25   12   30 1
  26   13   14 ar
  27   13   16 1
  28   14   15 ar
  29   14   31 1
  30   15   32 1
  31   16   17 1
  32   16   18 1
  33   16   19 1
  34   20   33 1
  35   20   34 1
  36   20   35 1
  37   36   37 1

#	End of record

