#	Name: ASD01410960
#	Creating user name:	WinNT
#	Creation time:	15. 06. 2019 19:19

#	Modifying user name:	WinNT
#	Modification time:	15. 06. 2019 19:19

#	Program:	/corina/corina34_cracker 3.40 0067  02.08.2006

@<TRIPOS>MOLECULE
ASD01410960
  53   55    0    0    0
SMALL
NO_CHARGES


@<TRIPOS>ATOM
   1 C1            -0.0132     1.8100     0.0043 C.ar    
   2 P2             0.0237    -0.0036    -0.0158 P.3     
   3 N3             0.1800    -0.5642     1.5174 N.pl3   
   4 O4            -1.2346    -0.5161    -0.6026 O.2     
   5 C5             0.2317    -1.9348     1.7555 C.2     
   6 C6             0.3618    -2.4681     3.0171 C.2     
   7 S7             0.3891    -4.2231     2.9155 S.3     
   8 C8             0.2230    -4.1642     1.1666 C.2     
   9 C9             0.1511    -2.8698     0.7498 C.2     
  10 C10            0.4586    -1.7204     4.2108 C.2     
  11 O11            0.4293    -0.5039     4.1711 O.2     
  12 O12            0.5837    -2.3544     5.3963 O.3     
  13 C13            0.1642    -5.3451     0.2800 C.ar    
  14 C14            0.2415    -6.6306     0.8189 C.ar    
  15 C15            0.1862    -7.7288    -0.0136 C.ar    
  16 C16            0.0547    -7.5583    -1.3816 C.ar    
  17 C17           -0.0221    -6.2856    -1.9222 C.ar    
  18 C18            0.0255    -5.1798    -1.0992 C.ar    
  19 O19            1.2718    -0.5052    -0.9005 O.3     
  20 C20            1.4255    -0.1811    -2.2837 C.3     
  21 Cl21          -0.0137    -8.9455    -2.4231 Cl      
  22 C22            2.7130    -0.8138    -2.8157 C.3     
  23 C23           -1.2241     2.4770    -0.0118 C.ar    
  24 C24           -1.2522     3.8587     0.0035 C.ar    
  25 C25           -0.0693     4.5739     0.0353 C.ar    
  26 C26            1.1412     3.9071     0.0523 C.ar    
  27 C27            1.1692     2.5248     0.0414 C.ar    
  28 C28            2.4889     1.7977     0.0652 C.3     
  29 C29           -0.0999     6.0805     0.0509 C.3     
  30 C30            2.8776    -0.4668    -4.2968 C.3     
  31 H31            0.2364     0.0593     2.2584 H       
  32 H32            0.0428    -2.5983    -0.2899 H       
  33 H33            0.6428    -1.7594     6.1562 H       
  34 H34            0.3448    -6.7648     1.8856 H       
  35 H35            0.2459    -8.7238     0.4022 H       
  36 H36           -0.1242    -6.1588    -2.9898 H       
  37 H37           -0.0397    -4.1878    -1.5214 H       
  38 H38            0.5733    -0.5658    -2.8439 H       
  39 H39            1.4779     0.9014    -2.3997 H       
  40 H40            3.5653    -0.4292    -2.2556 H       
  41 H41            2.6607    -1.8964    -2.6998 H       
  42 H42           -2.1480     1.9183    -0.0366 H       
  43 H43           -2.1981     4.3798    -0.0098 H       
  44 H44            2.0651     4.4657     0.0767 H       
  45 H45            2.7860     1.5506    -0.9540 H       
  46 H46            3.2469     2.4353     0.5202 H       
  47 H47            2.3883     0.8812     0.6467 H       
  48 H48           -0.1282     6.4327     1.0821 H       
  49 H49            0.7927     6.4672    -0.4407 H       
  50 H50           -0.9865     6.4314    -0.4773 H       
  51 H51            2.0254    -0.8515    -4.8569 H       
  52 H52            2.9299     0.6157    -4.4127 H       
  53 H53            3.7948    -0.9176    -4.6758 H       
@<TRIPOS>BOND
   1    1    2 1
   2    1   23 ar
   3    1   27 ar
   4    2    3 1
   5    2    4 2
   6    2   19 1
   7    3    5 1
   8    3   31 1
   9    5    6 2
  10    5    9 1
  11    6    7 1
  12    6   10 1
  13    7    8 1
  14    8    9 2
  15    8   13 1
  16    9   32 1
  17   10   11 2
  18   10   12 1
  19   12   33 1
  20   13   14 ar
  21   13   18 ar
  22   14   15 ar
  23   14   34 1
  24   15   16 ar
  25   15   35 1
  26   16   17 ar
  27   16   21 1
  28   17   18 ar
  29   17   36 1
  30   18   37 1
  31   19   20 1
  32   20   22 1
  33   20   38 1
  34   20   39 1
  35   22   30 1
  36   22   40 1
  37   22   41 1
  38   23   24 ar
  39   23   42 1
  40   24   25 ar
  41   24   43 1
  42   25   26 ar
  43   25   29 1
  44   26   27 ar
  45   26   44 1
  46   27   28 1
  47   28   45 1
  48   28   46 1
  49   28   47 1
  50   29   48 1
  51   29   49 1
  52   29   50 1
  53   30   51 1
  54   30   52 1
  55   30   53 1

#	End of record

