#	Name: ASD00170151
#	Creating user name:	WinNT
#	Creation time:	15. 06. 2019 18:31

#	Modifying user name:	WinNT
#	Modification time:	15. 06. 2019 18:31

#	Program:	/corina/corina34_cracker 3.40 0067  02.08.2006

@<TRIPOS>MOLECULE
ASD00170151
  23   24    0    0    0
SMALL
NO_CHARGES


@<TRIPOS>ATOM
   1 C1             0.0041     1.3222     0.1976 C.2     
   2 C2             0.0143     0.0003     0.1261 C.2     
   3 C3             1.3489    -0.5571     0.0605 C.2     
   4 C4             2.3287     0.4083     0.0864 C.2     
   5 S5             1.6373     1.9628     0.1886 S.3     
   6 N6             3.6841     0.1532     0.0365 N.pl3   
   7 C7             1.6254    -1.9908    -0.0242 C.2     
   8 C8             0.5191    -2.9654     0.0923 C.ar    
   9 O9             2.7665    -2.3821    -0.1905 O.2     
  10 C10            0.5791    -4.1791    -0.5950 C.ar    
  11 C11           -0.4554    -5.0840    -0.4821 C.ar    
  12 C12           -1.5522    -4.7907     0.3107 C.ar    
  13 C13           -1.6177    -3.5883     0.9945 C.ar    
  14 C14           -0.5866    -2.6779     0.8944 C.ar    
  15 Br15          -2.9667    -6.0368     0.4595 Br      
  16 H16           -0.8901     1.9257     0.2498 H       
  17 H17           -0.8825    -0.6015     0.1179 H       
  18 H18            4.0038    -0.7608    -0.0213 H       
  19 H19            4.3170     0.8879     0.0592 H       
  20 H20            1.4337    -4.4086    -1.2142 H       
  21 H21           -0.4101    -6.0233    -1.0133 H       
  22 H22           -2.4759    -3.3650     1.6110 H       
  23 H23           -0.6386    -1.7406     1.4285 H       
@<TRIPOS>BOND
   1    1    2 2
   2    1    5 1
   3    1   16 1
   4    2    3 1
   5    2   17 1
   6    3    4 2
   7    3    7 1
   8    4    5 1
   9    4    6 1
  10    6   18 1
  11    6   19 1
  12    7    8 1
  13    7    9 2
  14    8   10 ar
  15    8   14 ar
  16   10   11 ar
  17   10   20 1
  18   11   12 ar
  19   11   21 1
  20   12   13 ar
  21   12   15 1
  22   13   14 ar
  23   13   22 1
  24   14   23 1

#	End of record

