#	Name: ASD09780001
#	Creating user name:	WinNT
#	Creation time:	15. 06. 2019 21:23

#	Modifying user name:	WinNT
#	Modification time:	15. 06. 2019 21:23

#	Program:	/corina/corina34_cracker 3.40 0067  02.08.2006

@<TRIPOS>MOLECULE
ASD09780001
  15   14    0    0    0
SMALL
NO_CHARGES


@<TRIPOS>ATOM
   1 C1            -0.0187     1.5258     0.0104 C.3     
   2 C2             0.0021    -0.0041     0.0020 C.3     
   3 C3             0.7421    -0.5109     1.2415 C.3     
   4 O4            -1.3386    -0.4987     0.0122 O.3     
   5 C5            -1.4988    -1.7570    -0.6458 C.3     
   6 F6            -0.9866    -2.7757     0.1648 F       
   7 F7             0.0872    -0.0597     2.3926 F       
   8 F8             0.7610    -1.9098     1.2339 F       
   9 F9             2.0546    -0.0267     1.2316 F       
  10 F10            1.2938     2.0100     0.0005 F       
  11 F11           -0.6953     1.9892    -1.1230 F       
  12 F12           -0.6735     1.9769     1.1615 F       
  13 H13            0.5123    -0.3556    -0.8948 H       
  14 H14           -2.5576    -1.9379    -0.8311 H       
  15 H15           -0.9613    -1.7423    -1.5940 H       
@<TRIPOS>BOND
   1    1    2 1
   2    1   10 1
   3    1   11 1
   4    1   12 1
   5    2    3 1
   6    2    4 1
   7    2   13 1
   8    3    7 1
   9    3    8 1
  10    3    9 1
  11    4    5 1
  12    5    6 1
  13    5   14 1
  14    5   15 1

#	End of record

