#	Name: ASD00170113
#	Creating user name:	WinNT
#	Creation time:	15. 06. 2019 18:31

#	Modifying user name:	WinNT
#	Modification time:	15. 06. 2019 18:31

#	Program:	/corina/corina34_cracker 3.40 0067  02.08.2006

@<TRIPOS>MOLECULE
ASD00170113
  31   34    0    0    0
SMALL
NO_CHARGES


@<TRIPOS>ATOM
   1 C1            -0.0182     1.4914     0.0102 C.2     
   2 C2             0.0021    -0.0041     0.0020 C.ar    
   3 C3             1.3190    -0.4523    -0.0130 C.ar    
   4 C4             2.1958     0.7739    -0.0148 C.3     
   5 C5             1.2473     1.9527     0.0006 C.2     
   6 S6             1.2222     3.7155     0.0103 S.3     
   7 C7            -0.5366     3.6919     0.0270 C.2     
   8 N8            -0.9504     2.4701     0.0195 N.2     
   9 C9            -1.0453    -0.9282     0.0075 C.ar    
  10 C10           -0.7701    -2.2774    -0.0020 C.ar    
  11 C11            0.5516    -2.7230    -0.0170 C.ar    
  12 C12            1.5976    -1.7992    -0.0229 C.ar    
  13 N13           -1.3513     4.8123     0.0408 N.pl3   
  14 C14            0.8449    -4.1767    -0.0267 C.ar    
  15 C15           -0.1983    -5.1004    -0.0209 C.ar    
  16 C16            0.0815    -6.4543    -0.0299 C.ar    
  17 C17            1.3959    -6.8915    -0.0443 C.ar    
  18 C18            2.4338    -5.9773    -0.0502 C.ar    
  19 C19            2.1653    -4.6237    -0.0475 C.ar    
  20 F20           -0.9282    -7.3519    -0.0242 F       
  21 H21            2.8272     0.7868     0.8736 H       
  22 H22            2.8102     0.7964    -0.9148 H       
  23 H23           -2.0693    -0.5851     0.0195 H       
  24 H24           -1.5796    -2.9924     0.0026 H       
  25 H25            2.6221    -2.1407    -0.0348 H       
  26 H26           -0.9573     5.6986     0.0418 H       
  27 H27           -2.3159     4.7103     0.0495 H       
  28 H28           -1.2230    -4.7595    -0.0089 H       
  29 H29            1.6110    -7.9499    -0.0506 H       
  30 H30            3.4567    -6.3236    -0.0614 H       
  31 H31            2.9772    -3.9115    -0.0521 H       
@<TRIPOS>BOND
   1    1    2 1
   2    1    5 2
   3    1    8 1
   4    2    3 ar
   5    2    9 ar
   6    3    4 1
   7    3   12 ar
   8    4    5 1
   9    4   21 1
  10    4   22 1
  11    5    6 1
  12    6    7 1
  13    7    8 2
  14    7   13 1
  15    9   10 ar
  16    9   23 1
  17   10   11 ar
  18   10   24 1
  19   11   12 ar
  20   11   14 1
  21   12   25 1
  22   13   26 1
  23   13   27 1
  24   14   15 ar
  25   14   19 ar
  26   15   16 ar
  27   15   28 1
  28   16   17 ar
  29   16   20 1
  30   17   18 ar
  31   17   29 1
  32   18   19 ar
  33   18   30 1
  34   19   31 1

#	End of record

