#	Name: ASD02198109
#	Creating user name:	WinNT
#	Creation time:	15. 06. 2019 20:18

#	Modifying user name:	WinNT
#	Modification time:	15. 06. 2019 20:18

#	Program:	/corina/corina34_cracker 3.40 0067  02.08.2006

@<TRIPOS>MOLECULE
ASD02198109
  50   52    0    0    0
SMALL
NO_CHARGES


@<TRIPOS>ATOM
   1 C1             1.2351     0.9421    -0.6393 C.2     
   2 C2             1.1284    -0.4210    -0.4632 C.2     
   3 C3            -0.1277    -1.0944    -0.3243 C.1     
   4 S4             2.8688     1.4121    -0.7696 S.3     
   5 C5             3.4278    -0.2427    -0.5857 C.2     
   6 C6             2.3536    -1.0846    -0.4330 C.2     
   7 C7             4.7786    -0.6468    -0.5944 C.2     
   8 C8             5.8408     0.3355    -0.8859 C.ar    
   9 O9             5.0693    -1.8081    -0.3609 O.2     
  10 N10            2.4757    -2.4560    -0.2654 N.pl3   
  11 N11            0.1661     1.8066    -0.7069 N.pl3   
  12 N12           -1.1242    -1.6285    -0.2141 N.1     
  13 C13            6.6432     0.8279     0.1465 C.ar    
  14 C14            0.3847     3.1863    -0.7460 C.ar    
  15 C15            7.6333     1.7437    -0.1292 C.ar    
  16 C16            7.8384     2.1819    -1.4333 C.ar    
  17 C17            7.0472     1.6991    -2.4656 C.ar    
  18 C18            6.0525     0.7739    -2.2013 C.ar    
  19 C19           -0.5147     4.0154    -1.4049 C.ar    
  20 O20            5.2779     0.3001    -3.2098 O.3     
  21 C21            5.5439     0.8000    -4.5219 C.3     
  22 C22            1.4986     3.7326    -0.1214 C.ar    
  23 C23            1.7117     5.0966    -0.1620 C.ar    
  24 C24            0.8174     5.9182    -0.8231 C.ar    
  25 C25           -0.2956     5.3782    -1.4417 C.ar    
  26 O26            8.8163     3.0858    -1.6969 O.3     
  27 C27            9.5939     3.5422    -0.5882 C.3     
  28 C28           -1.7277     3.4279    -2.0792 C.3     
  29 C29           -2.8527     3.2669    -1.0548 C.3     
  30 H30            3.3544    -2.8666    -0.2516 H       
  31 H31            1.6824    -3.0045    -0.1619 H       
  32 H32           -0.7389     1.4582    -0.7274 H       
  33 H33            6.4864     0.4906     1.1604 H       
  34 H34            8.2527     2.1235     0.6698 H       
  35 H35            7.2101     2.0426    -3.4765 H       
  36 H36            5.4097     1.8816    -4.5327 H       
  37 H37            6.5692     0.5582    -4.8018 H       
  38 H38            4.8556     0.3413    -5.2318 H       
  39 H39            2.1972     3.0915     0.3958 H       
  40 H40            2.5776     5.5220     0.3234 H       
  41 H41            0.9862     6.9845    -0.8531 H       
  42 H42           -0.9922     6.0227    -1.9572 H       
  43 H43           10.3376     4.2590    -0.9365 H       
  44 H44            8.9408     4.0216     0.1409 H       
  45 H45           10.0966     2.6940    -0.1234 H       
  46 H46           -2.0564     4.0920    -2.8786 H       
  47 H47           -1.4748     2.4535    -2.4972 H       
  48 H48           -2.5240     2.6029    -0.2554 H       
  49 H49           -3.1056     4.2413    -0.6368 H       
  50 H50           -3.7301     2.8420    -1.5425 H       
@<TRIPOS>BOND
   1    1    2 2
   2    1    4 1
   3    1   11 1
   4    2    3 1
   5    2    6 1
   6    3   12 3
   7    4    5 1
   8    5    6 2
   9    5    7 1
  10    6   10 1
  11    7    8 1
  12    7    9 2
  13    8   13 ar
  14    8   18 ar
  15   10   30 1
  16   10   31 1
  17   11   14 1
  18   11   32 1
  19   13   15 ar
  20   13   33 1
  21   14   22 ar
  22   14   19 ar
  23   15   16 ar
  24   15   34 1
  25   16   17 ar
  26   16   26 1
  27   17   18 ar
  28   17   35 1
  29   18   20 1
  30   19   28 1
  31   19   25 ar
  32   20   21 1
  33   21   36 1
  34   21   37 1
  35   21   38 1
  36   22   23 ar
  37   22   39 1
  38   23   24 ar
  39   23   40 1
  40   24   25 ar
  41   24   41 1
  42   25   42 1
  43   26   27 1
  44   27   43 1
  45   27   44 1
  46   27   45 1
  47   28   29 1
  48   28   46 1
  49   28   47 1
  50   29   48 1
  51   29   49 1
  52   29   50 1

#	End of record

