#	Name: ASD08170373
#	Creating user name:	WinNT
#	Creation time:	15. 06. 2019 21:17

#	Modifying user name:	WinNT
#	Modification time:	15. 06. 2019 21:17

#	Program:	/corina/corina34_cracker 3.40 0067  02.08.2006

@<TRIPOS>MOLECULE
ASD08170373
  63   66    0    0    0
SMALL
NO_CHARGES


@<TRIPOS>ATOM
   1 C1            -0.0155     1.2898     0.0091 C.2     
   2 N2             0.0021    -0.0041     0.0020 N.2     
   3 N3            -1.1037    -0.6100     0.0093 N.2     
   4 C4            -2.1876     0.1111     0.0235 C.2     
   5 S5            -1.7023     1.8080     0.0357 S.3     
   6 C6             1.1904     2.1936     0.0025 C.3     
   7 C7             4.5599     4.7632    -3.3985 C.3     
   8 C8             4.8168     4.9749    -4.8683 C.2     
   9 C9             5.9191     5.8091    -5.4897 C.3     
  10 C10            5.6816     5.6506    -6.9786 C.2     
  11 N11            4.6425     4.8733    -7.0907 N.2     
  12 N12            4.1455     4.4776    -5.8533 N.2     
  13 N13            6.4114     6.2113    -7.9988 N.am    
  14 N14           -3.4918    -0.3689     0.0330 N.am    
  15 C15            6.0709     5.9729    -9.2809 C.2     
  16 O16            5.1184     5.2618    -9.5346 O.2     
  17 C17            6.8558     6.5759   -10.3782 C.ar    
  18 C18            6.5060     6.3311   -11.7072 C.ar    
  19 C19           -3.7212    -1.6970     0.0281 C.2     
  20 C20           -5.1082    -2.2075     0.0381 C.ar    
  21 O21           -2.7872    -2.4751     0.0154 O.2     
  22 C22           -6.1828    -1.3169     0.0527 C.ar    
  23 C23            1.5844     2.5077    -1.4422 C.3     
  24 C24            3.3451     3.8504    -3.2194 C.3     
  25 S25            3.0359     3.5956    -1.4502 S.3     
  26 C26           -5.3493    -3.5826     0.0272 C.ar    
  27 C27           -6.6461    -4.0523     0.0362 C.ar    
  28 C28           -7.7070    -3.1639     0.0559 C.ar    
  29 C29           -7.4751    -1.8001     0.0615 C.ar    
  30 C30           -4.1953    -4.5516     0.0052 C.3     
  31 O31           -4.6969    -5.8896    -0.0025 O.3     
  32 C32            7.2431     6.8972   -12.7268 C.ar    
  33 C33            8.3270     7.7057   -12.4345 C.ar    
  34 C34            8.6793     7.9526   -11.1191 C.ar    
  35 C35            7.9472     7.3979   -10.0901 C.ar    
  36 C36            5.3262     5.4499   -12.0275 C.3     
  37 O37            5.1739     5.3545   -13.4451 O.3     
  38 H38            0.9525     3.1207     0.5240 H       
  39 H39            2.0199     1.6964     0.5054 H       
  40 H40            5.4334     4.2996    -2.9401 H       
  41 H41            4.3660     5.7239    -2.9215 H       
  42 H42            5.8232     6.8539    -5.1944 H       
  43 H43            6.8986     5.4189    -5.2132 H       
  44 H44            7.1715     6.7787    -7.7963 H       
  45 H45           -4.2371     0.2519     0.0431 H       
  46 H46           -6.0031    -0.2519     0.0574 H       
  47 H47            1.8223     1.5806    -1.9637 H       
  48 H48            0.7549     3.0049    -1.9451 H       
  49 H49            2.4716     4.3140    -3.6778 H       
  50 H50            3.5390     2.8897    -3.6964 H       
  51 H51           -6.8341    -5.1158     0.0274 H       
  52 H52           -8.7205    -3.5369     0.0625 H       
  53 H53           -8.3075    -1.1121     0.0769 H       
  54 H54           -3.5963    -4.3829    -0.8897 H       
  55 H55           -3.5770    -4.4004     0.8900 H       
  56 H56           -4.0078    -6.5679    -0.0167 H       
  57 H57            6.9735     6.7086   -13.7555 H       
  58 H58            8.9011     8.1458   -13.2364 H       
  59 H59            9.5266     8.5846   -10.8978 H       
  60 H60            8.2230     7.5916    -9.0641 H       
  61 H61            5.4917     4.4558   -11.6121 H       
  62 H62            4.4234     5.8794   -11.5932 H       
  63 H63            4.4317     4.8012   -13.7246 H       
@<TRIPOS>BOND
   1    1    2 2
   2    1    6 1
   3    1    5 1
   4    2    3 1
   5    3    4 2
   6    4    5 1
   7    4   14 1
   8    6   23 1
   9    6   38 1
  10    6   39 1
  11    7    8 1
  12    7   24 1
  13    7   40 1
  14    7   41 1
  15    8    9 1
  16    8   12 2
  17    9   10 1
  18    9   42 1
  19    9   43 1
  20   10   11 2
  21   10   13 1
  22   11   12 1
  23   13   15 am
  24   13   44 1
  25   14   19 am
  26   14   45 1
  27   15   16 2
  28   15   17 1
  29   17   18 ar
  30   17   35 ar
  31   18   32 ar
  32   18   36 1
  33   19   20 1
  34   19   21 2
  35   20   22 ar
  36   20   26 ar
  37   22   29 ar
  38   22   46 1
  39   23   25 1
  40   23   47 1
  41   23   48 1
  42   24   25 1
  43   24   49 1
  44   24   50 1
  45   26   27 ar
  46   26   30 1
  47   27   28 ar
  48   27   51 1
  49   28   29 ar
  50   28   52 1
  51   29   53 1
  52   30   31 1
  53   30   54 1
  54   30   55 1
  55   31   56 1
  56   32   33 ar
  57   32   57 1
  58   33   34 ar
  59   33   58 1
  60   34   35 ar
  61   34   59 1
  62   35   60 1
  63   36   37 1
  64   36   61 1
  65   36   62 1
  66   37   63 1

#	End of record

