#	Name: ASD03240397
#	Creating user name:	WinNT
#	Creation time:	15. 06. 2019 20:34

#	Modifying user name:	WinNT
#	Modification time:	15. 06. 2019 20:34

#	Program:	/corina/corina34_cracker 3.40 0067  02.08.2006

@<TRIPOS>MOLECULE
ASD03240397
  43   45    0    0    0
SMALL
NO_CHARGES


@<TRIPOS>ATOM
   1 C1            -0.1923     1.6441    -0.1402 C.ar    
   2 C2            -0.0691     0.2704    -0.0309 C.ar    
   3 C3            -1.1999    -0.5222     0.0256 C.ar    
   4 C4            -2.4539     0.0572    -0.0277 C.ar    
   5 C5            -2.5776     1.4297    -0.1369 C.ar    
   6 C6            -1.4475     2.2239    -0.1877 C.ar    
   7 C7            -4.4599    -1.5446     2.2957 C.ar    
   8 C8            -4.4132    -0.5564     1.3290 C.ar    
   9 C9            -3.6865    -0.8077     0.0329 C.3     
  10 C10           -5.1241    -1.3196     3.4845 C.ar    
  11 C11           -5.7483    -0.0948     3.7098 C.ar    
  12 C12           -5.6987     0.8967     2.7326 C.ar    
  13 C13           -5.0317     0.6613     1.5473 C.ar    
  14 N14           -3.9423    -0.8252    -2.4025 N.3     
  15 C15           -4.6061    -0.4680    -1.1417 C.3     
  16 C16           -6.4648     0.1526     4.9865 C.2     
  17 C17           -7.3957    -0.6635     5.5598 C.2     
  18 N18           -7.8000    -0.0792     6.7057 N.pl3   
  19 N19           -7.1057     1.1281     6.8499 N.2     
  20 C20           -6.3025     1.2696     5.8290 C.2     
  21 Cl21           1.2276     2.6404    -0.2106 Cl      
  22 C22           -4.7979    -0.5124    -3.5549 C.3     
  23 C23           -5.3719     2.4306     5.5896 C.3     
  24 H24            0.9106    -0.1824     0.0100 H       
  25 H25           -1.1038    -1.5946     0.1110 H       
  26 H26           -3.5575     1.8818    -0.1785 H       
  27 H27           -1.5443     3.2962    -0.2727 H       
  28 H28           -3.9794    -2.4954     2.1183 H       
  29 H29           -3.3971    -1.8571    -0.0238 H       
  30 H30           -5.1602    -2.0919     4.2386 H       
  31 H31           -6.1810     1.8481     2.9022 H       
  32 H32           -4.9923     1.4295     0.7892 H       
  33 H33           -3.0468    -0.3672    -2.4821 H       
  34 H34           -5.5361    -1.0290    -1.0490 H       
  35 H35           -4.8239     0.6000    -1.1356 H       
  36 H36           -7.7454    -1.6068     5.1670 H       
  37 H37           -8.4585    -0.4339     7.3233 H       
  38 H38           -5.7292    -1.0737    -3.4791 H       
  39 H39           -5.0170     0.5553    -3.5656 H       
  40 H40           -4.2823    -0.7867    -4.4753 H       
  41 H41           -4.4055     2.2221     6.0486 H       
  42 H42           -5.2411     2.5763     4.5174 H       
  43 H43           -5.7961     3.3330     6.0298 H       
@<TRIPOS>BOND
   1    1    2 ar
   2    1   21 1
   3    1    6 ar
   4    2    3 ar
   5    2   24 1
   6    3    4 ar
   7    3   25 1
   8    4    5 ar
   9    4    9 1
  10    5    6 ar
  11    5   26 1
  12    6   27 1
  13    7    8 ar
  14    7   10 ar
  15    7   28 1
  16    8    9 1
  17    8   13 ar
  18    9   15 1
  19    9   29 1
  20   10   11 ar
  21   10   30 1
  22   11   12 ar
  23   11   16 1
  24   12   13 ar
  25   12   31 1
  26   13   32 1
  27   14   15 1
  28   14   22 1
  29   14   33 1
  30   15   34 1
  31   15   35 1
  32   16   17 2
  33   16   20 1
  34   17   18 1
  35   17   36 1
  36   18   19 1
  37   18   37 1
  38   19   20 2
  39   20   23 1
  40   22   38 1
  41   22   39 1
  42   22   40 1
  43   23   41 1
  44   23   42 1
  45   23   43 1

#	End of record

