#	Name: ASD08150263
#	Creating user name:	WinNT
#	Creation time:	15. 06. 2019 21:15

#	Modifying user name:	WinNT
#	Modification time:	15. 06. 2019 21:15

#	Program:	/corina/corina34_cracker 3.40 0067  02.08.2006

@<TRIPOS>MOLECULE
ASD08150263
  74   78    0    0    0
SMALL
NO_CHARGES


@<TRIPOS>ATOM
   1 O1             1.0734     1.9958    -0.8497 O.3     
   2 C2             1.1790     0.6754    -1.0645 C.2     
   3 N3             1.9637    -0.1228    -0.3326 N.am    
   4 C4             2.8200     0.3729     0.7418 C.3     
   5 C5             2.3359     1.7514     1.2006 C.3     
   6 C6             2.1080     2.6225    -0.0422 C.3     
   7 O7             0.5311     0.1818    -1.9660 O.2     
   8 C8             1.0757    -3.5889    -0.2854 C.ar    
   9 N9             1.0791    -2.2898    -0.0269 N.ar    
  10 C10            1.9641    -1.4858    -0.6065 C.ar    
  11 C11            2.8931    -2.0285    -1.4938 C.ar    
  12 C12            2.8562    -3.3903    -1.7367 C.ar    
  13 N13            1.9454    -4.1333    -1.1233 N.ar    
  14 N14            0.1438    -4.3987     0.3400 N.3     
  15 C15            0.0785    -5.7197    -0.3019 C.3     
  16 C16           -0.9181    -6.6007     0.4560 C.3     
  17 O17           -2.1918    -5.9512     0.4890 O.3     
  18 C18           -2.1650    -4.6623     1.1080 C.3     
  19 C19           -1.1810    -3.7616     0.3567 C.3     
  20 Cl20           3.9891    -4.1176    -2.8327 Cl      
  21 C21            2.7713    -0.6011     1.9208 C.3     
  22 O22            3.3728    -1.8401     1.5401 O.3     
  23 Si23           3.4616    -2.9330     2.7475 Si      
  24 C24            1.7707    -3.1585     3.5089 C.ar    
  25 C25            1.0991    -2.0709     4.0350 C.ar    
  26 C26           -0.1522    -2.2377     4.5985 C.ar    
  27 C27           -0.7319    -3.4921     4.6354 C.ar    
  28 C28           -0.0606    -4.5795     4.1085 C.ar    
  29 C29            1.1888    -4.4119     3.5411 C.ar    
  30 C30            4.0605    -4.5661     2.0664 C.ar    
  31 C31            3.1611    -5.4512     1.5020 C.ar    
  32 C32            3.6044    -6.6596     0.9980 C.ar    
  33 C33            4.9471    -6.9828     1.0581 C.ar    
  34 C34            5.8466    -6.0974     1.6217 C.ar    
  35 C35            5.4040    -4.8870     2.1217 C.ar    
  36 C36            4.6519    -2.3279     4.0466 C.3     
  37 C37            3.9789    -1.2424     4.8890 C.3     
  38 C38            5.0587    -3.4947     4.9488 C.3     
  39 C39            5.8958    -1.7496     3.3689 C.3     
  40 H40            3.8454     0.4511     0.3807 H       
  41 H41            1.4015     1.6476     1.7522 H       
  42 H42            3.0903     2.2119     1.8386 H       
  43 H43            3.0313     2.6929    -0.6171 H       
  44 H44            1.7855     3.6186     0.2608 H       
  45 H45            3.6245    -1.4003    -1.9805 H       
  46 H46           -0.2486    -5.6063    -1.3355 H       
  47 H47            1.0645    -6.1840    -0.2804 H       
  48 H48           -1.0125    -7.5616    -0.0499 H       
  49 H49           -0.5633    -6.7582     1.4746 H       
  50 H50           -3.1612    -4.2213     1.0738 H       
  51 H51           -1.8465    -4.7634     2.1456 H       
  52 H52           -1.1145    -2.7966     0.8590 H       
  53 H53           -1.5283    -3.6170    -0.6663 H       
  54 H54            3.3153    -0.1773     2.7649 H       
  55 H55            1.7337    -0.7736     2.2069 H       
  56 H56            1.5520    -1.0909     4.0062 H       
  57 H57           -0.6766    -1.3881     5.0102 H       
  58 H58           -1.7091    -3.6225     5.0763 H       
  59 H59           -0.5134    -5.5596     4.1376 H       
  60 H60            1.7117    -5.2609     3.1261 H       
  61 H61            2.1121    -5.1986     1.4551 H       
  62 H62            2.9016    -7.3514     0.5577 H       
  63 H63            5.2932    -7.9273     0.6650 H       
  64 H64            6.8956    -6.3500     1.6689 H       
  65 H65            6.1073    -4.1936     2.5587 H       
  66 H66            2.9997    -1.5916     5.2165 H       
  67 H67            4.5966    -1.0233     5.7600 H       
  68 H68            3.8611    -0.3390     4.2906 H       
  69 H69            5.4342    -4.3142     4.3359 H       
  70 H70            5.8391    -3.1678     5.6359 H       
  71 H71            4.1926    -3.8335     5.5173 H       
  72 H72            5.6218    -0.8558     2.8084 H       
  73 H73            6.6353    -1.4908     4.1267 H       
  74 H74            6.3164    -2.4902     2.6887 H       
@<TRIPOS>BOND
   1    1    2 1
   2    1    6 1
   3    2    3 am
   4    2    7 2
   5    3    4 1
   6    3   10 1
   7    4    5 1
   8    4   21 1
   9    4   40 1
  10    5    6 1
  11    5   41 1
  12    5   42 1
  13    6   43 1
  14    6   44 1
  15    8    9 ar
  16    8   13 ar
  17    8   14 1
  18    9   10 ar
  19   10   11 ar
  20   11   12 ar
  21   11   45 1
  22   12   13 ar
  23   12   20 1
  24   14   15 1
  25   14   19 1
  26   15   16 1
  27   15   46 1
  28   15   47 1
  29   16   17 1
  30   16   48 1
  31   16   49 1
  32   17   18 1
  33   18   19 1
  34   18   50 1
  35   18   51 1
  36   19   52 1
  37   19   53 1
  38   21   22 1
  39   21   54 1
  40   21   55 1
  41   22   23 1
  42   23   24 1
  43   23   30 1
  44   23   36 1
  45   24   25 ar
  46   24   29 ar
  47   25   26 ar
  48   25   56 1
  49   26   27 ar
  50   26   57 1
  51   27   28 ar
  52   27   58 1
  53   28   29 ar
  54   28   59 1
  55   29   60 1
  56   30   31 ar
  57   30   35 ar
  58   31   32 ar
  59   31   61 1
  60   32   33 ar
  61   32   62 1
  62   33   34 ar
  63   33   63 1
  64   34   35 ar
  65   34   64 1
  66   35   65 1
  67   36   37 1
  68   36   39 1
  69   36   38 1
  70   37   66 1
  71   37   67 1
  72   37   68 1
  73   38   69 1
  74   38   70 1
  75   38   71 1
  76   39   72 1
  77   39   73 1
  78   39   74 1

#	End of record

