#	Name: ASD04598006
#	Creating user name:	WinNT
#	Creation time:	15. 06. 2019 20:52

#	Modifying user name:	WinNT
#	Modification time:	15. 06. 2019 20:52

#	Program:	/corina/corina34_cracker 3.40 0067  02.08.2006

@<TRIPOS>MOLECULE
ASD04598006
  29   31    0    0    0
SMALL
NO_CHARGES


@<TRIPOS>ATOM
   1 N1             0.0243     1.3432    -0.3872 N.am    
   2 C2             0.0771     0.0065    -0.5153 C.2     
   3 C3             1.4012    -0.4416    -0.0637 C.2     
   4 C4             2.1090     0.7935     0.3410 C.ar    
   5 C5             3.3803     1.0398     0.8496 C.ar    
   6 C6             3.7633     2.3386     1.1384 C.ar    
   7 C7             2.8792     3.3879     0.9200 C.ar    
   8 C8             1.6173     3.1491     0.4159 C.ar    
   9 C9             1.2165     1.8508     0.1203 C.ar    
  10 O10           -0.8169    -0.7084    -0.9322 O.2     
  11 O11            5.0042     2.5870     1.6361 O.3     
  12 C12            5.3318     3.9505     1.9111 C.3     
  13 C13            1.8815    -1.7356    -0.0252 C.2     
  14 C14           -0.8400    -4.0152     0.3369 C.2     
  15 N15            0.1542    -4.8462     0.1518 N.2     
  16 C16            1.2883    -4.1661    -0.0078 C.2     
  17 C17            0.9832    -2.8190     0.0836 C.2     
  18 N18           -0.3806    -2.7502     0.3036 N.pl3   
  19 H19           -0.7450     1.8853    -0.6223 H       
  20 H20            4.0650     0.2219     1.0185 H       
  21 H21            3.1823     4.3993     1.1472 H       
  22 H22            0.9389     3.9729     0.2504 H       
  23 H23            6.3475     4.0083     2.3024 H       
  24 H24            5.2626     4.5332     0.9926 H       
  25 H25            4.6352     4.3500     2.6482 H       
  26 H26            2.9446    -1.9187    -0.0784 H       
  27 H27           -1.8706    -4.3002     0.4884 H       
  28 H28            2.2677    -4.5887    -0.1771 H       
  29 H29           -0.9069    -1.9428     0.4129 H       
@<TRIPOS>BOND
   1    1    2 am
   2    1    9 1
   3    1   19 1
   4    2    3 1
   5    2   10 2
   6    3    4 1
   7    3   13 2
   8    4    5 ar
   9    4    9 ar
  10    5    6 ar
  11    5   20 1
  12    6    7 ar
  13    6   11 1
  14    7    8 ar
  15    7   21 1
  16    8    9 ar
  17    8   22 1
  18   11   12 1
  19   12   23 1
  20   12   24 1
  21   12   25 1
  22   13   17 1
  23   13   26 1
  24   14   15 2
  25   14   18 1
  26   14   27 1
  27   15   16 1
  28   16   17 2
  29   16   28 1
  30   17   18 1
  31   18   29 1

#	End of record

