#	Name: ASD07300372
#	Creating user name:	WinNT
#	Creation time:	15. 06. 2019 21:09

#	Modifying user name:	WinNT
#	Modification time:	15. 06. 2019 21:09

#	Program:	/corina/corina34_cracker 3.40 0067  02.08.2006

@<TRIPOS>MOLECULE
ASD07300372
  47   51    0    0    0
SMALL
NO_CHARGES


@<TRIPOS>ATOM
   1 C1            -0.8616     0.9886    -0.1295 C.ar    
   2 C2            -1.0250    -0.3820    -0.3528 C.ar    
   3 C3             0.0598    -1.2312    -0.1935 C.ar    
   4 C4             1.2758    -0.6788     0.1851 C.ar    
   5 C5             1.3652     0.6865     0.3891 C.ar    
   6 N6             0.3165     1.4706     0.2302 N.ar    
   7 C7            -2.9759     0.6161    -0.7004 C.2     
   8 N8            -2.1004     1.5787    -0.3561 N.am    
   9 N9            -2.3550    -0.5789    -0.7122 N.am    
  10 O10           -4.1495     0.7984    -0.9647 O.2     
  11 C11           -2.3891     2.9468    -0.2438 C.ar    
  12 C12           -3.6732     3.4087    -0.4988 C.ar    
  13 C13           -3.9569     4.7554    -0.3882 C.ar    
  14 C14           -2.9588     5.6472    -0.0229 C.ar    
  15 C15           -1.6751     5.1861     0.2316 C.ar    
  16 C16           -1.3921     3.8387     0.1278 C.ar    
  17 O17           -3.2385     6.9733     0.0854 O.3     
  18 C18           -4.9954     8.6889     2.6116 C.ar    
  19 C19           -4.9118     7.3780     3.1142 C.ar    
  20 C20           -5.4850     7.0911     4.3559 C.ar    
  21 C21           -6.1126     8.1174     5.0379 C.ar    
  22 C22           -6.1547     9.3836     4.4784 C.ar    
  23 N23           -5.6078     9.6334     3.3058 N.ar    
  24 C24           -3.9145     7.3924     1.1795 C.2     
  25 N25           -4.3562     8.6672     1.3872 N.pl3   
  26 N26           -4.2371     6.6376     2.1977 N.2     
  27 C27           -4.1844     9.8033     0.4784 C.3     
  28 C28           -2.9749    -1.8655    -1.0387 C.3     
  29 C29           -3.5384    -2.4980     0.2354 C.3     
  30 Cl30           2.6697    -1.6909     0.4009 Cl      
  31 H31           -0.0389    -2.2938    -0.3592 H       
  32 H32            2.3103     1.1180     0.6840 H       
  33 H33           -4.4501     2.7147    -0.7839 H       
  34 H34           -4.9559     5.1148    -0.5866 H       
  35 H35           -0.8983     5.8807     0.5153 H       
  36 H36           -0.3941     3.4792     0.3309 H       
  37 H37           -5.4393     6.0952     4.7713 H       
  38 H38           -6.5671     7.9327     6.0001 H       
  39 H39           -6.6461    10.1825     5.0139 H       
  40 H40           -3.2529    10.3185     0.7129 H       
  41 H41           -4.1519     9.4441    -0.5502 H       
  42 H42           -5.0205    10.4926     0.5963 H       
  43 H43           -3.7821    -1.7088    -1.7542 H       
  44 H44           -2.2274    -2.5290    -1.4738 H       
  45 H45           -2.7312    -2.6547     0.9509 H       
  46 H46           -4.2859    -1.8345     0.6704 H       
  47 H47           -3.9996    -3.4553    -0.0075 H       
@<TRIPOS>BOND
   1    1    2 ar
   2    1    6 ar
   3    1    8 1
   4    2    3 ar
   5    2    9 1
   6    3    4 ar
   7    3   31 1
   8    4    5 ar
   9    4   30 1
  10    5    6 ar
  11    5   32 1
  12    7    8 am
  13    7    9 am
  14    7   10 2
  15    8   11 1
  16    9   28 1
  17   11   12 ar
  18   11   16 ar
  19   12   13 ar
  20   12   33 1
  21   13   14 ar
  22   13   34 1
  23   14   15 ar
  24   14   17 1
  25   15   16 ar
  26   15   35 1
  27   16   36 1
  28   17   24 1
  29   18   19 ar
  30   18   23 ar
  31   18   25 1
  32   19   20 ar
  33   19   26 1
  34   20   21 ar
  35   20   37 1
  36   21   22 ar
  37   21   38 1
  38   22   23 ar
  39   22   39 1
  40   24   25 1
  41   24   26 2
  42   25   27 1
  43   27   40 1
  44   27   41 1
  45   27   42 1
  46   28   29 1
  47   28   43 1
  48   28   44 1
  49   29   45 1
  50   29   46 1
  51   29   47 1

#	End of record

