#	Name: ASD01940588
#	Creating user name:	WinNT
#	Creation time:	15. 06. 2019 20:12

#	Modifying user name:	WinNT
#	Modification time:	15. 06. 2019 20:12

#	Program:	/corina/corina34_cracker 3.40 0067  02.08.2006

@<TRIPOS>MOLECULE
ASD01940588
  58   60    0    0    0
SMALL
NO_CHARGES


@<TRIPOS>ATOM
   1 C1            -0.7258     2.7044     0.4178 C.ar    
   2 C2            -1.7953     2.6581    -0.4660 C.ar    
   3 C3            -1.6164     3.0374    -1.7906 C.ar    
   4 C4            -0.3755     3.4596    -2.2276 C.ar    
   5 C5             0.6901     3.5064    -1.3494 C.ar    
   6 C6             0.5173     3.1290    -0.0244 C.ar    
   7 N7            -3.0494     2.2304    -0.0244 N.am    
   8 S8            -3.5924     0.7155    -0.4149 S.o2    
   9 C9            -2.4310    -0.4081     0.4094 C.3     
  10 O10           -4.8762     0.6368     0.1892 O.2     
  11 O11           -3.4410     0.6418    -1.8259 O.2     
  12 O12            1.5662     3.1760     0.8381 O.3     
  13 C13            2.7895     3.4977     0.3387 C.ar    
  14 C14            3.6685     2.4952    -0.0445 C.ar    
  15 C15            4.9140     2.8208    -0.5530 C.ar    
  16 C16            5.2881     4.1474    -0.6818 C.ar    
  17 C17            4.4143     5.1563    -0.3011 C.ar    
  18 C18            3.1582     4.8318     0.2065 C.ar    
  19 N19            4.7927     6.4980    -0.4315 N.pl3   
  20 C20            5.8993     6.8394    -1.2157 C.ar    
  21 C21            6.2159     6.0858    -2.3382 C.ar    
  22 C22            7.3095     6.4252    -3.1108 C.ar    
  23 C23            8.0902     7.5145    -2.7680 C.ar    
  24 C24            7.7792     8.2681    -1.6503 C.ar    
  25 C25            6.6820     7.9380    -0.8761 C.ar    
  26 F26            6.3746     8.6775     0.2119 F       
  27 I27            9.7479     8.0236    -3.9435 I       
  28 N28            2.2689     5.8492     0.5884 N.am    
  29 S29            1.7975     5.9863     2.1700 S.o2    
  30 C30           -2.7587    -1.8523     0.0250 C.3     
  31 F31            5.7672     1.8412    -0.9241 F       
  32 O32            0.9414     7.1204     2.1834 O.2     
  33 O33            1.3077     4.6946     2.5029 O.2     
  34 C34            3.3324     6.3368     3.0710 C.3     
  35 C35            3.0459     6.3683     4.5736 C.3     
  36 O36            4.2722     6.5305     5.2891 O.3     
  37 H37           -0.8631     2.4144     1.4491 H       
  38 H38           -2.4476     3.0018    -2.4791 H       
  39 H39           -0.2382     3.7534    -3.2577 H       
  40 H40            1.6589     3.8365    -1.6941 H       
  41 H41           -3.6023     2.8207     0.5110 H       
  42 H42           -1.4136    -0.1712     0.0983 H       
  43 H43           -2.5172    -0.2912     1.4897 H       
  44 H44            3.3806     1.4590     0.0543 H       
  45 H45            6.2609     4.3975    -1.0787 H       
  46 H46            4.2874     7.1907     0.0220 H       
  47 H47            5.6077     5.2346    -2.6067 H       
  48 H48            7.5556     5.8390    -3.9839 H       
  49 H49            8.3911     9.1175    -1.3848 H       
  50 H50            1.9307     6.4717    -0.0742 H       
  51 H51           -2.0609    -2.5274     0.5203 H       
  52 H52           -3.7762    -2.0891     0.3361 H       
  53 H53           -2.6726    -1.9692    -1.0553 H       
  54 H54            4.0651     5.5586     2.8571 H       
  55 H55            3.7262     7.3030     2.7558 H       
  56 H56            2.3807     7.2018     4.7992 H       
  57 H57            2.5716     5.4337     4.8727 H       
  58 H58            4.1662     6.5590     6.2498 H       
@<TRIPOS>BOND
   1    1    2 ar
   2    1    6 ar
   3    1   37 1
   4    2    3 ar
   5    2    7 1
   6    3    4 ar
   7    3   38 1
   8    4    5 ar
   9    4   39 1
  10    5    6 ar
  11    5   40 1
  12    6   12 1
  13    7    8 am
  14    7   41 1
  15    8    9 1
  16    8   10 2
  17    8   11 2
  18    9   30 1
  19    9   42 1
  20    9   43 1
  21   12   13 1
  22   13   14 ar
  23   13   18 ar
  24   14   15 ar
  25   14   44 1
  26   15   16 ar
  27   15   31 1
  28   16   17 ar
  29   16   45 1
  30   17   18 ar
  31   17   19 1
  32   18   28 1
  33   19   20 1
  34   19   46 1
  35   20   21 ar
  36   20   25 ar
  37   21   22 ar
  38   21   47 1
  39   22   23 ar
  40   22   48 1
  41   23   24 ar
  42   23   27 1
  43   24   25 ar
  44   24   49 1
  45   25   26 1
  46   28   29 am
  47   28   50 1
  48   29   32 2
  49   29   33 2
  50   29   34 1
  51   30   51 1
  52   30   52 1
  53   30   53 1
  54   34   35 1
  55   34   54 1
  56   34   55 1
  57   35   36 1
  58   35   56 1
  59   35   57 1
  60   36   58 1

#	End of record

