#	Name: ASD01883135
#	Creating user name:	WinNT
#	Creation time:	15. 06. 2019 19:45

#	Modifying user name:	WinNT
#	Modification time:	15. 06. 2019 19:45

#	Program:	/corina/corina34_cracker 3.40 0067  02.08.2006

@<TRIPOS>MOLECULE
ASD01883135
  38   39    0    0    0
SMALL
NO_CHARGES


@<TRIPOS>ATOM
   1 N1            -0.0162     1.3417     0.0094 N.am    
   2 C2             0.0021    -0.0041     0.0020 C.2     
   3 C3            -1.2164    -0.7274     0.0098 C.2     
   4 C4            -2.4259    -0.0115     0.0252 C.2     
   5 C5            -2.3786     1.3961     0.0323 C.2     
   6 C6            -1.1849     2.0322     0.0299 C.2     
   7 O7             1.0656    -0.6000    -0.0117 O.2     
   8 C8            -1.2155    -2.1594     0.0016 C.1     
   9 N9            -1.2148    -3.2954    -0.0049 N.1     
  10 C10            1.2512     2.0765     0.0013 C.3     
  11 C11            1.6786     2.3401    -1.4440 C.3     
  12 C12            3.0022     3.1075    -1.4525 C.3     
  13 C13            3.4928     3.2622    -2.8935 C.3     
  14 C14            2.7936     4.4910    -0.8334 C.3     
  15 C15           -3.7224    -0.7222     0.0332 C.ar    
  16 C16           -4.5718    -0.6176     1.1365 C.ar    
  17 C17           -5.7796    -1.2823     1.1389 C.ar    
  18 C18           -6.1510    -2.0540     0.0486 C.ar    
  19 C19           -5.3114    -2.1613    -1.0494 C.ar    
  20 C20           -4.1042    -1.4957    -1.0648 C.ar    
  21 F21           -7.3353    -2.7042     0.0564 F       
  22 H22           -3.2951     1.9673     0.0441 H       
  23 H23           -1.1611     3.1119     0.0358 H       
  24 H24            1.1241     3.0259     0.5214 H       
  25 H25            2.0168     1.4861     0.5046 H       
  26 H26            1.8057     1.3906    -1.9642 H       
  27 H27            0.9131     2.9305    -1.9474 H       
  28 H28            3.7443     2.5583    -0.8731 H       
  29 H29            2.7506     3.8114    -3.4729 H       
  30 H30            4.4357     3.8089    -2.8995 H       
  31 H31            3.6414     2.2766    -3.3345 H       
  32 H32            2.4441     4.3807     0.1931 H       
  33 H33            3.7365     5.0377    -0.8395 H       
  34 H34            2.0515     5.0401    -1.4129 H       
  35 H35           -4.2831    -0.0173     1.9866 H       
  36 H36           -6.4373    -1.2021     1.9917 H       
  37 H37           -5.6056    -2.7637    -1.8961 H       
  38 H38           -3.4510    -1.5797    -1.9207 H       
@<TRIPOS>BOND
   1    1    2 am
   2    1   10 1
   3    1    6 1
   4    2    3 1
   5    2    7 2
   6    3    4 2
   7    3    8 1
   8    4    5 1
   9    4   15 1
  10    5    6 2
  11    5   22 1
  12    6   23 1
  13    8    9 3
  14   10   11 1
  15   10   24 1
  16   10   25 1
  17   11   12 1
  18   11   26 1
  19   11   27 1
  20   12   13 1
  21   12   14 1
  22   12   28 1
  23   13   29 1
  24   13   30 1
  25   13   31 1
  26   14   32 1
  27   14   33 1
  28   14   34 1
  29   15   16 ar
  30   15   20 ar
  31   16   17 ar
  32   16   35 1
  33   17   18 ar
  34   17   36 1
  35   18   19 ar
  36   18   21 1
  37   19   20 ar
  38   19   37 1
  39   20   38 1

#	End of record

