#	Name: ASD06590051
#	Creating user name:	WinNT
#	Creation time:	15. 06. 2019 21:06

#	Modifying user name:	WinNT
#	Modification time:	15. 06. 2019 21:06

#	Program:	/corina/corina34_cracker 3.40 0067  02.08.2006

@<TRIPOS>MOLECULE
ASD06590051
 297  296    0    0    0
SMALL
NO_CHARGES


@<TRIPOS>ATOM
   1 C1            -1.1904     2.3169    -2.9373 C.2     
   2 O2            -1.2845     1.6086    -3.9173 O.2     
   3 N3             1.1119     1.5544    -2.8530 N.am    
   4 C4             0.1188     2.4081    -2.1964 C.3     
   5 C5             0.6084     3.8576    -2.2025 C.3     
   6 O6             0.6817     4.3299    -3.5492 O.3     
   7 C7            -4.5461     3.8253    -2.5658 C.2     
   8 O8            -4.2415     4.4616    -1.5793 O.2     
   9 N9            -2.2550     3.0268    -2.5142 N.am    
  10 C10           -3.5260     2.9429    -3.2380 C.3     
  11 C11           -8.1733     4.2549    -2.7130 C.2     
  12 O12           -8.3176     3.2716    -3.4082 O.2     
  13 N13           -5.7969     3.9073    -3.0609 N.am    
  14 C14           -6.7886     4.7651    -2.4075 C.3     
  15 C15           -6.6463     6.1969    -2.9276 C.3     
  16 C16           -5.2862     6.7588    -2.5087 C.3     
  17 C17           -5.1439     8.1906    -3.0289 C.3     
  18 N18           -3.8417     8.7287    -2.6278 N.pl3   
  19 C19           -3.4873    10.0084    -2.9842 C.2     
  20 N20           -4.3100    10.7429    -3.6789 N.2     
  21 N21           -2.2652    10.5133    -2.6078 N.pl3   
  22 C22          -11.5858     5.5276    -2.3998 C.2     
  23 O23          -11.2313     6.6012    -1.9607 O.2     
  24 N24           -9.2513     4.8914    -2.2138 N.am    
  25 C25          -10.5975     4.3954    -2.5109 C.3     
  26 C26          -10.9675     3.2958    -1.5135 C.3     
  27 C27          -10.0574     2.0848    -1.7287 C.3     
  28 C28          -10.7899     3.8201    -0.0872 C.3     
  29 C29          -15.2268     5.8300    -2.5208 C.2     
  30 O30          -15.3795     4.6297    -2.6040 O.2     
  31 N31          -12.8636     5.3472    -2.7884 N.am    
  32 C32          -13.8432     6.4212    -2.6062 C.3     
  33 C33          -13.7721     7.3833    -3.7937 C.3     
  34 C34          -12.4085     8.0771    -3.8070 C.3     
  35 C35          -12.2897     8.9442    -5.0619 C.3     
  36 C36          -12.2725     8.9582    -2.5635 C.3     
  37 C37          -18.6534     7.0918    -2.6923 C.2     
  38 O38          -18.2885     8.1980    -3.0300 O.2     
  39 N39          -16.2944     6.6351    -2.3521 N.am    
  40 C40          -17.6394     6.0604    -2.2691 C.3     
  41 C41          -17.9217     5.6288    -0.8287 C.3     
  42 C42          -22.2826     7.4724    -2.4746 C.2     
  43 O43          -22.3993     6.4993    -1.7602 O.2     
  44 N44          -19.9657     6.7849    -2.6956 N.am    
  45 C45          -20.9515     7.7876    -3.1070 C.3     
  46 C46          -21.0932     7.7683    -4.6303 C.3     
  47 C47          -19.7431     8.0938    -5.2723 C.3     
  48 O48          -21.5213     6.4720    -5.0525 O.3     
  49 C49          -25.7349     8.5509    -3.0045 C.2     
  50 O50          -25.4341     9.2321    -3.9618 O.2     
  51 N51          -23.3432     8.2720    -2.7028 N.am    
  52 C52          -24.6579     7.9170    -2.1625 C.3     
  53 C53          -24.7714     8.4235    -0.7232 C.3     
  54 C54          -23.7596     7.6879     0.1577 C.3     
  55 C55          -23.8731     8.1944     1.5969 C.3     
  56 C56          -22.8614     7.4587     2.4778 C.3     
  57 N57          -22.9704     7.9451     3.8597 N.3     
  58 C58          -29.3369     9.1184    -2.6204 C.2     
  59 O59          -29.4719     8.3786    -1.6689 O.2     
  60 N60          -27.0326     8.3608    -2.6939 N.am    
  61 C61          -28.0760     9.0642    -3.4440 C.3     
  62 C62          -28.3529     8.3205    -4.7521 C.3     
  63 C63          -29.4411     9.0564    -5.5366 C.3     
  64 C64          -28.9223    10.4318    -5.9608 C.3     
  65 C65          -29.8105     8.2449    -6.7800 C.3     
  66 C66          -32.6709    10.5637    -3.0185 C.2     
  67 O67          -32.4488    10.9018    -4.1618 O.2     
  68 N68          -30.3145     9.9889    -2.9412 N.am    
  69 C69          -31.5570    10.0136    -2.1655 C.3     
  70 C70          -31.3716    10.9020    -0.9337 C.3     
  71 C71          -30.3277    10.2765    -0.0063 C.3     
  72 C72          -30.1423    11.1649     1.2255 C.3     
  73 N73          -29.1428    10.5661     2.1136 N.pl3   
  74 C74          -28.8080    11.1904     3.2918 C.2     
  75 N75          -29.3798    12.3151     3.6188 N.2     
  76 N76          -27.8700    10.6284     4.1251 N.pl3   
  77 C77          -36.0609    11.8098    -2.4541 C.2     
  78 O78          -35.9277    11.7893    -1.2488 O.2     
  79 N79          -33.9140    10.6798    -2.5108 N.am    
  80 C80          -34.9969    11.2146    -3.3400 C.3     
  81 C81          -35.6027    10.0864    -4.1773 C.3     
  82 C82          -34.5564     9.5656    -5.1646 C.3     
  83 C83          -35.1531     8.4544    -5.9893 C.2     
  84 O84          -36.2979     8.1139    -5.8062 O.2     
  85 O85          -34.4129     7.8428    -6.9273 O.3     
  86 C86          -39.5166    12.9293    -2.8638 C.2     
  87 O87          -39.5855    12.4904    -3.9923 O.2     
  88 N88          -37.1604    12.3648    -3.0013 N.am    
  89 C89          -38.1947    12.9434    -2.1402 C.3     
  90 C90          -37.8199    14.3851    -1.7910 C.3     
  91 C91          -36.4854    14.3981    -1.0427 C.3     
  92 O92          -37.7001    15.1504    -2.9919 O.3     
  93 C93          -42.4341    14.8880    -2.8930 C.2     
  94 O94          -41.8309    15.7320    -2.2647 O.2     
  95 N95          -40.6222    13.4044    -2.2569 N.am    
  96 C96          -41.8845    13.4886    -2.9956 C.3     
  97 C97          -42.8902    12.5008    -2.4011 C.3     
  98 C98          -42.3702    11.0957    -2.5632 C.2     
  99 O99          -41.3382    10.8971    -3.1686 O.2     
 100 N100         -43.0518    10.0597    -2.0353 N.am    
 101 C101         -45.6252    16.5299    -3.5891 C.2     
 102 O102         -46.1886    15.4745    -3.7877 O.2     
 103 N103         -43.5961    15.2018    -3.4995 N.am    
 104 C104         -44.1305    16.5622    -3.3998 C.3     
 105 C105         -43.4981    17.4392    -4.4823 C.3     
 106 C106         -48.3386    19.0420    -3.6190 C.2     
 107 O107         -47.5903    19.9738    -3.4125 O.2     
 108 N108         -46.3359    17.6739    -3.5376 N.am    
 109 C109         -47.7889    17.6425    -3.7216 C.3     
 110 C110         -50.4380    20.9582    -2.2089 C.2     
 111 O111         -50.1895    20.1472    -1.3484 O.2     
 112 N112         -49.6618    19.2580    -3.7567 N.am    
 113 C113         -50.1961    20.6184    -3.6570 C.3     
 114 C114         -51.5144    20.7064    -4.4285 C.3     
 115 C115         -51.2490    20.4840    -5.9188 C.3     
 116 C116         -52.5673    20.5720    -6.6904 C.3     
 117 N117         -52.3131    20.3591    -8.1174 N.pl3   
 118 C118         -53.3550    20.3930    -9.0137 C.2     
 119 N119         -53.1288    20.2036   -10.2833 N.2     
 120 N120         -54.6354    20.6266    -8.5709 N.pl3   
 121 O121         -50.9295    22.1618    -1.8749 O.3     
 122 C122           2.1542     1.0694    -2.1495 C.2     
 123 O123           2.2699     1.3397    -0.9728 O.2     
 124 C124          17.9212    -8.9283    -0.5257 C.3     
 125 C125          16.8839    -8.0367     0.1600 C.3     
 126 C126          15.8147    -7.6255    -0.8541 C.3     
 127 C127          14.7775    -6.7339    -0.1685 C.3     
 128 C128          13.7082    -6.3227    -1.1826 C.3     
 129 C129          12.6710    -5.4311    -0.4969 C.3     
 130 C130          11.6017    -5.0199    -1.5110 C.3     
 131 C131          10.5645    -4.1284    -0.8254 C.3     
 132 C132           9.4953    -3.7171    -1.8395 C.3     
 133 C133           8.4580    -2.8256    -1.1538 C.3     
 134 C134           7.3888    -2.4143    -2.1679 C.3     
 135 C135           6.3515    -1.5228    -1.4823 C.3     
 136 C136           5.2823    -1.1115    -2.4964 C.3     
 137 C137           4.2451    -0.2200    -1.8107 C.3     
 138 C138           3.1758     0.1913    -2.8248 C.3     
 139 H139           1.0194     1.3382    -3.7940 H       
 140 H140          -0.0221     2.0765    -1.1677 H       
 141 H141          -0.0867     4.4783    -1.6372 H       
 142 H142           1.5964     3.9093    -1.7450 H       
 143 H143           0.9857     5.2444    -3.6293 H       
 144 H144          -2.1797     3.5933    -1.7304 H       
 145 H145          -3.8788     1.9116    -3.2342 H       
 146 H146          -3.3809     3.2735    -4.2664 H       
 147 H147          -6.0405     3.3984    -3.8499 H       
 148 H148          -6.6263     4.7522    -1.3297 H       
 149 H149          -6.7203     6.1974    -4.0151 H       
 150 H150          -7.4397     6.8160    -2.5091 H       
 151 H151          -5.2122     6.7583    -1.4212 H       
 152 H152          -4.4928     6.1397    -2.9272 H       
 153 H153          -5.2179     8.1912    -4.1164 H       
 154 H154          -5.9374     8.8098    -2.6104 H       
 155 H155          -3.2294     8.1821    -2.1108 H       
 156 H156          -4.0600    11.6458    -3.9303 H       
 157 H157          -1.6530     9.9667    -2.0908 H       
 158 H158          -2.0152    11.4162    -2.8592 H       
 159 H159          -9.1359     5.6778    -1.6578 H       
 160 H160         -10.6205     3.9909    -3.5228 H       
 161 H161         -12.0059     3.0015    -1.6658 H       
 162 H162          -9.0318     2.3512    -1.4734 H       
 163 H163         -10.3887     1.2638    -1.0928 H       
 164 H164         -10.1035     1.7767    -2.7732 H       
 165 H165         -11.4382     4.6828     0.0661 H       
 166 H166         -11.0535     3.0367     0.6234 H       
 167 H167          -9.7515     4.1144     0.0652 H       
 168 H168         -13.1347     4.5063    -3.1886 H       
 169 H169         -13.6221     6.9625    -1.6863 H       
 170 H170         -13.9053     6.8262    -4.7211 H       
 171 H171         -14.5596     8.1314    -3.7029 H       
 172 H172         -11.6186     7.3260    -3.8082 H       
 173 H173         -13.0795     9.6954    -5.0607 H       
 174 H174         -11.3182     9.4385    -5.0714 H       
 175 H175         -12.3866     8.3165    -5.9477 H       
 176 H176         -12.3572     8.3405    -1.6695 H       
 177 H177         -11.3011     9.4525    -2.5730 H       
 178 H178         -13.0624     9.7093    -2.5623 H       
 179 H179         -16.1722     7.5951    -2.2855 H       
 180 H180         -17.7057     5.1942    -2.9275 H       
 181 H181         -17.8554     6.4949    -0.1702 H       
 182 H182         -18.9224     5.2012    -0.7669 H       
 183 H183         -17.1883     4.8828    -0.5226 H       
 184 H184         -20.2576     5.9001    -2.4255 H       
 185 H185         -20.6211     8.7752    -2.7853 H       
 186 H186         -21.8296     8.5116    -4.9361 H       
 187 H187         -19.0302     7.3026    -5.0400 H       
 188 H188         -19.8634     8.1687    -6.3530 H       
 189 H189         -19.3740     9.0419    -4.8812 H       
 190 H190         -22.3724     6.1992    -4.6832 H       
 191 H191         -23.2362     9.0825    -3.2249 H       
 192 H192         -24.7760     6.8335    -2.1767 H       
 193 H193         -24.5653     9.4936    -0.6973 H       
 194 H194         -25.7791     8.2385    -0.3513 H       
 195 H195         -23.9657     6.6178     0.1318 H       
 196 H196         -22.7519     7.8729    -0.2142 H       
 197 H197         -23.6671     9.2644     1.6228 H       
 198 H198         -24.8809     8.0093     1.9688 H       
 199 H199         -23.0674     6.3887     2.4519 H       
 200 H200         -21.8536     7.6438     2.1059 H       
 201 H201         -23.9129     7.8437     4.2054 H       
 202 H202         -22.3118     7.4741     4.4618 H       
 203 H203         -27.2756     7.7583    -1.9736 H       
 204 H204         -27.7431    10.0781    -3.6659 H       
 205 H205         -27.4405     8.2800    -5.3472 H       
 206 H206         -28.6873     7.3071    -4.5302 H       
 207 H207         -30.3227     9.1788    -4.9075 H       
 208 H208         -29.7213    10.9852    -6.4542 H       
 209 H209         -28.5892    10.9818    -5.0807 H       
 210 H210         -28.0867    10.3083    -6.6498 H       
 211 H211         -30.1801     7.2650    -6.4778 H       
 212 H212         -30.5857     8.7691    -7.3388 H       
 213 H213         -28.9289     8.1225    -7.4091 H       
 214 H214         -30.1954    10.5991    -3.6858 H       
 215 H215         -31.8078     9.0012    -1.8489 H       
 216 H216         -31.0345    11.8904    -1.2460 H       
 217 H217         -32.3203    10.9920    -0.4045 H       
 218 H218         -30.6648     9.2881     0.3060 H       
 219 H219         -29.3790    10.1865    -0.5354 H       
 220 H220         -29.8052    12.1533     0.9133 H       
 221 H221         -31.0910    11.2550     1.7547 H       
 222 H222         -28.7172     9.7291     1.8702 H       
 223 H223         -29.1436    12.7556     4.4501 H       
 224 H224         -27.4444     9.7914     3.8818 H       
 225 H225         -27.6338    11.0689     4.9564 H       
 226 H226         -34.0916    10.4094    -1.5963 H       
 227 H227         -34.6014    11.9856    -4.0011 H       
 228 H228         -35.9180     9.2756    -3.5206 H       
 229 H229         -36.4646    10.4646    -4.7272 H       
 230 H230         -34.2411    10.3764    -5.8213 H       
 231 H231         -33.6945     9.1874    -4.6147 H       
 232 H232         -34.8391     7.1358    -7.4309 H       
 233 H233         -37.2669    12.3812    -3.9653 H       
 234 H234         -38.2753    12.3571    -1.2249 H       
 235 H235         -38.5949    14.8192    -1.1593 H       
 236 H236         -35.6923    14.0576    -1.7084 H       
 237 H237         -36.2673    15.4117    -0.7064 H       
 238 H238         -36.5459    13.7342    -0.1803 H       
 239 H239         -38.5106    15.1858    -3.5182 H       
 240 H240         -40.5821    13.6906    -1.3309 H       
 241 H241         -41.7095    13.2429    -4.0430 H       
 242 H242         -43.0290    12.7169    -1.3418 H       
 243 H243         -43.8442    12.5972    -2.9196 H       
 244 H244         -43.8771    10.2185    -1.5511 H       
 245 H245         -42.7170     9.1553    -2.1396 H       
 246 H246         -44.0786    14.5268    -4.0021 H       
 247 H247         -43.8975    16.9730    -2.4174 H       
 248 H248         -43.8957    18.4513    -4.4081 H       
 249 H249         -42.4170    17.4625    -4.3454 H       
 250 H250         -43.7312    17.0284    -5.4647 H       
 251 H251         -45.8852    18.5181    -3.3787 H       
 252 H252         -48.2394    17.0178    -2.9504 H       
 253 H253         -48.0219    17.2318    -4.7040 H       
 254 H254         -50.2603    18.5128    -3.9219 H       
 255 H255         -49.4796    21.3222    -4.0806 H       
 256 H256         -52.2006    19.9421    -4.0637 H       
 257 H257         -51.9566    21.6918    -4.2813 H       
 258 H258         -50.5628    21.2483    -6.2836 H       
 259 H259         -50.8069    19.4987    -6.0661 H       
 260 H260         -53.2535    19.8077    -6.3256 H       
 261 H261         -53.0094    21.5574    -6.5431 H       
 262 H262         -51.4097    20.1942    -8.4298 H       
 263 H263         -53.8639    20.2275   -10.9158 H       
 264 H264         -54.8037    20.7676    -7.6261 H       
 265 H265         -55.3705    20.6505    -9.2034 H       
 266 H266         -51.0677    22.3337    -0.9334 H       
 267 H267          18.3881    -8.3796    -1.3436 H       
 268 H268          18.6829    -9.2213     0.1968 H       
 269 H269          17.4314    -9.8192    -0.9188 H       
 270 H270          16.4170    -8.5855     0.9779 H       
 271 H271          17.3737    -7.1458     0.5531 H       
 272 H272          16.2816    -7.0768    -1.6721 H       
 273 H273          15.3250    -8.5164    -1.2472 H       
 274 H274          14.3106    -7.2827     0.6495 H       
 275 H275          15.2672    -5.8430     0.2246 H       
 276 H276          14.1751    -5.7740    -2.0005 H       
 277 H277          13.2185    -7.2136    -1.5757 H       
 278 H278          12.2041    -5.9799     0.3210 H       
 279 H279          13.1607    -4.5402    -0.1038 H       
 280 H280          12.0686    -4.4712    -2.3290 H       
 281 H281          11.1120    -5.9108    -1.9041 H       
 282 H282          10.0976    -4.6771    -0.0074 H       
 283 H283          11.0542    -3.2374    -0.4323 H       
 284 H284           9.9622    -3.1684    -2.6574 H       
 285 H285           9.0055    -4.6081    -2.2326 H       
 286 H286           7.9911    -3.3743    -0.3359 H       
 287 H287           8.9478    -1.9346    -0.7607 H       
 288 H288           7.8557    -1.8656    -2.9859 H       
 289 H289           6.8991    -3.3053    -2.5610 H       
 290 H290           5.8846    -2.0715    -0.6643 H       
 291 H291           6.8413    -0.6318    -1.0892 H       
 292 H292           5.7492    -0.5628    -3.3143 H       
 293 H293           4.7926    -2.0025    -2.8895 H       
 294 H294           3.7782    -0.7687    -0.9928 H       
 295 H295           4.7348     0.6710    -1.4176 H       
 296 H296           2.6861    -0.6997    -3.2179 H       
 297 H297           3.6427     0.7400    -3.6428 H       
@<TRIPOS>BOND
   1    1    2 2
   2    1    4 1
   3    1    9 am
   4    3  122 am
   5    3    4 1
   6    3  139 1
   7    4    5 1
   8    4  140 1
   9    5    6 1
  10    5  141 1
  11    5  142 1
  12    6  143 1
  13    7    8 2
  14    7   10 1
  15    7   13 am
  16    9   10 1
  17    9  144 1
  18   10  145 1
  19   10  146 1
  20   11   12 2
  21   11   14 1
  22   11   24 am
  23   13   14 1
  24   13  147 1
  25   14   15 1
  26   14  148 1
  27   15   16 1
  28   15  149 1
  29   15  150 1
  30   16   17 1
  31   16  151 1
  32   16  152 1
  33   17   18 1
  34   17  153 1
  35   17  154 1
  36   18   19 1
  37   18  155 1
  38   19   20 2
  39   19   21 1
  40   20  156 1
  41   21  157 1
  42   21  158 1
  43   22   23 2
  44   22   25 1
  45   22   31 am
  46   24   25 1
  47   24  159 1
  48   25   26 1
  49   25  160 1
  50   26   27 1
  51   26   28 1
  52   26  161 1
  53   27  162 1
  54   27  163 1
  55   27  164 1
  56   28  165 1
  57   28  166 1
  58   28  167 1
  59   29   30 2
  60   29   32 1
  61   29   39 am
  62   31   32 1
  63   31  168 1
  64   32   33 1
  65   32  169 1
  66   33   34 1
  67   33  170 1
  68   33  171 1
  69   34   35 1
  70   34   36 1
  71   34  172 1
  72   35  173 1
  73   35  174 1
  74   35  175 1
  75   36  176 1
  76   36  177 1
  77   36  178 1
  78   37   38 2
  79   37   40 1
  80   37   44 am
  81   39   40 1
  82   39  179 1
  83   40   41 1
  84   40  180 1
  85   41  181 1
  86   41  182 1
  87   41  183 1
  88   42   43 2
  89   42   45 1
  90   42   51 am
  91   44   45 1
  92   44  184 1
  93   45   46 1
  94   45  185 1
  95   46   47 1
  96   46   48 1
  97   46  186 1
  98   47  187 1
  99   47  188 1
 100   47  189 1
 101   48  190 1
 102   49   50 2
 103   49   52 1
 104   49   60 am
 105   51   52 1
 106   51  191 1
 107   52   53 1
 108   52  192 1
 109   53   54 1
 110   53  193 1
 111   53  194 1
 112   54   55 1
 113   54  195 1
 114   54  196 1
 115   55   56 1
 116   55  197 1
 117   55  198 1
 118   56   57 1
 119   56  199 1
 120   56  200 1
 121   57  201 1
 122   57  202 1
 123   58   59 2
 124   58   61 1
 125   58   68 am
 126   60   61 1
 127   60  203 1
 128   61   62 1
 129   61  204 1
 130   62   63 1
 131   62  205 1
 132   62  206 1
 133   63   64 1
 134   63   65 1
 135   63  207 1
 136   64  208 1
 137   64  209 1
 138   64  210 1
 139   65  211 1
 140   65  212 1
 141   65  213 1
 142   66   67 2
 143   66   69 1
 144   66   79 am
 145   68   69 1
 146   68  214 1
 147   69   70 1
 148   69  215 1
 149   70   71 1
 150   70  216 1
 151   70  217 1
 152   71   72 1
 153   71  218 1
 154   71  219 1
 155   72   73 1
 156   72  220 1
 157   72  221 1
 158   73   74 1
 159   73  222 1
 160   74   75 2
 161   74   76 1
 162   75  223 1
 163   76  224 1
 164   76  225 1
 165   77   78 2
 166   77   80 1
 167   77   88 am
 168   79   80 1
 169   79  226 1
 170   80   81 1
 171   80  227 1
 172   81   82 1
 173   81  228 1
 174   81  229 1
 175   82   83 1
 176   82  230 1
 177   82  231 1
 178   83   84 2
 179   83   85 1
 180   85  232 1
 181   86   87 2
 182   86   89 1
 183   86   95 am
 184   88   89 1
 185   88  233 1
 186   89   90 1
 187   89  234 1
 188   90   91 1
 189   90   92 1
 190   90  235 1
 191   91  236 1
 192   91  237 1
 193   91  238 1
 194   92  239 1
 195   93   94 2
 196   93   96 1
 197   93  103 am
 198   95   96 1
 199   95  240 1
 200   96   97 1
 201   96  241 1
 202   97   98 1
 203   97  242 1
 204   97  243 1
 205   98   99 2
 206   98  100 am
 207  100  244 1
 208  100  245 1
 209  101  102 2
 210  101  104 1
 211  101  108 am
 212  103  104 1
 213  103  246 1
 214  104  105 1
 215  104  247 1
 216  105  248 1
 217  105  249 1
 218  105  250 1
 219  106  107 2
 220  106  109 1
 221  106  112 am
 222  108  109 1
 223  108  251 1
 224  109  252 1
 225  109  253 1
 226  110  111 2
 227  110  113 1
 228  110  121 1
 229  112  113 1
 230  112  254 1
 231  113  114 1
 232  113  255 1
 233  114  115 1
 234  114  256 1
 235  114  257 1
 236  115  116 1
 237  115  258 1
 238  115  259 1
 239  116  117 1
 240  116  260 1
 241  116  261 1
 242  117  118 1
 243  117  262 1
 244  118  119 2
 245  118  120 1
 246  119  263 1
 247  120  264 1
 248  120  265 1
 249  121  266 1
 250  122  123 2
 251  122  138 1
 252  124  125 1
 253  124  267 1
 254  124  268 1
 255  124  269 1
 256  125  126 1
 257  125  270 1
 258  125  271 1
 259  126  127 1
 260  126  272 1
 261  126  273 1
 262  127  128 1
 263  127  274 1
 264  127  275 1
 265  128  129 1
 266  128  276 1
 267  128  277 1
 268  129  130 1
 269  129  278 1
 270  129  279 1
 271  130  131 1
 272  130  280 1
 273  130  281 1
 274  131  132 1
 275  131  282 1
 276  131  283 1
 277  132  133 1
 278  132  284 1
 279  132  285 1
 280  133  134 1
 281  133  286 1
 282  133  287 1
 283  134  135 1
 284  134  288 1
 285  134  289 1
 286  135  136 1
 287  135  290 1
 288  135  291 1
 289  136  137 1
 290  136  292 1
 291  136  293 1
 292  137  138 1
 293  137  294 1
 294  137  295 1
 295  138  296 1
 296  138  297 1

#	End of record

