#	Name: ASD01885681
#	Creating user name:	WinNT
#	Creation time:	15. 06. 2019 19:50

#	Modifying user name:	WinNT
#	Modification time:	15. 06. 2019 19:50

#	Program:	/corina/corina34_cracker 3.40 0067  02.08.2006

@<TRIPOS>MOLECULE
ASD01885681
  55   58    0    0    0
SMALL
NO_CHARGES


@<TRIPOS>ATOM
   1 C1            -0.5153     0.2666     0.6427 C.ar    
   2 C2            -1.8425     0.7666     0.6252 C.ar    
   3 C3            -2.0548     2.1613     0.7659 C.ar    
   4 C4            -0.9414     2.9759     0.9153 C.ar    
   5 C5             0.3362     2.4031     0.9221 C.ar    
   6 N6             0.5128     1.1031     0.7842 N.ar    
   7 C7            -0.3062    -1.1189     0.5029 C.ar    
   8 C8            -1.3727    -1.9514     0.3594 C.ar    
   9 C9            -2.6749    -1.4559     0.3482 C.ar    
  10 C10           -2.9157    -0.1200     0.4698 C.ar    
  11 C11           -3.4219     2.7309     0.7535 C.ar    
  12 C12           -3.7976     3.6471     1.7348 C.ar    
  13 C13           -5.0780     4.1718     1.7108 C.ar    
  14 N14           -4.2769     2.3686    -0.1953 N.ar    
  15 C15            1.5211     3.2813     1.0755 C.2     
  16 N16            2.7593     2.7489     1.0730 N.am    
  17 O17            1.3759     4.4808     1.2035 O.2     
  18 C18           -1.1425    -3.4344     0.2227 C.3     
  19 N19           -1.0042    -3.7786    -1.1945 N.pl3   
  20 N20           -1.8532    -3.5067    -2.1230 N.2     
  21 N21           -1.4290    -3.9467    -3.2549 N.2     
  22 C22           -0.2434    -4.5387    -3.0725 C.2     
  23 C23            0.0408    -4.4317    -1.7535 C.2     
  24 C24           -5.9434     3.7622     0.7038 C.ar    
  25 C25           -5.5007     2.8512    -0.2430 C.ar    
  26 F26           -7.2016     4.2505     0.6450 F       
  27 C27            0.6106    -5.1915    -4.1288 C.3     
  28 C28            1.9681    -4.4888    -4.1932 C.3     
  29 O29            0.8024    -6.5693    -3.8019 O.3     
  30 C30           -0.0854    -5.0817    -5.4869 C.3     
  31 C31            1.7740    -3.0466    -4.6658 C.3     
  32 C32            0.7589    -5.7857    -6.5510 C.3     
  33 F33            1.0137    -7.1012    -6.1490 F       
  34 F34            0.0648    -5.7955    -7.7657 F       
  35 F35            1.9700    -5.1042    -6.7115 F       
  36 H36           -1.0594     4.0438     1.0250 H       
  37 H37            0.6969    -1.5191     0.5092 H       
  38 H38           -3.5043    -2.1394     0.2414 H       
  39 H39           -3.9294     0.2522     0.4557 H       
  40 H40           -3.0990     3.9431     2.5034 H       
  41 H41           -5.3974     4.8831     2.4581 H       
  42 H42            2.8753     1.7913     0.9708 H       
  43 H43            3.5344     3.3233     1.1734 H       
  44 H44           -0.2321    -3.7113     0.7544 H       
  45 H45           -1.9893    -3.9742     0.6467 H       
  46 H46            0.9217    -4.7989    -1.2479 H       
  47 H47           -6.1700     2.5302    -1.0274 H       
  48 H48            2.4244    -4.4884    -3.2032 H       
  49 H49            2.6173    -5.0159    -4.8923 H       
  50 H50           -0.0181    -7.0777    -3.7439 H       
  51 H51           -1.0668    -5.5528    -5.4314 H       
  52 H52           -0.2014    -4.0307    -5.7518 H       
  53 H53            1.2715    -3.0457    -5.6330 H       
  54 H54            1.1668    -2.5051    -3.9403 H       
  55 H55            2.7455    -2.5615    -4.7607 H       
@<TRIPOS>BOND
   1    1    7 ar
   2    1    6 ar
   3    1    2 ar
   4    2    3 ar
   5    2   10 ar
   6    3   11 1
   7    3    4 ar
   8    4    5 ar
   9    4   36 1
  10    5   15 1
  11    5    6 ar
  12    7    8 ar
  13    7   37 1
  14    8    9 ar
  15    8   18 1
  16    9   10 ar
  17    9   38 1
  18   10   39 1
  19   11   12 ar
  20   11   14 ar
  21   12   13 ar
  22   12   40 1
  23   13   24 ar
  24   13   41 1
  25   14   25 ar
  26   15   16 am
  27   15   17 2
  28   16   42 1
  29   16   43 1
  30   18   19 1
  31   18   44 1
  32   18   45 1
  33   19   20 1
  34   19   23 1
  35   20   21 2
  36   21   22 1
  37   22   23 2
  38   22   27 1
  39   23   46 1
  40   24   25 ar
  41   24   26 1
  42   25   47 1
  43   27   29 1
  44   27   30 1
  45   27   28 1
  46   28   31 1
  47   28   48 1
  48   28   49 1
  49   29   50 1
  50   30   32 1
  51   30   51 1
  52   30   52 1
  53   31   53 1
  54   31   54 1
  55   31   55 1
  56   32   33 1
  57   32   34 1
  58   32   35 1

#	End of record

