#	Name: ASD01911867
#	Creating user name:	WinNT
#	Creation time:	15. 06. 2019 19:58

#	Modifying user name:	WinNT
#	Modification time:	15. 06. 2019 19:58

#	Program:	/corina/corina34_cracker 3.40 0067  02.08.2006

@<TRIPOS>MOLECULE
ASD01911867
  42   44    0    0    0
SMALL
NO_CHARGES


@<TRIPOS>ATOM
   1 C1            -1.0580    -0.4838    -2.0450 C.ar    
   2 C2            -1.0631     0.0679    -0.7674 C.ar    
   3 C3            -1.0163     1.4475    -0.6292 C.ar    
   4 N4            -0.9676     2.2286    -1.6902 N.ar    
   5 C5            -0.9614     1.7380    -2.9140 C.ar    
   6 C6            -1.0061     0.3734    -3.1320 C.ar    
   7 O7            -1.1136    -0.7333     0.3291 O.3     
   8 C8            -1.1591    -2.0774     0.1355 C.ar    
   9 C9            -0.0046    -2.7697    -0.2032 C.ar    
  10 C10           -0.0496    -4.1376    -0.4006 C.ar    
  11 C11           -1.2446    -4.8195    -0.2615 C.ar    
  12 C12           -2.4024    -4.1311     0.0769 C.ar    
  13 C13           -2.3574    -2.7588     0.2818 C.ar    
  14 N14           -3.6110    -4.8204     0.2170 N.am    
  15 C15           -3.6146    -6.0883     0.6743 C.2     
  16 C16           -4.8788    -6.8525     0.7239 C.ar    
  17 O17           -2.5780    -6.6033     1.0459 O.2     
  18 C18           -6.0707    -6.2642     0.2980 C.ar    
  19 C19           -7.2473    -6.9831     0.3470 C.ar    
  20 C20           -7.2475    -8.2841     0.8174 C.ar    
  21 C21           -6.0693    -8.8733     1.2412 C.ar    
  22 C22           -4.8850    -8.1679     1.1917 C.ar    
  23 C23           -6.0792   -10.2909     1.7526 C.3     
  24 Cl24           1.3962    -5.0002    -0.8241 Cl      
  25 C25           -0.9048     2.6773    -4.0911 C.3     
  26 H26           -1.0892    -1.5542    -2.1855 H       
  27 H27           -1.0201     1.8862     0.3576 H       
  28 H28           -1.0002    -0.0197    -4.1379 H       
  29 H29            0.9297    -2.2393    -0.3131 H       
  30 H30           -1.2776    -5.8878    -0.4165 H       
  31 H31           -3.2564    -2.2215     0.5453 H       
  32 H32           -4.4468    -4.3862    -0.0148 H       
  33 H33           -6.0720    -5.2484    -0.0688 H       
  34 H34           -8.1703    -6.5291     0.0178 H       
  35 H35           -8.1714    -8.8422     0.8544 H       
  36 H36           -3.9662    -8.6289     1.5228 H       
  37 H37           -5.9113   -10.9776     0.9229 H       
  38 H38           -5.2890   -10.4156     2.4930 H       
  39 H39           -7.0444   -10.5048     2.2117 H       
  40 H40            0.1357     2.8669    -4.3549 H       
  41 H41           -1.4187     2.2269    -4.9404 H       
  42 H42           -1.3904     3.6174    -3.8294 H       
@<TRIPOS>BOND
   1    1    2 ar
   2    1    6 ar
   3    1   26 1
   4    2    3 ar
   5    2    7 1
   6    3    4 ar
   7    3   27 1
   8    4    5 ar
   9    5    6 ar
  10    5   25 1
  11    6   28 1
  12    7    8 1
  13    8    9 ar
  14    8   13 ar
  15    9   10 ar
  16    9   29 1
  17   10   11 ar
  18   10   24 1
  19   11   12 ar
  20   11   30 1
  21   12   13 ar
  22   12   14 1
  23   13   31 1
  24   14   15 am
  25   14   32 1
  26   15   16 1
  27   15   17 2
  28   16   18 ar
  29   16   22 ar
  30   18   19 ar
  31   18   33 1
  32   19   20 ar
  33   19   34 1
  34   20   21 ar
  35   20   35 1
  36   21   22 ar
  37   21   23 1
  38   22   36 1
  39   23   37 1
  40   23   38 1
  41   23   39 1
  42   25   40 1
  43   25   41 1
  44   25   42 1

#	End of record

