#	Name: ASD08550001
#	Creating user name:	WinNT
#	Creation time:	15. 06. 2019 21:19

#	Modifying user name:	WinNT
#	Modification time:	15. 06. 2019 21:19

#	Program:	/corina/corina34_cracker 3.40 0067  02.08.2006

@<TRIPOS>MOLECULE
ASD08550001
  58   61    0    0    0
SMALL
NO_CHARGES


@<TRIPOS>ATOM
   1 C1             0.0149     1.7348    -0.1043 C.ar    
   2 C2             0.0704     0.3756     0.1413 C.ar    
   3 C3             1.2938    -0.2634     0.2184 C.ar    
   4 C4             2.4616     0.4568     0.0494 C.ar    
   5 C5             2.4060     1.8158    -0.1971 C.ar    
   6 C6             1.1827     2.4551    -0.2727 C.ar    
   7 C7             3.7953    -0.2397     0.1344 C.3     
   8 C8             4.2015    -0.7349    -1.2551 C.3     
   9 N9             4.3417     0.4000    -2.1751 N.am    
  10 C10            5.6125     0.4257    -2.6144 C.2     
  11 C11            6.3771    -0.6745    -2.0197 C.2     
  12 C12            5.5603    -1.3942    -1.1959 C.2     
  13 C13            3.1592    -1.7198    -1.7883 C.3     
  14 O14            5.8978    -2.4751    -0.4746 O.3     
  15 O15            6.0628     1.2445    -3.3934 O.2     
  16 C16            7.7973    -0.9577    -2.2704 C.2     
  17 O17            8.3354    -1.9012    -1.7222 O.2     
  18 N18            8.5035    -0.1723    -3.1075 N.am    
  19 C19            9.8768    -0.3812    -3.2709 C.ar    
  20 C20           10.3928    -1.6703    -3.2428 C.ar    
  21 C21           11.7493    -1.8732    -3.4049 C.ar    
  22 C22           12.5935    -0.7945    -3.5945 C.ar    
  23 C23           12.0830     0.4903    -3.6224 C.ar    
  24 C24           10.7267     0.6996    -3.4672 C.ar    
  25 C25           14.0732    -1.0196    -3.7705 C.3     
  26 C26           14.5134    -0.4758    -5.1311 C.3     
  27 C27           16.0157    -0.7043    -5.3098 C.3     
  28 C28           16.7777     0.0220    -4.1995 C.3     
  29 C29           16.3374    -0.5219    -2.8389 C.3     
  30 C30           14.8351    -0.2933    -2.6602 C.3     
  31 H31           -0.9411     2.2332    -0.1689 H       
  32 H32           -0.8419    -0.1870     0.2733 H       
  33 H33            1.3372    -1.3252     0.4109 H       
  34 H34            3.3184     2.3786    -0.3284 H       
  35 H35            1.1392     3.5169    -0.4650 H       
  36 H36            4.5463     0.4577     0.5055 H       
  37 H37            3.7195    -1.0880     0.8147 H       
  38 H38            3.6403     1.0225    -2.4232 H       
  39 H39            2.1909    -1.2236    -1.8546 H       
  40 H40            3.4587    -2.0656    -2.7776 H       
  41 H41            3.0853    -2.5719    -1.1126 H       
  42 H42            6.8130    -2.7797    -0.5423 H       
  43 H43            8.0594     0.5378    -3.5968 H       
  44 H44            9.7341    -2.5132    -3.0941 H       
  45 H45           12.1512    -2.8754    -3.3832 H       
  46 H46           12.7450     1.3307    -3.7699 H       
  47 H47           10.3285     1.7033    -3.4895 H       
  48 H48           14.2869    -2.0872    -3.7195 H       
  49 H49           13.9706    -0.9932    -5.9221 H       
  50 H50           14.2997     0.5918    -5.1821 H       
  51 H51           16.2294    -1.7719    -5.2588 H       
  52 H52           16.3294    -0.3169    -6.2791 H       
  53 H53           17.8479    -0.1408    -4.3268 H       
  54 H54           16.5640     1.0896    -4.2505 H       
  55 H55           16.5511    -1.5895    -2.7878 H       
  56 H56           16.8802    -0.0044    -2.0478 H       
  57 H57           14.6214     0.7743    -2.7112 H       
  58 H58           14.5215    -0.6808    -1.6908 H       
@<TRIPOS>BOND
   1    1    2 ar
   2    1    6 ar
   3    1   31 1
   4    2    3 ar
   5    2   32 1
   6    3    4 ar
   7    3   33 1
   8    4    5 ar
   9    4    7 1
  10    5    6 ar
  11    5   34 1
  12    6   35 1
  13    7    8 1
  14    7   36 1
  15    7   37 1
  16    8    9 1
  17    8   13 1
  18    8   12 1
  19    9   10 am
  20    9   38 1
  21   10   11 1
  22   10   15 2
  23   11   12 2
  24   11   16 1
  25   12   14 1
  26   13   39 1
  27   13   40 1
  28   13   41 1
  29   14   42 1
  30   16   17 2
  31   16   18 am
  32   18   19 1
  33   18   43 1
  34   19   20 ar
  35   19   24 ar
  36   20   21 ar
  37   20   44 1
  38   21   22 ar
  39   21   45 1
  40   22   23 ar
  41   22   25 1
  42   23   24 ar
  43   23   46 1
  44   24   47 1
  45   25   26 1
  46   25   30 1
  47   25   48 1
  48   26   27 1
  49   26   49 1
  50   26   50 1
  51   27   28 1
  52   27   51 1
  53   27   52 1
  54   28   29 1
  55   28   53 1
  56   28   54 1
  57   29   30 1
  58   29   55 1
  59   29   56 1
  60   30   57 1
  61   30   58 1

#	End of record

