#	Name: ASD03731478
#	Creating user name:	WinNT
#	Creation time:	15. 06. 2019 20:45

#	Modifying user name:	WinNT
#	Modification time:	15. 06. 2019 20:45

#	Program:	/corina/corina34_cracker 3.40 0067  02.08.2006

@<TRIPOS>MOLECULE
ASD03731478
  58   64    0    0    0
SMALL
NO_CHARGES


@<TRIPOS>ATOM
   1 C1            -0.0161     1.3326     0.0094 C.2     
   2 C2             0.0021    -0.0041     0.0020 C.2     
   3 C3             1.2768    -0.5930    -0.0133 C.ar    
   4 C4             2.3072     0.3560    -0.0181 C.ar    
   5 S5             1.6170     1.9748    -0.0028 S.3     
   6 C6             3.6409    -0.0644    -0.0331 C.ar    
   7 C7             3.9427    -1.4052    -0.0436 C.ar    
   8 C8             2.9245    -2.3504    -0.0394 C.ar    
   9 C9             1.6206    -1.9658    -0.0235 C.ar    
  10 C10           -1.2365     2.1520     0.0198 C.2     
  11 O11           -2.3287     1.6163     0.0222 O.2     
  12 N12           -1.1454     3.4966     0.0266 N.am    
  13 C13           -2.3616     4.3132     0.0370 C.3     
  14 C14           -1.9810     5.7951     0.0432 C.3     
  15 C15           -3.2512     6.6479     0.0540 C.3     
  16 O16            2.5620    10.2924    -2.0942 O.3     
  17 C17            3.2894    11.5118    -2.3334 C.3     
  18 O18            2.2884    12.4133    -2.8417 O.3     
  19 C19            1.1055    11.9823    -2.3129 C.ar    
  20 C20            1.2741    10.6777    -1.8544 C.ar    
  21 C21           -0.1213    12.6081    -2.1827 C.ar    
  22 C22           -1.1938    11.9424    -1.5967 C.ar    
  23 C23           -1.0154    10.6366    -1.1500 C.ar    
  24 C24            0.2082    10.0120    -1.2728 C.ar    
  25 O25           -2.4648    12.3764    -1.3594 O.3     
  26 C26           -2.3426    10.1862    -0.6008 C.3     
  27 C27           -3.3214    11.2396    -1.1372 C.3     
  28 N28           -2.8867     8.0668     0.0600 N.am    
  29 C29           -2.7054     8.8018    -1.0553 C.2     
  30 C30           -2.3499    10.1274     0.8980 C.ar    
  31 C31           -2.1053    11.0531     1.8877 C.ar    
  32 C32           -2.1948    10.6850     3.2183 C.ar    
  33 C33           -2.5297     9.3852     3.5519 C.ar    
  34 C34           -2.7747     8.4541     2.5642 C.ar    
  35 C35           -2.6873     8.8159     1.2221 C.ar    
  36 O36           -2.8144     8.4200    -2.2014 O.2     
  37 H37           -0.9038    -0.5921     0.0079 H       
  38 H38            4.4359     0.6666    -0.0367 H       
  39 H39            4.9742    -1.7249    -0.0555 H       
  40 H40            3.1714    -3.4017    -0.0485 H       
  41 H41            0.8413    -2.7135    -0.0198 H       
  42 H42           -0.2745     3.9237     0.0247 H       
  43 H43           -2.9540     4.0940    -0.8513 H       
  44 H44           -2.9454     4.0843     0.9286 H       
  45 H45           -1.3886     6.0143     0.9315 H       
  46 H46           -1.3973     6.0240    -0.8484 H       
  47 H47           -3.8436     6.4287    -0.8343 H       
  48 H48           -3.8349     6.4190     0.9456 H       
  49 H49            3.7125    11.8938    -1.4043 H       
  50 H50            4.0724    11.3515    -3.0745 H       
  51 H51           -0.2477    13.6200    -2.5382 H       
  52 H52            0.3352     9.0010    -0.9148 H       
  53 H53           -4.0864    11.4703    -0.3959 H       
  54 H54           -3.7739    10.9074    -2.0715 H       
  55 H55           -1.8437    12.0675     1.6249 H       
  56 H56           -2.0038    11.4110     3.9948 H       
  57 H57           -2.5994     9.0979     4.5906 H       
  58 H58           -3.0352     7.4409     2.8326 H       
@<TRIPOS>BOND
   1    1    2 2
   2    1    5 1
   3    1   10 1
   4    2    3 1
   5    2   37 1
   6    3    4 ar
   7    3    9 ar
   8    4    5 1
   9    4    6 ar
  10    6    7 ar
  11    6   38 1
  12    7    8 ar
  13    7   39 1
  14    8    9 ar
  15    8   40 1
  16    9   41 1
  17   10   11 2
  18   10   12 am
  19   12   13 1
  20   12   42 1
  21   13   14 1
  22   13   43 1
  23   13   44 1
  24   14   15 1
  25   14   45 1
  26   14   46 1
  27   15   28 1
  28   15   47 1
  29   15   48 1
  30   16   17 1
  31   16   20 1
  32   17   18 1
  33   17   49 1
  34   17   50 1
  35   18   19 1
  36   19   20 ar
  37   19   21 ar
  38   20   24 ar
  39   21   22 ar
  40   21   51 1
  41   22   23 ar
  42   22   25 1
  43   23   24 ar
  44   23   26 1
  45   24   52 1
  46   25   27 1
  47   26   27 1
  48   26   29 1
  49   26   30 1
  50   27   53 1
  51   27   54 1
  52   28   29 am
  53   28   35 1
  54   29   36 2
  55   30   31 ar
  56   30   35 ar
  57   31   32 ar
  58   31   55 1
  59   32   33 ar
  60   32   56 1
  61   33   34 ar
  62   33   57 1
  63   34   35 ar
  64   34   58 1

#	End of record

