#	Name: ASD01880863
#	Creating user name:	WinNT
#	Creation time:	15. 06. 2019 19:41

#	Modifying user name:	WinNT
#	Modification time:	15. 06. 2019 19:41

#	Program:	/corina/corina34_cracker 3.40 0067  02.08.2006

@<TRIPOS>MOLECULE
ASD01880863
  46   48    0    0    0
SMALL
NO_CHARGES


@<TRIPOS>ATOM
   1 N1            -0.0159     1.3186     0.0093 N.ar    
   2 C2             0.0021    -0.0041     0.0020 C.ar    
   3 N3             1.1375    -0.6834    -0.0120 N.ar    
   4 C4             2.3047    -0.0573    -0.0198 C.ar    
   5 C5             2.3299     1.3247    -0.0131 C.ar    
   6 C6             1.1170     2.0112     0.0022 C.ar    
   7 C7             3.6386     2.0719    -0.0211 C.3     
   8 O8             4.7202     1.1381    -0.0355 O.3     
   9 C9             5.9767     1.6508    -0.0442 C.ar    
  10 C10            7.0756     0.7973    -0.0583 C.ar    
  11 C11            8.3460     1.3172    -0.0676 C.ar    
  12 C12            8.5442     2.7019    -0.0629 C.ar    
  13 C13            7.4370     3.5547    -0.0490 C.ar    
  14 C14            6.1646     3.0278    -0.0447 C.ar    
  15 C15            9.7182     0.6908    -0.0832 C.3     
  16 N16           10.6760     1.8024    -0.0868 N.am    
  17 C17            9.9944     2.9608    -0.0750 C.2     
  18 O18           10.5026     4.0654    -0.0748 O.2     
  19 C19            7.6352     5.0486    -0.0432 C.3     
  20 O20           -1.1716    -0.6802     0.0096 O.3     
  21 C21           -1.0983    -2.1073     0.0012 C.3     
  22 C22           12.6301     1.6321    -1.5476 C.3     
  23 C23           12.1350     1.6713    -0.1004 C.3     
  24 O24            1.0942     3.3662     0.0088 O.3     
  25 C25           -0.1898     3.9934     0.0245 C.3     
  26 H26            3.2263    -0.6203    -0.0309 H       
  27 H27            3.6913     2.7028    -0.9084 H       
  28 H28            3.7073     2.6938     0.8715 H       
  29 H29            6.9292    -0.2727    -0.0617 H       
  30 H30            5.3095     3.6874    -0.0344 H       
  31 H31            9.8600     0.0769     0.8063 H       
  32 H32            9.8435     0.0854    -0.9809 H       
  33 H33            7.6741     5.4140    -1.0694 H       
  34 H34            6.8052     5.5232     0.4802 H       
  35 H35            8.5696     5.2892     0.4638 H       
  36 H36           -0.5580    -2.4485     0.8843 H       
  37 H37           -2.1059    -2.5229     0.0086 H       
  38 H38           -0.5750    -2.4390    -0.8956 H       
  39 H39           13.7156     1.5345    -1.5577 H       
  40 H40           12.1839     0.7805    -2.0613 H       
  41 H41           12.3433     2.5533    -2.0547 H       
  42 H42           12.5812     2.5228     0.4133 H       
  43 H43           12.4217     0.7500     0.4068 H       
  44 H44           -0.0651     5.0762     0.0284 H       
  45 H45           -0.7506     3.6953    -0.8614 H       
  46 H46           -0.7329     3.6869     0.9185 H       
@<TRIPOS>BOND
   1    1    2 ar
   2    1    6 ar
   3    2    3 ar
   4    2   20 1
   5    3    4 ar
   6    4    5 ar
   7    4   26 1
   8    5    6 ar
   9    5    7 1
  10    6   24 1
  11    7    8 1
  12    7   27 1
  13    7   28 1
  14    8    9 1
  15    9   10 ar
  16    9   14 ar
  17   10   11 ar
  18   10   29 1
  19   11   12 ar
  20   11   15 1
  21   12   13 ar
  22   12   17 1
  23   13   14 ar
  24   13   19 1
  25   14   30 1
  26   15   16 1
  27   15   31 1
  28   15   32 1
  29   16   17 am
  30   16   23 1
  31   17   18 2
  32   19   33 1
  33   19   34 1
  34   19   35 1
  35   20   21 1
  36   21   36 1
  37   21   37 1
  38   21   38 1
  39   22   23 1
  40   22   39 1
  41   22   40 1
  42   22   41 1
  43   23   42 1
  44   23   43 1
  45   24   25 1
  46   25   44 1
  47   25   45 1
  48   25   46 1

#	End of record

