#	Name: ASD03240944
#	Creating user name:	WinNT
#	Creation time:	15. 06. 2019 20:35

#	Modifying user name:	WinNT
#	Modification time:	15. 06. 2019 20:35

#	Program:	/corina/corina34_cracker 3.40 0067  02.08.2006

@<TRIPOS>MOLECULE
ASD03240944
  73   79    0    0    0
SMALL
NO_CHARGES


@<TRIPOS>ATOM
   1 C1            -0.0180     1.4773     0.0102 C.2     
   2 C2             0.0021    -0.0041     0.0020 C.ar    
   3 C3             1.2111    -0.7062    -0.0133 C.ar    
   4 C4             1.1835    -2.0873    -0.0205 C.ar    
   5 N5             0.0392    -2.7415    -0.0131 N.ar    
   6 C6            -1.1224    -2.1187     0.0013 C.ar    
   7 C7            -1.1874    -0.7388     0.0153 C.ar    
   8 O8             1.0259     2.0991     0.0035 O.2     
   9 N9            -1.1942     2.1352     0.0193 N.am    
  10 N10           -2.4574     6.0589     0.8916 N.3     
  11 C11           -2.5727     5.6256    -0.5068 C.3     
  12 C12           -2.5318     4.0972    -0.5736 C.3     
  13 C13           -1.2141     3.6001     0.0274 C.3     
  14 C14           -1.0964     4.1055     1.4679 C.3     
  15 C15           -1.1790     5.6336     1.4756 C.3     
  16 C16           -2.6317     7.5129     1.0082 C.3     
  17 C17           -2.7527     7.8893     2.4624 C.ar    
  18 C18           -1.6179     8.1988     3.1907 C.ar    
  19 C19           -1.7223     8.5446     4.5223 C.ar    
  20 C20           -2.9753     8.5817     5.1341 C.ar    
  21 C21           -4.1158     8.2685     4.3945 C.ar    
  22 C22           -3.9988     7.9293     3.0622 C.ar    
  23 N23           -1.2135     8.5060     9.5751 N.pl3   
  24 C24           -1.3046     8.8369    10.9000 C.2     
  25 N25           -2.3433     9.5364    11.3902 N.2     
  26 C26           -3.3275     9.9415    10.6297 C.2     
  27 C27           -3.2993     9.6252     9.2033 C.ar    
  28 C28           -4.3227    10.0301     8.3396 C.ar    
  29 C29           -4.2154     9.6861     6.9962 C.ar    
  30 C30           -3.0943     8.9515     6.5631 C.ar    
  31 N31           -2.1448     8.5851     7.4108 N.ar    
  32 C32           -2.2064     8.8914     8.6950 C.ar    
  33 C33           -0.1757     8.3187    11.5201 C.2     
  34 C34            0.5837     7.6782    10.5491 C.2     
  35 N35           -0.0294     7.7810     9.3943 N.2     
  36 C36           -5.2686    10.0864     6.0325 C.ar    
  37 C37           -6.6095     9.8318     6.3157 C.ar    
  38 C38           -7.5855    10.2071     5.4151 C.ar    
  39 C39           -7.2353    10.8347     4.2332 C.ar    
  40 C40           -5.9062    11.0895     3.9465 C.ar    
  41 C41           -4.9221    10.7239     4.8422 C.ar    
  42 C42            1.8953     6.9748    10.7853 C.3     
  43 H43            2.1524    -0.1767    -0.0198 H       
  44 H44            2.1122    -2.6386    -0.0327 H       
  45 H45           -2.0358    -2.6951     0.0069 H       
  46 H46           -2.1426    -0.2352     0.0321 H       
  47 H47           -2.0276     1.6388     0.0206 H       
  48 H48           -3.5158     5.9821    -0.9209 H       
  49 H49           -1.7444     6.0367    -1.0838 H       
  50 H50           -3.3678     3.6857    -0.0081 H       
  51 H51           -2.6016     3.7764    -1.6130 H       
  52 H52           -0.3791     3.9789    -0.5619 H       
  53 H53           -1.9099     3.6941     2.0655 H       
  54 H54           -0.1408     3.7906     1.8872 H       
  55 H55           -0.3572     6.0446     0.8892 H       
  56 H56           -1.1098     5.9959     2.5013 H       
  57 H57           -1.7697     8.0182     0.5727 H       
  58 H58           -3.5354     7.8142     0.4785 H       
  59 H59           -0.6483     8.1695     2.7159 H       
  60 H60           -0.8356     8.7857     5.0899 H       
  61 H61           -5.0886     8.2950     4.8628 H       
  62 H62           -4.8815     7.6906     2.4874 H       
  63 H63           -4.1497    10.5015    11.0502 H       
  64 H64           -5.1694    10.5925     8.7046 H       
  65 H65            0.0684     8.3994    12.5691 H       
  66 H66           -6.8841     9.3416     7.2381 H       
  67 H67           -8.6247    10.0100     5.6334 H       
  68 H68           -8.0025    11.1266     3.5313 H       
  69 H69           -5.6386    11.5792     3.0219 H       
  70 H70           -3.8850    10.9274     4.6195 H       
  71 H71            1.7082     5.9285    11.0268 H       
  72 H72            2.5076     7.0361     9.8856 H       
  73 H73            2.4189     7.4510    11.6142 H       
@<TRIPOS>BOND
   1    1    2 1
   2    1    8 2
   3    1    9 am
   4    2    3 ar
   5    2    7 ar
   6    3    4 ar
   7    3   43 1
   8    4    5 ar
   9    4   44 1
  10    5    6 ar
  11    6    7 ar
  12    6   45 1
  13    7   46 1
  14    9   13 1
  15    9   47 1
  16   10   11 1
  17   10   15 1
  18   10   16 1
  19   11   12 1
  20   11   48 1
  21   11   49 1
  22   12   13 1
  23   12   50 1
  24   12   51 1
  25   13   14 1
  26   13   52 1
  27   14   15 1
  28   14   53 1
  29   14   54 1
  30   15   55 1
  31   15   56 1
  32   16   17 1
  33   16   57 1
  34   16   58 1
  35   17   18 ar
  36   17   22 ar
  37   18   19 ar
  38   18   59 1
  39   19   20 ar
  40   19   60 1
  41   20   21 ar
  42   20   30 1
  43   21   22 ar
  44   21   61 1
  45   22   62 1
  46   23   24 1
  47   23   32 1
  48   23   35 1
  49   24   25 1
  50   24   33 2
  51   25   26 2
  52   26   27 1
  53   26   63 1
  54   27   28 ar
  55   27   32 ar
  56   28   29 ar
  57   28   64 1
  58   29   30 ar
  59   29   36 1
  60   30   31 ar
  61   31   32 ar
  62   33   34 1
  63   33   65 1
  64   34   35 2
  65   34   42 1
  66   36   37 ar
  67   36   41 ar
  68   37   38 ar
  69   37   66 1
  70   38   39 ar
  71   38   67 1
  72   39   40 ar
  73   39   68 1
  74   40   41 ar
  75   40   69 1
  76   41   70 1
  77   42   71 1
  78   42   72 1
  79   42   73 1

#	End of record

