#	Name: ASD00843460
#	Creating user name:	WinNT
#	Creation time:	15. 06. 2019 18:46

#	Modifying user name:	WinNT
#	Modification time:	15. 06. 2019 18:46

#	Program:	/corina/corina34_cracker 3.40 0067  02.08.2006

@<TRIPOS>MOLECULE
ASD00843460
  92   97    0    0    0
SMALL
NO_CHARGES


@<TRIPOS>ATOM
   1 F1             5.6968    -2.5328    -1.9402 F       
   2 N2             0.9409     1.0811    -0.3016 N.ar    
   3 C3             1.1028    -0.2042    -0.5673 C.ar    
   4 C4             0.9443    -1.1585     0.4298 C.ar    
   5 C5             0.6139    -0.7471     1.7090 C.ar    
   6 C6             0.4528     0.6112     1.9468 C.ar    
   7 C7             0.6258     1.5038     0.9081 C.ar    
   8 C8             1.1293    -2.6222     0.1223 C.3     
   9 C9             0.7652    -3.4668     1.3247 C.2     
  10 C10            0.2870    -3.0243    -1.0901 C.3     
  11 C11           -1.1521    -2.6473    -0.8494 C.2     
  12 N12           -2.0998    -3.0035    -1.7389 N.am    
  13 O13           -1.4573    -2.0234     0.1448 O.2     
  14 C14           -3.4875    -2.5489    -1.5765 C.3     
  15 C15           -4.4128    -3.7695    -1.6051 C.3     
  16 C16           -4.1586    -4.5675    -2.8860 C.3     
  17 C17           -2.7095    -5.0593    -2.9036 C.3     
  18 C18           -1.7638    -3.8487    -2.8928 C.3     
  19 C19           -5.1051    -5.7685    -2.9347 C.3     
  20 C20           -6.5555    -5.2780    -2.9189 C.3     
  21 C21           -7.4966    -6.4798    -3.0291 C.3     
  22 N22           -7.2204    -7.2067    -4.2748 N.3     
  23 C23           -5.8477    -7.7281    -4.2922 C.3     
  24 C24           -4.8574    -6.5635    -4.2196 C.3     
  25 C25           -8.1958    -8.2854    -4.4822 C.3     
  26 O26           -0.3210    -3.5259     1.8612 O.2     
  27 N27            1.8711    -4.1393     1.6854 N.am    
  28 C28            2.5890    -2.9326    -0.1170 C.ar    
  29 C29            2.9592    -3.8485     0.8598 C.ar    
  30 C30            3.4981    -2.4917    -1.0520 C.ar    
  31 C31            4.8011    -2.9630    -1.0249 C.ar    
  32 C32            5.1820    -3.8768    -0.0553 C.ar    
  33 C33            4.2701    -4.3189     0.8825 C.ar    
  34 Cl34           6.8137    -4.4685    -0.0195 Cl      
  35 C35            1.5209    -6.7883     2.3448 C.ar    
  36 C36            0.2481    -7.0297     1.8481 C.ar    
  37 C37            2.4648    -7.7977     2.3501 C.ar    
  38 C38            2.1439    -9.0492     1.8607 C.ar    
  39 C39            0.8720    -9.2957     1.3627 C.ar    
  40 C40           -0.0766    -8.2850     1.3567 C.ar    
  41 O41            0.5568   -10.5270     0.8819 O.3     
  42 O42           -0.6798    -6.0368     1.8435 O.3     
  43 C43           -1.9694    -6.3564     1.3173 C.3     
  44 C44            1.5832   -11.5205     0.9195 C.3     
  45 S45            1.9365    -5.1914     2.9626 S.o2    
  46 O46            3.2995    -5.2568     3.3592 O.2     
  47 O47            0.8874    -4.8170     3.8450 O.2     
  48 O48            1.4262    -0.5947    -1.8257 O.3     
  49 C49            1.5278     0.4296    -2.8169 C.3     
  50 C50            1.9994    -0.1831    -4.1371 C.3     
  51 F51            3.2094    -0.8551    -3.9334 F       
  52 F52            1.0372    -1.0859    -4.6023 F       
  53 H53            0.4839    -1.4663     2.5042 H       
  54 H54            0.1947     0.9656     2.9338 H       
  55 H55            0.5020     2.5615     1.0879 H       
  56 H56            0.6550    -2.5067    -1.9759 H       
  57 H57            0.3599    -4.1012    -1.2420 H       
  58 H58           -3.5936    -2.0322    -0.6226 H       
  59 H59           -3.7485    -1.8734    -2.3913 H       
  60 H60           -4.2114    -4.3990    -0.7383 H       
  61 H61           -5.4513    -3.4394    -1.5822 H       
  62 H62           -4.3362    -3.9301    -3.7522 H       
  63 H63           -2.5241    -5.6766    -2.0246 H       
  64 H64           -2.5357    -5.6472    -3.8048 H       
  65 H65           -1.8856    -3.2816    -3.8157 H       
  66 H66           -0.7327    -4.1912    -2.8053 H       
  67 H67           -4.9273    -6.4077    -2.0698 H       
  68 H68           -6.7502    -4.7476    -1.9868 H       
  69 H69           -6.7219    -4.6070    -3.7616 H       
  70 H70           -7.3393    -7.1434    -2.1788 H       
  71 H71           -8.5299    -6.1328    -3.0326 H       
  72 H72           -5.6982    -8.3858    -3.4359 H       
  73 H73           -5.6834    -8.2877    -5.2129 H       
  74 H74           -4.9971    -5.9128    -5.0828 H       
  75 H75           -3.8388    -6.9517    -4.2168 H       
  76 H76           -9.1987    -7.8622    -4.5395 H       
  77 H77           -7.9681    -8.8074    -5.4115 H       
  78 H78           -8.1445    -8.9868    -3.6494 H       
  79 H79            3.1963    -1.7797    -1.8059 H       
  80 H80            4.5739    -5.0312     1.6353 H       
  81 H81            3.4550    -7.6079     2.7371 H       
  82 H82            2.8834    -9.8363     1.8652 H       
  83 H83           -1.0669    -8.4750     0.9700 H       
  84 H84           -2.6122    -5.4778     1.3725 H       
  85 H85           -1.8703    -6.6694     0.2780 H       
  86 H86           -2.4093    -7.1656     1.9002 H       
  87 H87            2.4356   -11.1848     0.3288 H       
  88 H88            1.8965   -11.6804     1.9512 H       
  89 H89            1.2006   -12.4541     0.5072 H       
  90 H90            0.5524     0.8947    -2.9601 H       
  91 H91            2.2447     1.1825    -2.4892 H       
  92 H92            2.1424     0.6073    -4.8740 H       
@<TRIPOS>BOND
   1    1   31 1
   2    2    3 ar
   3    2    7 ar
   4    3    4 ar
   5    3   48 1
   6    4    5 ar
   7    4    8 1
   8    5    6 ar
   9    5   53 1
  10    6    7 ar
  11    6   54 1
  12    7   55 1
  13    8    9 1
  14    8   10 1
  15    8   28 1
  16    9   26 2
  17    9   27 am
  18   10   11 1
  19   10   56 1
  20   10   57 1
  21   11   12 am
  22   11   13 2
  23   12   14 1
  24   12   18 1
  25   14   15 1
  26   14   58 1
  27   14   59 1
  28   15   16 1
  29   15   60 1
  30   15   61 1
  31   16   17 1
  32   16   19 1
  33   16   62 1
  34   17   18 1
  35   17   63 1
  36   17   64 1
  37   18   65 1
  38   18   66 1
  39   19   20 1
  40   19   24 1
  41   19   67 1
  42   20   21 1
  43   20   68 1
  44   20   69 1
  45   21   22 1
  46   21   70 1
  47   21   71 1
  48   22   23 1
  49   22   25 1
  50   23   24 1
  51   23   72 1
  52   23   73 1
  53   24   74 1
  54   24   75 1
  55   25   76 1
  56   25   77 1
  57   25   78 1
  58   27   45 am
  59   27   29 1
  60   28   29 ar
  61   28   30 ar
  62   29   33 ar
  63   30   31 ar
  64   30   79 1
  65   31   32 ar
  66   32   33 ar
  67   32   34 1
  68   33   80 1
  69   35   36 ar
  70   35   37 ar
  71   35   45 1
  72   36   42 1
  73   36   40 ar
  74   37   38 ar
  75   37   81 1
  76   38   39 ar
  77   38   82 1
  78   39   40 ar
  79   39   41 1
  80   40   83 1
  81   41   44 1
  82   42   43 1
  83   43   84 1
  84   43   85 1
  85   43   86 1
  86   44   87 1
  87   44   88 1
  88   44   89 1
  89   45   46 2
  90   45   47 2
  91   48   49 1
  92   49   50 1
  93   49   90 1
  94   49   91 1
  95   50   51 1
  96   50   52 1
  97   50   92 1

#	End of record

