#	Name: ASD01915550
#	Creating user name:	WinNT
#	Creation time:	15. 06. 2019 20:05

#	Modifying user name:	WinNT
#	Modification time:	15. 06. 2019 20:05

#	Program:	/corina/corina34_cracker 3.40 0067  02.08.2006

@<TRIPOS>MOLECULE
ASD01915550
  45   48    0    0    0
SMALL
NO_CHARGES


@<TRIPOS>ATOM
   1 C1            -0.0042     1.4687     0.2350 C.2     
   2 N2             0.0663     0.1194    -0.0302 N.pl3   
   3 C3            -1.1427    -0.6635    -0.3131 C.3     
   4 C4            -2.3279    -0.0486     0.4294 C.3     
   5 N5            -2.4044     1.3988     0.2637 N.am    
   6 C6            -1.2936     2.1743     0.2864 C.2     
   7 C7             1.2762     1.9061     0.4261 C.2     
   8 C8             2.0759     0.7653     0.2738 C.2     
   9 N9             1.2866    -0.2500     0.0108 N.2     
  10 C10            3.5775     0.7136     0.3903 C.3     
  11 O11            4.0777     2.0196     0.6839 O.3     
  12 C12            5.4236     2.1481     0.8220 C.ar    
  13 O13           -1.3591     3.3875     0.3464 O.2     
  14 C14            5.9776     3.3876     1.1073 C.ar    
  15 C15            6.2453     1.0389     0.6835 C.ar    
  16 C16            7.6131     1.1722     0.8243 C.ar    
  17 C17            8.1632     2.4097     1.1030 C.ar    
  18 C18            7.3459     3.5156     1.2472 C.ar    
  19 C19           -3.6540     2.0001     0.0766 C.ar    
  20 C20           -4.5853     2.0022     1.1065 C.ar    
  21 C21           -5.8197     2.5960     0.9223 C.ar    
  22 C22           -6.1302     3.1897    -0.2876 C.ar    
  23 C23           -5.2012     3.1901    -1.3214 C.ar    
  24 C24           -3.9615     2.6001    -1.1372 C.ar    
  25 F25           -7.3375     3.7694    -0.4649 F       
  26 O26           -5.5071     3.7735    -2.5106 O.3     
  27 C27           -4.5045     3.7365    -3.5282 C.3     
  28 H28           -1.3401    -0.6535    -1.3851 H       
  29 H29           -0.9974    -1.6908     0.0209 H       
  30 H30           -3.2487    -0.4952     0.0541 H       
  31 H31           -2.2353    -0.2772     1.4911 H       
  32 H32            1.6013     2.9122     0.6463 H       
  33 H33            3.8564     0.0291     1.1914 H       
  34 H34            4.0031     0.3645    -0.5505 H       
  35 H35            5.3396     4.2518     1.2197 H       
  36 H36            5.8161     0.0721     0.4661 H       
  37 H37            8.2532     0.3090     0.7169 H       
  38 H38            9.2328     2.5119     1.2127 H       
  39 H39            7.7781     4.4812     1.4645 H       
  40 H40           -4.3451     1.5391     2.0522 H       
  41 H41           -6.5431     2.5960     1.7243 H       
  42 H42           -3.2384     2.5994    -1.9394 H       
  43 H43           -4.8764     4.2356    -4.4230 H       
  44 H44           -3.6083     4.2458    -3.1740 H       
  45 H45           -4.2641     2.6997    -3.7639 H       
@<TRIPOS>BOND
   1    1    2 1
   2    1    7 2
   3    1    6 1
   4    2    3 1
   5    2    9 1
   6    3    4 1
   7    3   28 1
   8    3   29 1
   9    4    5 1
  10    4   30 1
  11    4   31 1
  12    5    6 am
  13    5   19 1
  14    6   13 2
  15    7    8 1
  16    7   32 1
  17    8    9 2
  18    8   10 1
  19   10   11 1
  20   10   33 1
  21   10   34 1
  22   11   12 1
  23   12   14 ar
  24   12   15 ar
  25   14   18 ar
  26   14   35 1
  27   15   16 ar
  28   15   36 1
  29   16   17 ar
  30   16   37 1
  31   17   18 ar
  32   17   38 1
  33   18   39 1
  34   19   20 ar
  35   19   24 ar
  36   20   21 ar
  37   20   40 1
  38   21   22 ar
  39   21   41 1
  40   22   23 ar
  41   22   25 1
  42   23   24 ar
  43   23   26 1
  44   24   42 1
  45   26   27 1
  46   27   43 1
  47   27   44 1
  48   27   45 1

#	End of record

