#	Name: ASD03330192
#	Creating user name:	WinNT
#	Creation time:	15. 06. 2019 20:36

#	Modifying user name:	WinNT
#	Modification time:	15. 06. 2019 20:36

#	Program:	/corina/corina34_cracker 3.40 0067  02.08.2006

@<TRIPOS>MOLECULE
ASD03330192
  49   52    0    0    0
SMALL
NO_CHARGES


@<TRIPOS>ATOM
   1 C1             0.5881     0.5988     3.0031 C.ar    
   2 C2             0.3351    -0.1452     1.8641 C.ar    
   3 C3             1.3849    -0.6169     1.0981 C.ar    
   4 C4             2.6932    -0.3434     1.4730 C.ar    
   5 C5             2.9432     0.4037     2.6170 C.ar    
   6 C6             1.8906     0.8723     3.3783 C.ar    
   7 N7             3.7581    -0.8198     0.7002 N.am    
   8 C8             4.8933    -0.1001     0.6006 C.2     
   9 N9             5.9569    -0.6064    -0.0542 N.am    
  10 O10            4.9578     1.0059     1.1015 O.2     
  11 C11            7.0970     0.1810    -0.2515 C.ar    
  12 C12            8.3525    -0.4070    -0.2617 C.ar    
  13 C13            9.4841     0.3807    -0.4583 C.ar    
  14 C14            9.3482     1.7553    -0.6437 C.ar    
  15 C15            8.0942     2.3331    -0.6322 C.ar    
  16 C16            6.9705     1.5516    -0.4429 C.ar    
  17 C17           10.8307    -0.2418    -0.4698 C.ar    
  18 N18           10.9509    -1.5521    -0.2920 N.ar    
  19 C19           11.9550     0.5523    -0.6727 C.ar    
  20 C20           13.2090    -0.0392    -0.6822 C.ar    
  21 C21           13.2980    -1.4068    -0.4883 C.ar    
  22 C22           12.1334    -2.1448    -0.2960 C.ar    
  23 N23           12.2145    -3.5184    -0.1002 N.3     
  24 C24           10.8746    -4.1061     0.0828 C.3     
  25 C25           10.7039    -5.1989    -0.9934 C.3     
  26 C26           12.1674    -5.5584    -1.3616 C.3     
  27 C27           12.8656    -4.1801    -1.2508 C.3     
  28 Cl28          -1.3016    -0.4868     1.3970 Cl      
  29 H29           -0.2334     0.9702     3.5977 H       
  30 H30            1.1873    -1.1979     0.2093 H       
  31 H31            3.9602     0.6176     2.9111 H       
  32 H32            2.0850     1.4535     4.2676 H       
  33 H33            3.6793    -1.6679     0.2363 H       
  34 H34            5.9322    -1.5165    -0.3888 H       
  35 H35            8.4527    -1.4726    -0.1172 H       
  36 H36           10.2239     2.3687    -0.7961 H       
  37 H37            7.9910     3.3985    -0.7761 H       
  38 H38            5.9918     2.0083    -0.4351 H       
  39 H39           11.8522     1.6170    -0.8214 H       
  40 H40           14.0976     0.5546    -0.8379 H       
  41 H41           14.2604    -1.8968    -0.4907 H       
  42 H42           10.7961    -4.5482     1.0760 H       
  43 H43           10.1121    -3.3377    -0.0447 H       
  44 H44           10.1855    -6.0657    -0.5835 H       
  45 H45           10.1736    -4.8060    -1.8608 H       
  46 H46           12.5869    -6.2671    -0.6476 H       
  47 H47           12.2300    -5.9473    -2.3780 H       
  48 H48           12.7082    -3.6008    -2.1606 H       
  49 H49           13.9313    -4.3087    -1.0614 H       
@<TRIPOS>BOND
   1    1    2 ar
   2    1    6 ar
   3    1   29 1
   4    2    3 ar
   5    2   28 1
   6    3    4 ar
   7    3   30 1
   8    4    5 ar
   9    4    7 1
  10    5    6 ar
  11    5   31 1
  12    6   32 1
  13    7    8 am
  14    7   33 1
  15    8    9 am
  16    8   10 2
  17    9   11 1
  18    9   34 1
  19   11   12 ar
  20   11   16 ar
  21   12   13 ar
  22   12   35 1
  23   13   14 ar
  24   13   17 1
  25   14   15 ar
  26   14   36 1
  27   15   16 ar
  28   15   37 1
  29   16   38 1
  30   17   18 ar
  31   17   19 ar
  32   18   22 ar
  33   19   20 ar
  34   19   39 1
  35   20   21 ar
  36   20   40 1
  37   21   22 ar
  38   21   41 1
  39   22   23 1
  40   23   24 1
  41   23   27 1
  42   24   25 1
  43   24   42 1
  44   24   43 1
  45   25   26 1
  46   25   44 1
  47   25   45 1
  48   26   27 1
  49   26   46 1
  50   26   47 1
  51   27   48 1
  52   27   49 1

#	End of record

