#	Name: ASD05490243
#	Creating user name:	WinNT
#	Creation time:	15. 06. 2019 21:01

#	Modifying user name:	WinNT
#	Modification time:	15. 06. 2019 21:01

#	Program:	/corina/corina34_cracker 3.40 0067  02.08.2006

@<TRIPOS>MOLECULE
ASD05490243
  62   66    0    0    0
SMALL
NO_CHARGES


@<TRIPOS>ATOM
   1 N1            -0.0140     1.3235    -0.0018 N.ar    
   2 C2             0.0026    -0.0005    -0.0086 C.ar    
   3 C3             1.1990    -0.7004    -0.0178 C.ar    
   4 C4             2.3953     0.0106    -0.0206 C.ar    
   5 C5             2.3404     1.4047    -0.0168 C.ar    
   6 C6             1.1047     2.0380    -0.0056 C.ar    
   7 N7             3.6186    -0.6479    -0.0229 N.3     
   8 C8             3.4706    -2.0318    -0.4926 C.3     
   9 C9             4.7908    -2.7480    -0.3696 C.ar    
  10 C10            5.1057    -3.4216     0.7954 C.ar    
  11 C11            6.3170    -4.0785     0.9083 C.ar    
  12 C12            7.2128    -4.0621    -0.1442 C.ar    
  13 C13            6.8974    -3.3890    -1.3099 C.ar    
  14 C14            5.6847    -2.7359    -1.4243 C.ar    
  15 N15            7.6154    -4.5166    -3.3392 N.3     
  16 N16            1.0388     3.4288     0.0012 N.pl3   
  17 O17           -1.1706    -0.6833    -0.0060 O.3     
  18 C18           -2.3717     0.0908     0.0041 C.3     
  19 C19           -3.5818    -0.8454     0.0055 C.3     
  20 N20            3.5364     2.1439    -0.0281 N.am    
  21 C21            4.6274     0.0692    -0.8097 C.3     
  22 C22            4.6764     1.5173    -0.3970 C.2     
  23 O23            5.7309     2.1170    -0.3961 O.2     
  24 C24            7.8743    -3.3707    -2.4572 C.3     
  25 C25           -4.8678    -0.0166     0.0164 C.3     
  26 C26            8.3864    -4.4047    -4.5910 C.3     
  27 C27            9.2451    -5.6809    -4.7146 C.3     
  28 C28            8.4903    -6.6982    -3.8190 C.3     
  29 C29            7.9763    -5.7877    -2.6760 C.3     
  30 C30           -6.1947    -0.7697    -0.0989 C.3     
  31 C31           -5.7820    -0.1469     1.2363 C.3     
  32 H32            1.2028    -1.7804    -0.0225 H       
  33 H33            2.7222    -2.5430     0.1130 H       
  34 H34            3.1542    -2.0297    -1.5357 H       
  35 H35            4.4058    -3.4344     1.6178 H       
  36 H36            6.5634    -4.6043     1.8189 H       
  37 H37            8.1593    -4.5746    -0.0557 H       
  38 H38            5.4383    -2.2102    -2.3350 H       
  39 H39            1.8549     3.9530    -0.0019 H       
  40 H40            0.1768     3.8735     0.0091 H       
  41 H41           -2.3941     0.7150     0.8974 H       
  42 H42           -2.4033     0.7241    -0.8825 H       
  43 H43           -3.5594    -1.4696    -0.8877 H       
  44 H44           -3.5502    -1.4787     0.8922 H       
  45 H45            3.5435     3.0810     0.2224 H       
  46 H46            5.6040    -0.3863    -0.6458 H       
  47 H47            4.3737     0.0035    -1.8678 H       
  48 H48            7.7561    -2.4449    -3.0203 H       
  49 H49            8.8912    -3.4329    -2.0697 H       
  50 H50           -4.8010     0.9612    -0.4607 H       
  51 H51            7.7066    -4.3315    -5.4399 H       
  52 H52            9.0308    -3.5265    -4.5523 H       
  53 H53            9.2760    -6.0260    -5.7481 H       
  54 H54           10.2519    -5.5063    -4.3353 H       
  55 H55            7.6600    -7.1532    -4.3591 H       
  56 H56            9.1692    -7.4602    -3.4359 H       
  57 H57            8.7631    -5.6218    -1.9401 H       
  58 H58            7.1002    -6.2309    -2.2026 H       
  59 H59           -7.0008    -0.2872    -0.6515 H       
  60 H60           -6.1514    -1.8556    -0.1825 H       
  61 H61           -5.4673    -0.8231     2.0311 H       
  62 H62           -6.3167     0.7453     1.5621 H       
@<TRIPOS>BOND
   1    1    2 ar
   2    1    6 ar
   3    2    3 ar
   4    2   17 1
   5    3    4 ar
   6    3   32 1
   7    4    5 ar
   8    4    7 1
   9    5    6 ar
  10    5   20 1
  11    6   16 1
  12    7    8 1
  13    7   21 1
  14    8    9 1
  15    8   33 1
  16    8   34 1
  17    9   10 ar
  18    9   14 ar
  19   10   11 ar
  20   10   35 1
  21   11   12 ar
  22   11   36 1
  23   12   13 ar
  24   12   37 1
  25   13   14 ar
  26   13   24 1
  27   14   38 1
  28   15   26 1
  29   15   24 1
  30   15   29 1
  31   16   39 1
  32   16   40 1
  33   17   18 1
  34   18   19 1
  35   18   41 1
  36   18   42 1
  37   19   25 1
  38   19   43 1
  39   19   44 1
  40   20   22 am
  41   20   45 1
  42   21   22 1
  43   21   46 1
  44   21   47 1
  45   22   23 2
  46   24   48 1
  47   24   49 1
  48   25   30 1
  49   25   31 1
  50   25   50 1
  51   26   27 1
  52   26   51 1
  53   26   52 1
  54   27   28 1
  55   27   53 1
  56   27   54 1
  57   28   29 1
  58   28   55 1
  59   28   56 1
  60   29   57 1
  61   29   58 1
  62   30   31 1
  63   30   59 1
  64   30   60 1
  65   31   61 1
  66   31   62 1

#	End of record

