#	Name: ASD04122024
#	Creating user name:	WinNT
#	Creation time:	15. 06. 2019 20:48

#	Modifying user name:	WinNT
#	Modification time:	15. 06. 2019 20:48

#	Program:	/corina/corina34_cracker 3.40 0067  02.08.2006

@<TRIPOS>MOLECULE
ASD04122024
  68   72    0    0    0
SMALL
NO_CHARGES


@<TRIPOS>ATOM
   1 C1            -1.7224    -0.4386    -1.0737 C.ar    
   2 C2            -2.8081    -0.9318    -1.8043 C.ar    
   3 N3            -4.0539    -0.2871    -1.8246 N.pl3   
   4 C4            -4.3473     1.0503    -1.7377 C.2     
   5 C5            -3.4908     2.1409    -1.4552 C.2     
   6 C6            -2.0642     1.9264    -1.1023 C.3     
   7 O7            -1.8488     0.7213    -0.4112 O.3     
   8 C8            -5.2262    -0.9704    -1.9848 C.2     
   9 C9            -6.2473    -0.0867    -2.0749 C.2     
  10 C10           -5.7181     1.1938    -1.9306 C.2     
  11 C11           -0.5240    -1.1339    -1.0625 C.ar    
  12 C12           -0.3906    -2.3057    -1.7818 C.ar    
  13 C13           -1.4570    -2.7891    -2.5178 C.ar    
  14 C14           -2.6571    -2.1085    -2.5299 C.ar    
  15 C15           -1.2464     1.9136    -2.3680 C.ar    
  16 C16            0.0688     1.4892    -2.3369 C.ar    
  17 C17            0.8190     1.4774    -3.4979 C.ar    
  18 C18            0.2539     1.8898    -4.6902 C.ar    
  19 C19           -1.0616     2.3134    -4.7215 C.ar    
  20 C20           -1.8131     2.3210    -3.5612 C.ar    
  21 O21           -3.9300     3.2722    -1.5025 O.2     
  22 C22           -1.5956     3.0889    -0.2248 C.3     
  23 C23           -2.3892     3.0926     1.0833 C.3     
  24 C24            1.0720     1.8779    -5.9557 C.3     
  25 S25            0.8922     0.2705    -6.7769 S.3     
  26 C26            1.9017     0.4428    -8.2108 C.ar    
  27 C27            2.0174    -0.6129    -9.1094 C.ar    
  28 C28            2.8060    -0.4809   -10.2313 C.ar    
  29 C29            3.4891     0.7141   -10.4663 C.ar    
  30 C30            3.3707     1.7722    -9.5629 C.ar    
  31 C31            2.5769     1.6364    -8.4451 C.ar    
  32 C32            4.3098     0.8540   -11.6313 C.1     
  33 C33            4.9827     0.9687   -12.5865 C.1     
  34 Si34           6.0718     1.1543   -14.1323 Si      
  35 C35            6.8379     2.8524   -14.1520 C.3     
  36 C36            7.4174    -0.1338   -14.1023 C.3     
  37 C37            5.0278     0.9263   -15.6584 C.3     
  38 H38           -5.3226    -2.0450    -2.0323 H       
  39 H39           -7.2877    -0.3309    -2.2307 H       
  40 H40           -6.2680     2.1228    -1.9619 H       
  41 H41            0.3102    -0.7576    -0.4889 H       
  42 H42            0.5458    -2.8436    -1.7696 H       
  43 H43           -1.3500    -3.7019    -3.0850 H       
  44 H44           -3.4852    -2.4924    -3.1071 H       
  45 H45            0.5104     1.1670    -1.4054 H       
  46 H46            1.8468     1.1465    -3.4734 H       
  47 H47           -1.5031     2.6358    -5.6529 H       
  48 H48           -2.8409     2.6519    -3.5857 H       
  49 H49           -0.5341     2.9737    -0.0055 H       
  50 H50           -1.7579     4.0297    -0.7509 H       
  51 H51           -3.4506     3.2079     0.8640 H       
  52 H52           -2.2269     2.1519     1.6094 H       
  53 H53           -2.0553     3.9208     1.7084 H       
  54 H54            0.7228     2.6671    -6.6215 H       
  55 H55            2.1210     2.0460    -5.7118 H       
  56 H56            1.4888    -1.5369    -8.9272 H       
  57 H57            2.8960    -1.3010   -10.9282 H       
  58 H58            3.8980     2.6975    -9.7422 H       
  59 H59            2.4851     2.4544    -7.7460 H       
  60 H60            7.4486     2.9858   -13.2591 H       
  61 H61            7.4626     2.9588   -15.0388 H       
  62 H62            6.0506     3.6060   -14.1696 H       
  63 H63            6.9692    -1.1273   -14.0908 H       
  64 H64            8.0421    -0.0273   -14.9891 H       
  65 H65            8.0282    -0.0004   -13.2094 H       
  66 H66            4.2405     1.6799   -15.6760 H       
  67 H67            5.6526     1.0328   -16.5453 H       
  68 H68            4.5796    -0.0672   -15.6469 H       
@<TRIPOS>BOND
   1    1    2 ar
   2    1   11 ar
   3    1    7 1
   4    2    3 1
   5    2   14 ar
   6    3    8 1
   7    3    4 1
   8    4    5 1
   9    4   10 2
  10    5   21 2
  11    5    6 1
  12    6    7 1
  13    6   15 1
  14    6   22 1
  15    8    9 2
  16    8   38 1
  17    9   10 1
  18    9   39 1
  19   10   40 1
  20   11   12 ar
  21   11   41 1
  22   12   13 ar
  23   12   42 1
  24   13   14 ar
  25   13   43 1
  26   14   44 1
  27   15   16 ar
  28   15   20 ar
  29   16   17 ar
  30   16   45 1
  31   17   18 ar
  32   17   46 1
  33   18   19 ar
  34   18   24 1
  35   19   20 ar
  36   19   47 1
  37   20   48 1
  38   22   23 1
  39   22   49 1
  40   22   50 1
  41   23   51 1
  42   23   52 1
  43   23   53 1
  44   24   25 1
  45   24   54 1
  46   24   55 1
  47   25   26 1
  48   26   27 ar
  49   26   31 ar
  50   27   28 ar
  51   27   56 1
  52   28   29 ar
  53   28   57 1
  54   29   30 ar
  55   29   32 1
  56   30   31 ar
  57   30   58 1
  58   31   59 1
  59   32   33 3
  60   33   34 1
  61   34   35 1
  62   34   36 1
  63   34   37 1
  64   35   60 1
  65   35   61 1
  66   35   62 1
  67   36   63 1
  68   36   64 1
  69   36   65 1
  70   37   66 1
  71   37   67 1
  72   37   68 1

#	End of record

