#	Name: ASD01918037
#	Creating user name:	WinNT
#	Creation time:	15. 06. 2019 20:10

#	Modifying user name:	WinNT
#	Modification time:	15. 06. 2019 20:10

#	Program:	/corina/corina34_cracker 3.40 0067  02.08.2006

@<TRIPOS>MOLECULE
ASD01918037
  43   46    0    0    0
SMALL
NO_CHARGES


@<TRIPOS>ATOM
   1 C1            -0.0398     1.3581     0.1110 C.ar    
   2 C2            -0.0277    -0.0284     0.1249 C.ar    
   3 C3             1.1771    -0.7087     0.1270 C.ar    
   4 C4             2.3709    -0.0037     0.1154 C.ar    
   5 C5             2.3582     1.3803     0.1016 C.ar    
   6 C6             1.1561     2.0613     0.0994 C.ar    
   7 O7            -1.2227     2.0280     0.1032 O.3     
   8 C8            -1.1598     3.4555     0.0891 C.3     
   9 C9            -2.5571     4.0199     0.0821 C.2     
  10 N10           -3.2623     4.3148     1.1398 N.2     
  11 C11           -4.4502     4.7904     0.7428 C.2     
  12 C12           -4.4608     4.7845    -0.6040 C.2     
  13 O13           -3.2782     4.3069    -1.0132 O.3     
  14 C14           -5.5969     5.2540     1.6048 C.3     
  15 C15           -6.5427     6.1095     0.7527 C.3     
  16 N16           -6.7713     5.4383    -0.5356 N.am    
  17 C17           -5.6220     5.2590    -1.4423 C.3     
  18 C18           -7.9990     5.0006    -0.8787 C.2     
  19 O19           -8.9114     5.0603    -0.0775 O.2     
  20 C20           -8.2359     4.4485    -2.2282 C.ar    
  21 C21           -9.1357     3.3955    -2.4065 C.ar    
  22 C22           -9.3530     2.8840    -3.6678 C.ar    
  23 C23           -8.6801     3.4132    -4.7586 C.ar    
  24 C24           -7.7853     4.4584    -4.5872 C.ar    
  25 C25           -7.5652     4.9815    -3.3311 C.ar    
  26 F26           -8.8967     2.9082    -5.9928 F       
  27 F27            3.5473    -0.6680     0.1179 F       
  28 F28            1.1903    -2.0595     0.1409 F       
  29 H29           -0.9580    -0.5769     0.1343 H       
  30 H30            3.2888     1.9283     0.0929 H       
  31 H31            1.1473     3.1412     0.0886 H       
  32 H32           -0.6313     3.8048     0.9761 H       
  33 H33           -0.6296     3.7870    -0.8038 H       
  34 H34           -6.1357     4.3892     1.9920 H       
  35 H35           -5.2135     5.8488     2.4338 H       
  36 H36           -7.4925     6.2314     1.2735 H       
  37 H37           -6.0930     7.0872     0.5794 H       
  38 H38           -5.3747     6.2099    -1.9143 H       
  39 H39           -5.8577     4.5159    -2.2041 H       
  40 H40           -9.6600     2.9824    -1.5575 H       
  41 H41          -10.0483     2.0694    -3.8068 H       
  42 H42           -7.2635     4.8667    -5.4401 H       
  43 H43           -6.8719     5.7991    -3.1994 H       
@<TRIPOS>BOND
   1    1    2 ar
   2    1    6 ar
   3    1    7 1
   4    2    3 ar
   5    2   29 1
   6    3    4 ar
   7    3   28 1
   8    4    5 ar
   9    4   27 1
  10    5    6 ar
  11    5   30 1
  12    6   31 1
  13    7    8 1
  14    8    9 1
  15    8   32 1
  16    8   33 1
  17    9   10 2
  18    9   13 1
  19   10   11 1
  20   11   14 1
  21   11   12 2
  22   12   13 1
  23   12   17 1
  24   14   15 1
  25   14   34 1
  26   14   35 1
  27   15   16 1
  28   15   36 1
  29   15   37 1
  30   16   17 1
  31   16   18 am
  32   17   38 1
  33   17   39 1
  34   18   19 2
  35   18   20 1
  36   20   21 ar
  37   20   25 ar
  38   21   22 ar
  39   21   40 1
  40   22   23 ar
  41   22   41 1
  42   23   24 ar
  43   23   26 1
  44   24   25 ar
  45   24   42 1
  46   25   43 1

#	End of record

