#	Name: ASD01883898
#	Creating user name:	WinNT
#	Creation time:	15. 06. 2019 19:47

#	Modifying user name:	WinNT
#	Modification time:	15. 06. 2019 19:47

#	Program:	/corina/corina34_cracker 3.40 0067  02.08.2006

@<TRIPOS>MOLECULE
ASD01883898
  47   52    0    0    0
SMALL
NO_CHARGES


@<TRIPOS>ATOM
   1 Cl1            0.0021    -0.0041     0.0020 Cl      
   2 C2            -0.0215     1.7317     0.0116 C.2     
   3 C3            -1.2224     2.4175     0.0325 C.2     
   4 C4            -1.2128     3.8336     0.0398 C.2     
   5 C5            -0.0455     4.5037     0.0265 C.2     
   6 N6             1.1452     3.8355     0.0058 N.pl3   
   7 C7             2.4451     4.2403    -0.0108 C.2     
   8 C8             2.9341     5.6658    -0.0098 C.3     
   9 C9             3.1205     6.1401     1.4328 C.3     
  10 C10            4.5381     6.5034     1.8794 C.3     
  11 C11            3.5018     7.6056     1.6509 C.3     
  12 N12            3.1921     3.1666    -0.0272 N.2     
  13 N13            2.4568     2.1108    -0.0222 N.2     
  14 C14            1.1804     2.4621     0.0040 C.2     
  15 C15           -2.5063     1.6779     0.0466 C.ar    
  16 C16           -2.8690     0.8866    -1.0492 C.ar    
  17 C17           -4.0484     0.1994    -1.0520 C.ar    
  18 C18           -4.9074     0.2777     0.0402 C.ar    
  19 N19           -6.1336    -0.2869     0.3206 N.pl3   
  20 C20           -6.5610     0.1189     1.5575 C.2     
  21 C21           -5.6529     0.9389     2.1094 C.2     
  22 C22           -4.5535     1.0701     1.1490 C.ar    
  23 C23           -3.3459     1.7663     1.1504 C.ar    
  24 C24           -6.8376    -1.1468    -0.5320 C.ar    
  25 C25           -7.3434    -2.3541    -0.0573 C.ar    
  26 C26           -8.0328    -3.1710    -0.9389 C.ar    
  27 C27           -8.1948    -2.7643    -2.2500 C.ar    
  28 N28           -7.7033    -1.6142    -2.6685 N.ar    
  29 C29           -7.0464    -0.8051    -1.8618 C.ar    
  30 H30           -2.1455     4.3778     0.0558 H       
  31 H31           -0.0507     5.5837     0.0319 H       
  32 H32            3.8863     5.7236    -0.5372 H       
  33 H33            2.2028     6.3011    -0.5095 H       
  34 H34            2.4641     5.6759     2.1688 H       
  35 H35            4.8145     6.2782     2.9094 H       
  36 H36            5.3379     6.4046     1.1454 H       
  37 H37            3.6199     8.2319     0.7667 H       
  38 H38            3.0965     8.1056     2.5306 H       
  39 H39           -2.2092     0.8194    -1.9016 H       
  40 H40           -4.3161    -0.4069    -1.9047 H       
  41 H41           -7.4911    -0.1769     2.0199 H       
  42 H42           -5.7199     1.4126     3.0777 H       
  43 H43           -3.0673     2.3723     1.9997 H       
  44 H44           -7.2015    -2.6468     0.9725 H       
  45 H45           -8.4386    -4.1147    -0.6055 H       
  46 H46           -8.7310    -3.3974    -2.9415 H       
  47 H47           -6.6628     0.1310    -2.2398 H       
@<TRIPOS>BOND
   1    1    2 1
   2    2   14 1
   3    2    3 2
   4    3    4 1
   5    3   15 1
   6    4    5 2
   7    4   30 1
   8    5    6 1
   9    5   31 1
  10    6   14 1
  11    6    7 1
  12    7    8 1
  13    7   12 2
  14    8    9 1
  15    8   32 1
  16    8   33 1
  17    9   11 1
  18    9   10 1
  19    9   34 1
  20   10   11 1
  21   10   35 1
  22   10   36 1
  23   11   37 1
  24   11   38 1
  25   12   13 1
  26   13   14 2
  27   15   23 ar
  28   15   16 ar
  29   16   17 ar
  30   16   39 1
  31   17   18 ar
  32   17   40 1
  33   18   22 ar
  34   18   19 1
  35   19   20 1
  36   19   24 1
  37   20   21 2
  38   20   41 1
  39   21   22 1
  40   21   42 1
  41   22   23 ar
  42   23   43 1
  43   24   29 ar
  44   24   25 ar
  45   25   26 ar
  46   25   44 1
  47   26   27 ar
  48   26   45 1
  49   27   28 ar
  50   27   46 1
  51   28   29 ar
  52   29   47 1

#	End of record

