#	Name: ASD08170255
#	Creating user name:	WinNT
#	Creation time:	15. 06. 2019 21:17

#	Modifying user name:	WinNT
#	Modification time:	15. 06. 2019 21:17

#	Program:	/corina/corina34_cracker 3.40 0067  02.08.2006

@<TRIPOS>MOLECULE
ASD08170255
  52   53    0    0    0
SMALL
NO_CHARGES


@<TRIPOS>ATOM
   1 N1            -0.0150     1.2583     0.0090 N.2     
   2 N2             0.0021    -0.0041     0.0020 N.2     
   3 C3             1.1271     1.8769     0.0014 C.2     
   4 S4             2.3826     0.7116    -0.0169 S.3     
   5 C5             1.1681    -0.5677    -0.0121 C.2     
   6 C6             1.4387    -2.0502    -0.0227 C.3     
   7 C7             1.5165    -2.5442    -1.4687 C.3     
   8 C8             1.8690    -4.5432    -2.9254 C.3     
   9 C9             2.1395    -6.0257    -2.9359 C.2     
  10 N10            1.2478    -6.9651    -2.9329 N.2     
  11 S11            3.7275    -6.7933    -2.9623 S.3     
  12 C12            2.9647    -8.3272    -2.9581 C.2     
  13 N13            1.6777    -8.1521    -2.9433 N.2     
  14 N14            3.6154    -9.5562    -2.9730 N.am    
  15 C15            2.8993   -10.6980    -2.9678 C.2     
  16 O16            1.6874   -10.6536    -2.9501 O.2     
  17 C17            3.6044   -12.0297    -2.9839 C.3     
  18 N18            1.3017     3.2566     0.0067 N.am    
  19 C19            0.2284     4.0717     0.0214 C.2     
  20 C20            0.4176     5.5667     0.0272 C.3     
  21 O21           -0.8897     3.6019     0.0299 O.2     
  22 C22            1.7912    -4.0493    -1.4794 C.3     
  23 C23            2.5684   -13.1555    -2.9740 C.3     
  24 C24           -0.9494     6.2538     0.0441 C.3     
  25 O25            3.2370   -14.4184    -2.9893 O.3     
  26 C26            2.3554   -15.5430    -2.9816 C.3     
  27 C27           -1.9920     8.4119     0.0653 C.3     
  28 O28           -0.7699     7.6714     0.0495 O.3     
  29 H29            2.3843    -2.2506     0.4811 H       
  30 H30            0.6334    -2.5702     0.4961 H       
  31 H31            0.5709    -2.3438    -1.9724 H       
  32 H32            2.3218    -2.0242    -1.9874 H       
  33 H33            2.6743    -4.0232    -3.4441 H       
  34 H34            0.9234    -4.3429    -3.4291 H       
  35 H35            4.5846    -9.5917    -2.9871 H       
  36 H36            4.2156   -12.1064    -3.8831 H       
  37 H37            4.2413   -12.1143    -2.1034 H       
  38 H38            2.1959     3.6323    -0.0001 H       
  39 H39            0.9817     5.8582     0.9132 H       
  40 H40            0.9643     5.8672    -0.8667 H       
  41 H41            2.7368    -4.2496    -0.9756 H       
  42 H42            0.9858    -4.5693    -0.9606 H       
  43 H43            1.9572   -13.0789    -2.0747 H       
  44 H44            1.9315   -13.0709    -3.8545 H       
  45 H45           -1.5134     5.9623    -0.8419 H       
  46 H46           -1.4960     5.9533     0.9379 H       
  47 H47            1.7398   -15.5159    -2.0825 H       
  48 H48            1.7141   -15.5079    -3.8622 H       
  49 H49            2.9399   -16.4629    -2.9941 H       
  50 H50           -2.5777     8.1653    -0.8203 H       
  51 H51           -2.5603     8.1562     0.9596 H       
  52 H52           -1.7702     9.4791     0.0686 H       
@<TRIPOS>BOND
   1    1    2 1
   2    1    3 2
   3    2    5 2
   4    3    4 1
   5    3   18 1
   6    4    5 1
   7    5    6 1
   8    6    7 1
   9    6   29 1
  10    6   30 1
  11    7   22 1
  12    7   31 1
  13    7   32 1
  14    8    9 1
  15    8   22 1
  16    8   33 1
  17    8   34 1
  18    9   10 2
  19    9   11 1
  20   10   13 1
  21   11   12 1
  22   12   13 2
  23   12   14 1
  24   14   15 am
  25   14   35 1
  26   15   16 2
  27   15   17 1
  28   17   23 1
  29   17   36 1
  30   17   37 1
  31   18   19 am
  32   18   38 1
  33   19   20 1
  34   19   21 2
  35   20   24 1
  36   20   39 1
  37   20   40 1
  38   22   41 1
  39   22   42 1
  40   23   25 1
  41   23   43 1
  42   23   44 1
  43   24   28 1
  44   24   45 1
  45   24   46 1
  46   25   26 1
  47   26   47 1
  48   26   48 1
  49   26   49 1
  50   27   28 1
  51   27   50 1
  52   27   51 1
  53   27   52 1

#	End of record

