#	Name: ASD01917121
#	Creating user name:	WinNT
#	Creation time:	15. 06. 2019 20:08

#	Modifying user name:	WinNT
#	Modification time:	15. 06. 2019 20:08

#	Program:	/corina/corina34_cracker 3.40 0067  02.08.2006

@<TRIPOS>MOLECULE
ASD01917121
  43   46    0    0    0
SMALL
NO_CHARGES


@<TRIPOS>ATOM
   1 C1            -0.1449     0.8723     0.0929 C.ar    
   2 C2            -0.3229    -0.4762    -0.2936 C.ar    
   3 C3            -1.6035    -0.9751    -0.5281 C.ar    
   4 C4            -2.6853    -0.1518    -0.3957 C.ar    
   5 C5            -2.5212     1.1835    -0.0281 C.ar    
   6 C6            -1.2610     1.6987     0.2170 C.ar    
   7 N7             1.1072     1.3165     0.3414 N.2     
   8 C8             2.1684     0.5587     0.2139 C.2     
   9 N9             2.0905    -0.7124    -0.2544 N.am    
  10 C10            0.8782    -1.3010    -0.4461 C.2     
  11 O11           -3.6096     1.9859     0.0910 O.3     
  12 O12            0.7943    -2.4806    -0.7358 O.2     
  13 C13           -5.5650     2.5732     1.3032 C.ar    
  14 C14           -4.3852     1.8476     1.1956 C.ar    
  15 C15           -6.3470     2.4229     2.4349 C.ar    
  16 C16           -5.9190     1.5478     3.4240 C.ar    
  17 C17           -4.7354     0.8586     3.2501 C.ar    
  18 N18           -4.0110     1.0228     2.1596 N.ar    
  19 C19            3.4734     1.1603     0.6650 C.3     
  20 C20            4.6752     0.4690     0.0600 C.3     
  21 C21            4.5309    -1.0391     0.0643 C.3     
  22 C22            3.2644    -1.4966    -0.6230 C.3     
  23 C23            5.7343    -1.6545    -0.6526 C.3     
  24 C24            4.5146    -1.5315     1.5128 C.3     
  25 H25           -1.7394    -2.0078    -0.8135 H       
  26 H26           -3.6771    -0.5385    -0.5778 H       
  27 H27           -1.1426     2.7336     0.5023 H       
  28 H28           -5.8657     3.2488     0.5161 H       
  29 H29           -7.2690     2.9741     2.5464 H       
  30 H30           -6.5056     1.4077     4.3199 H       
  31 H31           -4.3979     0.1768     4.0168 H       
  32 H32            3.4927     2.2124     0.3810 H       
  33 H33            3.5366     1.0899     1.7509 H       
  34 H34            4.7987     0.8094    -0.9681 H       
  35 H35            5.5637     0.7408     0.6299 H       
  36 H36            3.0834    -2.5398    -0.3639 H       
  37 H37            3.4071    -1.4267    -1.7014 H       
  38 H38            6.6502    -1.3707    -0.1343 H       
  39 H39            5.6396    -2.7404    -0.6547 H       
  40 H40            5.7704    -1.2910    -1.6795 H       
  41 H41            3.6749    -1.0796     2.0408 H       
  42 H42            4.4110    -2.6165     1.5266 H       
  43 H43            5.4464    -1.2493     2.0030 H       
@<TRIPOS>BOND
   1    1    2 ar
   2    1    7 1
   3    1    6 ar
   4    2    3 ar
   5    2   10 1
   6    3    4 ar
   7    3   25 1
   8    4    5 ar
   9    4   26 1
  10    5    6 ar
  11    5   11 1
  12    6   27 1
  13    7    8 2
  14    8    9 1
  15    8   19 1
  16    9   10 am
  17    9   22 1
  18   10   12 2
  19   11   14 1
  20   13   15 ar
  21   13   14 ar
  22   13   28 1
  23   14   18 ar
  24   15   16 ar
  25   15   29 1
  26   16   17 ar
  27   16   30 1
  28   17   18 ar
  29   17   31 1
  30   19   20 1
  31   19   32 1
  32   19   33 1
  33   20   21 1
  34   20   34 1
  35   20   35 1
  36   21   22 1
  37   21   23 1
  38   21   24 1
  39   22   36 1
  40   22   37 1
  41   23   38 1
  42   23   39 1
  43   23   40 1
  44   24   41 1
  45   24   42 1
  46   24   43 1

#	End of record

