#	Name: ASD03090338
#	Creating user name:	WinNT
#	Creation time:	15. 06. 2019 20:28

#	Modifying user name:	WinNT
#	Modification time:	15. 06. 2019 20:28

#	Program:	/corina/corina34_cracker 3.40 0067  02.08.2006

@<TRIPOS>MOLECULE
ASD03090338
  54   57    0    0    0
SMALL
NO_CHARGES


@<TRIPOS>ATOM
   1 C1            -0.5723     0.8351     0.7871 C.ar    
   2 N2            -1.6825     1.0700     1.4712 N.ar    
   3 C3            -2.7763     0.3606     1.2831 C.ar    
   4 C4            -2.8015    -0.6723     0.3471 C.ar    
   5 C5            -1.6443    -0.9476    -0.3939 C.ar    
   6 C6            -0.5221    -0.1762    -0.1690 C.ar    
   7 C7            -4.0314    -1.4664     0.1396 C.2     
   8 N8            -7.4901    -2.0466     0.3860 N.pl3   
   9 C9            -8.0822    -0.9101     0.9502 C.ar    
  10 C10           -7.2879     0.1260     1.4211 C.ar    
  11 C11           -7.8752     1.2481     1.9783 C.ar    
  12 C12           -9.2557     1.3377     2.0664 C.ar    
  13 C13          -10.0498     0.3051     1.5971 C.ar    
  14 C14           -9.4672    -0.8155     1.0343 C.ar    
  15 N15           -5.2501    -1.1185     0.5034 N.2     
  16 C16           -6.1132    -2.0756     0.1571 C.2     
  17 N17           -5.4592    -3.0491    -0.4330 N.2     
  18 N18           -4.1060    -2.6750    -0.4621 N.pl3   
  19 C19           -2.9942    -3.4459    -1.0241 C.3     
  20 C20           -2.8702    -3.1462    -2.5193 C.3     
  21 C21           -1.7265    -3.9392    -3.0974 C.2     
  22 N22           -1.4280    -3.8342    -4.4075 N.am    
  23 C23           -0.3161    -4.6050    -4.9695 C.3     
  24 O24           -1.0747    -4.6718    -2.3838 O.2     
  25 C25           -2.2153    -2.9492    -5.2696 C.3     
  26 F26           -9.8271     2.4340     2.6112 F       
  27 F27          -10.2426    -1.8226     0.5763 F       
  28 F28           -7.1025     2.2569     2.4373 F       
  29 N29            0.5542     1.6111     1.0225 N.pl3   
  30 C30            1.8204     1.2836     0.3623 C.3     
  31 C31            2.8008     2.4300     0.1063 C.3     
  32 C32            3.1001     1.3957     1.1934 C.3     
  33 H33           -3.6624     0.5811     1.8598 H       
  34 H34           -1.6321    -1.7415    -1.1260 H       
  35 H35            0.3869    -0.3601    -0.7223 H       
  36 H36           -8.0365    -2.8137     0.1541 H       
  37 H37           -6.2124     0.0563     1.3530 H       
  38 H38          -11.1252     0.3769     1.6667 H       
  39 H39           -2.0684    -3.1686    -0.5200 H       
  40 H40           -3.1811    -4.5102    -0.8811 H       
  41 H41           -3.7960    -3.4235    -3.0234 H       
  42 H42           -2.6834    -2.0819    -2.6623 H       
  43 H43           -0.6828    -5.5708    -5.3173 H       
  44 H44            0.1185    -4.0585    -5.8064 H       
  45 H45            0.4431    -4.7593    -4.2028 H       
  46 H46           -2.9923    -2.4637    -4.6790 H       
  47 H47           -1.5634    -2.1919    -5.7050 H       
  48 H48           -2.6760    -3.5335    -6.0661 H       
  49 H49            0.5031     2.3703     1.6241 H       
  50 H50            1.7709     0.4882    -0.3813 H       
  51 H51            3.3966     2.3885    -0.8055 H       
  52 H52            2.5038     3.4278     0.4291 H       
  53 H53            2.9999     1.7132     2.2313 H       
  54 H54            3.8927     0.6739     0.9968 H       
@<TRIPOS>BOND
   1    1    2 ar
   2    1   29 1
   3    1    6 ar
   4    2    3 ar
   5    3    4 ar
   6    3   33 1
   7    4    5 ar
   8    4    7 1
   9    5    6 ar
  10    5   34 1
  11    6   35 1
  12    7   15 2
  13    7   18 1
  14    8    9 1
  15    8   16 1
  16    8   36 1
  17    9   10 ar
  18    9   14 ar
  19   10   11 ar
  20   10   37 1
  21   11   12 ar
  22   11   28 1
  23   12   13 ar
  24   12   26 1
  25   13   14 ar
  26   13   38 1
  27   14   27 1
  28   15   16 1
  29   16   17 2
  30   17   18 1
  31   18   19 1
  32   19   20 1
  33   19   39 1
  34   19   40 1
  35   20   21 1
  36   20   41 1
  37   20   42 1
  38   21   22 am
  39   21   24 2
  40   22   23 1
  41   22   25 1
  42   23   43 1
  43   23   44 1
  44   23   45 1
  45   25   46 1
  46   25   47 1
  47   25   48 1
  48   29   30 1
  49   29   49 1
  50   30   31 1
  51   30   32 1
  52   30   50 1
  53   31   32 1
  54   31   51 1
  55   31   52 1
  56   32   53 1
  57   32   54 1

#	End of record

