#	Name: ASD01148894
#	Creating user name:	WinNT
#	Creation time:	15. 06. 2019 19:03

#	Modifying user name:	WinNT
#	Modification time:	15. 06. 2019 19:03

#	Program:	/corina/corina34_cracker 3.40 0067  02.08.2006

@<TRIPOS>MOLECULE
ASD01148894
  38   40    0    0    0
SMALL
NO_CHARGES


@<TRIPOS>ATOM
   1 C1            -0.9981     0.9675    -0.4321 C.ar    
   2 C2            -0.6773    -0.3714    -0.3193 C.ar    
   3 C3             0.6527    -0.7606    -0.2374 C.ar    
   4 C4             1.6569     0.1980    -0.2691 C.ar    
   5 C5             1.3299     1.5350    -0.3820 C.ar    
   6 C6             0.0039     1.9196    -0.4634 C.ar    
   7 S7            -2.6856     1.4618    -0.5435 S.o2    
   8 O8            -2.6907     2.7305    -1.1836 O.2     
   9 O9            -3.4010     0.3385    -1.0391 O.2     
  10 N10           -3.2252     1.7153     1.0014 N.am    
  11 N11            0.9813    -2.1180    -0.1225 N.pl3   
  12 C12            1.6204    -2.8719    -1.0760 C.2     
  13 C13            1.7554    -4.1367    -0.5876 C.2     
  14 C14            1.1842    -4.1542     0.6959 C.2     
  15 C15            0.7249    -2.9117     0.9588 C.2     
  16 C16            0.0417    -2.4757     2.2293 C.3     
  17 C17            2.0800    -2.3958    -2.3980 C.ar    
  18 C18            3.0683    -3.0973    -3.0903 C.ar    
  19 C19            3.4935    -2.6487    -4.3234 C.ar    
  20 C20            2.9416    -1.5035    -4.8748 C.ar    
  21 C21            1.9601    -0.8031    -4.1918 C.ar    
  22 C22            1.5232    -1.2464    -2.9609 C.ar    
  23 F23            3.3622    -1.0678    -6.0825 F       
  24 H24           -1.4605    -1.1147    -0.2946 H       
  25 H25            2.6925    -0.1016    -0.2052 H       
  26 H26            2.1105     2.2810    -0.4067 H       
  27 H27           -0.2493     2.9657    -0.5516 H       
  28 H28           -2.6258     1.5827     1.7524 H       
  29 H29           -4.1407     1.9965     1.1554 H       
  30 H30            2.2165    -4.9718    -1.0937 H       
  31 H31            1.1268    -5.0072     1.3558 H       
  32 H32           -1.0338    -2.6248     2.1331 H       
  33 H33            0.4171    -3.0665     3.0649 H       
  34 H34            0.2476    -1.4205     2.4089 H       
  35 H35            3.4997    -3.9896    -2.6611 H       
  36 H36            4.2581    -3.1907    -4.8599 H       
  37 H37            1.5335     0.0890    -4.6260 H       
  38 H38            0.7550    -0.7024    -2.4314 H       
@<TRIPOS>BOND
   1    1    2 ar
   2    1    6 ar
   3    1    7 1
   4    2    3 ar
   5    2   24 1
   6    3    4 ar
   7    3   11 1
   8    4    5 ar
   9    4   25 1
  10    5    6 ar
  11    5   26 1
  12    6   27 1
  13    7    8 2
  14    7    9 2
  15    7   10 am
  16   10   28 1
  17   10   29 1
  18   11   12 1
  19   11   15 1
  20   12   13 2
  21   12   17 1
  22   13   14 1
  23   13   30 1
  24   14   15 2
  25   14   31 1
  26   15   16 1
  27   16   32 1
  28   16   33 1
  29   16   34 1
  30   17   18 ar
  31   17   22 ar
  32   18   19 ar
  33   18   35 1
  34   19   20 ar
  35   19   36 1
  36   20   21 ar
  37   20   23 1
  38   21   22 ar
  39   21   37 1
  40   22   38 1

#	End of record

