#	Name: ASD01914811
#	Creating user name:	WinNT
#	Creation time:	15. 06. 2019 20:04

#	Modifying user name:	WinNT
#	Modification time:	15. 06. 2019 20:04

#	Program:	/corina/corina34_cracker 3.40 0067  02.08.2006

@<TRIPOS>MOLECULE
ASD01914811
  41   42    0    0    0
SMALL
NO_CHARGES


@<TRIPOS>ATOM
   1 C1             0.0709     1.4595     1.2034 C.ar    
   2 C2            -0.3177     0.2588     1.7936 C.ar    
   3 C3             0.4886    -0.2964     2.7905 C.ar    
   4 C4             1.6448     0.3753     3.1498 C.ar    
   5 C5             1.9616     1.5629     2.5164 C.ar    
   6 N6             1.1803     2.0626     1.5782 N.ar    
   7 O7            -2.8528    -1.9357     0.7490 O.3     
   8 N8            -1.7099    -1.6821     1.0515 N.2     
   9 C9            -1.5683    -0.4195     1.3704 C.2     
  10 C10           -2.8555     0.1704     1.2298 C.2     
  11 C11           -3.6411    -0.8541     0.8275 C.2     
  12 Si12          -5.4695    -0.7771     0.4528 Si      
  13 C13           -5.9238    -2.1596    -0.7105 C.3     
  14 C14           -6.4358    -0.9546     2.0357 C.3     
  15 C15           -5.8724     0.8596    -0.3406 C.3     
  16 Si16          -3.3463     1.9473     1.5318 Si      
  17 C17           -3.4557     2.8466    -0.0960 C.3     
  18 C18           -5.0034     1.9979     2.3819 C.3     
  19 C19           -2.0695     2.7694     2.6109 C.3     
  20 H20           -0.5406     1.8974     0.4284 H       
  21 H21            0.2167    -1.2256     3.2689 H       
  22 H22            2.2920    -0.0238     3.9167 H       
  23 H23            2.8626     2.0896     2.7941 H       
  24 H24           -5.6881    -3.1173    -0.2463 H       
  25 H25           -6.9907    -2.1147    -0.9291 H       
  26 H26           -5.3584    -2.0558    -1.6366 H       
  27 H27           -6.1483    -0.1630     2.7276 H       
  28 H28           -7.5018    -0.8800     1.8209 H       
  29 H29           -6.2227    -1.9247     2.4846 H       
  30 H30           -5.3071     0.9635    -1.2667 H       
  31 H31           -6.9393     0.9046    -0.5592 H       
  32 H32           -5.6066     1.6685     0.3400 H       
  33 H33           -4.2028     2.3656    -0.7274 H       
  34 H34           -3.7422     3.8834     0.0802 H       
  35 H35           -2.4863     2.8170    -0.5934 H       
  36 H36           -4.8983     1.6357     3.4046 H       
  37 H37           -5.3735     3.0230     2.3956 H       
  38 H38           -5.7078     1.3644     1.8427 H       
  39 H39           -1.1487     2.9068     2.0440 H       
  40 H40           -2.4419     3.7396     2.9397 H       
  41 H41           -1.8707     2.1429     3.4804 H       
@<TRIPOS>BOND
   1    1    2 ar
   2    1    6 ar
   3    1   20 1
   4    2    3 ar
   5    2    9 1
   6    3    4 ar
   7    3   21 1
   8    4    5 ar
   9    4   22 1
  10    5    6 ar
  11    5   23 1
  12    7    8 1
  13    7   11 1
  14    8    9 2
  15    9   10 1
  16   10   11 2
  17   10   16 1
  18   11   12 1
  19   12   13 1
  20   12   14 1
  21   12   15 1
  22   13   24 1
  23   13   25 1
  24   13   26 1
  25   14   27 1
  26   14   28 1
  27   14   29 1
  28   15   30 1
  29   15   31 1
  30   15   32 1
  31   16   17 1
  32   16   18 1
  33   16   19 1
  34   17   33 1
  35   17   34 1
  36   17   35 1
  37   18   36 1
  38   18   37 1
  39   18   38 1
  40   19   39 1
  41   19   40 1
  42   19   41 1

#	End of record

