#	Name: ASD00100145
#	Creating user name:	WinNT
#	Creation time:	15. 06. 2019 18:30

#	Modifying user name:	WinNT
#	Modification time:	15. 06. 2019 18:30

#	Program:	/corina/corina34_cracker 3.40 0067  02.08.2006

@<TRIPOS>MOLECULE
ASD00100145
  49   52    0    0    0
SMALL
NO_CHARGES


@<TRIPOS>ATOM
   1 C1            -0.4248     1.7197    -0.7389 C.2     
   2 N2            -0.1377     0.4412    -0.7748 N.2     
   3 C3             1.2060     0.2902    -0.8845 C.2     
   4 C4             1.7632     1.5259    -0.9169 C.2     
   5 N5             0.7323     2.4305    -0.8249 N.pl3   
   6 N6            -1.6962     2.2580    -0.6364 N.pl3   
   7 C7             1.9366    -0.9990    -0.9558 C.ar    
   8 C8             1.2351    -2.2027    -0.9115 C.ar    
   9 C9             1.9171    -3.3996    -0.9784 C.ar    
  10 C10            3.3009    -3.4064    -1.0899 C.ar    
  11 C11            4.0025    -2.2091    -1.1338 C.ar    
  12 C12            3.3256    -1.0089    -1.0730 C.ar    
  13 O13            3.9701    -4.5872    -1.1557 O.3     
  14 C14            4.6876    -4.9753    -0.0689 C.ar    
  15 C15            4.6985    -4.1883     1.0739 C.ar    
  16 C16            5.4287    -4.5851     2.1773 C.ar    
  17 C17            6.1488    -5.7650     2.1435 C.ar    
  18 C18            6.1401    -6.5508     1.0058 C.ar    
  19 C19            5.4062    -6.1620    -0.0980 C.ar    
  20 C20            0.8565     3.8903    -0.8206 C.3     
  21 C21            0.8667     4.3894     0.6013 C.ar    
  22 C22            2.0313     4.3220     1.3525 C.ar    
  23 C23            2.0374     4.7822     2.6610 C.ar    
  24 C24            0.8844     5.3065     3.2131 C.ar    
  25 C25           -0.2748     5.3721     2.4627 C.ar    
  26 C26           -0.2819     4.9196     1.1559 C.ar    
  27 O27            3.1639     3.8055     0.8074 O.3     
  28 C28            4.3253     3.7675     1.6392 C.3     
  29 H29            2.8153     1.7555    -0.9986 H       
  30 H30           -2.4717     1.6755    -0.6456 H       
  31 H31           -1.8114     3.2177    -0.5554 H       
  32 H32            0.1586    -2.1980    -0.8244 H       
  33 H33            1.3741    -4.3325    -0.9438 H       
  34 H34            5.0790    -2.2175    -1.2201 H       
  35 H35            3.8715    -0.0779    -1.1118 H       
  36 H36            4.1367    -3.2663     1.1006 H       
  37 H37            5.4375    -3.9730     3.0670 H       
  38 H38            6.7194    -6.0732     3.0071 H       
  39 H39            6.7037    -7.4718     0.9818 H       
  40 H40            5.3958    -6.7785    -0.9847 H       
  41 H41            1.7855     4.1773    -1.3131 H       
  42 H42            0.0124     4.3282    -1.3534 H       
  43 H43            2.9425     4.7305     3.2479 H       
  44 H44            0.8886     5.6649     4.2319 H       
  45 H45           -1.1752     5.7816     2.8962 H       
  46 H46           -1.1874     4.9764     0.5702 H       
  47 H47            4.1211     3.1598     2.5207 H       
  48 H48            5.1563     3.3335     1.0832 H       
  49 H49            4.5843     4.7802     1.9480 H       
@<TRIPOS>BOND
   1    1    2 2
   2    1    5 1
   3    1    6 1
   4    2    3 1
   5    3    4 2
   6    3    7 1
   7    4    5 1
   8    4   29 1
   9    5   20 1
  10    6   30 1
  11    6   31 1
  12    7    8 ar
  13    7   12 ar
  14    8    9 ar
  15    8   32 1
  16    9   10 ar
  17    9   33 1
  18   10   11 ar
  19   10   13 1
  20   11   12 ar
  21   11   34 1
  22   12   35 1
  23   13   14 1
  24   14   15 ar
  25   14   19 ar
  26   15   16 ar
  27   15   36 1
  28   16   17 ar
  29   16   37 1
  30   17   18 ar
  31   17   38 1
  32   18   19 ar
  33   18   39 1
  34   19   40 1
  35   20   21 1
  36   20   41 1
  37   20   42 1
  38   21   22 ar
  39   21   26 ar
  40   22   23 ar
  41   22   27 1
  42   23   24 ar
  43   23   43 1
  44   24   25 ar
  45   24   44 1
  46   25   26 ar
  47   25   45 1
  48   26   46 1
  49   27   28 1
  50   28   47 1
  51   28   48 1
  52   28   49 1

#	End of record

