#	Name: ASD01152546
#	Creating user name:	WinNT
#	Creation time:	15. 06. 2019 19:06

#	Modifying user name:	WinNT
#	Modification time:	15. 06. 2019 19:06

#	Program:	/corina/corina34_cracker 3.40 0067  02.08.2006

@<TRIPOS>MOLECULE
ASD01152546
  55   57    0    0    0
SMALL
NO_CHARGES


@<TRIPOS>ATOM
   1 C1             0.1112     1.1571    -0.6957 C.2     
   2 N2             0.0188    -0.1436    -0.6173 N.2     
   3 N3            -1.1206    -0.7661    -0.1079 N.am    
   4 C4            -2.2616    -0.0993     0.1331 C.2     
   5 C5            -2.3925     1.3536    -0.2590 C.3     
   6 C6            -1.0086     1.9736    -0.2033 C.2     
   7 C7            -2.9558     1.4586    -1.6777 C.3     
   8 O8            -0.8360     3.0970     0.2227 O.2     
   9 C9            -1.0735    -2.1389     0.1624 C.ar    
  10 O10           -3.1908    -0.6664     0.6673 O.2     
  11 C11           -3.1986     2.9070    -2.0158 C.ar    
  12 C12           -0.0102    -2.6693     0.8797 C.ar    
  13 C13           -2.0939    -2.9703    -0.2824 C.ar    
  14 C14           -2.0490    -4.3252    -0.0160 C.ar    
  15 C15           -0.9884    -4.8582     0.6946 C.ar    
  16 C16            0.0334    -4.0297     1.1463 C.ar    
  17 C17           -2.1982     3.6555    -2.6058 C.ar    
  18 C18           -4.4243     3.4848    -1.7407 C.ar    
  19 C19           -4.6487     4.8129    -2.0511 C.ar    
  20 C20           -2.4218     4.9863    -2.9168 C.ar    
  21 F21           -0.9477    -6.1834     0.9543 F       
  22 C22           -3.6478     5.5650    -2.6365 C.ar    
  23 C23           -3.8930     7.0129    -2.9753 C.3     
  24 F24           -1.4445     5.7191    -3.4942 F       
  25 C25           -5.0575     7.1155    -3.9623 C.3     
  26 C26           -4.2364     7.7841    -1.6993 C.3     
  27 O27            1.2211     1.7436    -1.2161 O.3     
  28 C28            2.2636     0.8755    -1.6652 C.3     
  29 N29            1.1045    -4.5683     1.8702 N.am    
  30 C30            1.7680    -3.8044     2.7605 C.2     
  31 O31            1.4983    -2.6269     2.8693 O.2     
  32 C32            2.8451    -4.4133     3.6209 C.3     
  33 H33           -3.0531     1.8665     0.4400 H       
  34 H34           -2.2419     1.0353    -2.3843 H       
  35 H35           -3.8953     0.9092    -1.7372 H       
  36 H36            0.7820    -2.0238     1.2294 H       
  37 H37           -2.9234    -2.5568    -0.8367 H       
  38 H38           -2.8435    -4.9693    -0.3628 H       
  39 H39           -1.2422     3.2030    -2.8241 H       
  40 H40           -5.2070     2.8978    -1.2833 H       
  41 H41           -5.6067     5.2629    -1.8364 H       
  42 H42           -2.9960     7.4374    -3.4262 H       
  43 H43           -5.9545     6.6909    -3.5114 H       
  44 H44           -5.2349     8.1627    -4.2073 H       
  45 H45           -4.8129     6.5661    -4.8713 H       
  46 H46           -3.4067     7.7110    -0.9962 H       
  47 H47           -4.4137     8.8313    -1.9444 H       
  48 H48           -5.1333     7.3595    -1.2484 H       
  49 H49            3.0887     1.4706    -2.0565 H       
  50 H50            2.6165     0.2695    -0.8307 H       
  51 H51            1.8808     0.2241    -2.4508 H       
  52 H52            1.3688    -5.4911     1.7308 H       
  53 H53            3.6315    -4.8199     2.9850 H       
  54 H54            3.2649    -3.6478     4.2734 H       
  55 H55            2.4178    -5.2126     4.2264 H       
@<TRIPOS>BOND
   1    1    2 2
   2    1   27 1
   3    1    6 1
   4    2    3 1
   5    3    4 am
   6    3    9 1
   7    4    5 1
   8    4   10 2
   9    5    6 1
  10    5    7 1
  11    5   33 1
  12    6    8 2
  13    7   11 1
  14    7   34 1
  15    7   35 1
  16    9   12 ar
  17    9   13 ar
  18   11   17 ar
  19   11   18 ar
  20   12   16 ar
  21   12   36 1
  22   13   14 ar
  23   13   37 1
  24   14   15 ar
  25   14   38 1
  26   15   16 ar
  27   15   21 1
  28   16   29 1
  29   17   20 ar
  30   17   39 1
  31   18   19 ar
  32   18   40 1
  33   19   22 ar
  34   19   41 1
  35   20   22 ar
  36   20   24 1
  37   22   23 1
  38   23   25 1
  39   23   26 1
  40   23   42 1
  41   25   43 1
  42   25   44 1
  43   25   45 1
  44   26   46 1
  45   26   47 1
  46   26   48 1
  47   27   28 1
  48   28   49 1
  49   28   50 1
  50   28   51 1
  51   29   30 am
  52   29   52 1
  53   30   31 2
  54   30   32 1
  55   32   53 1
  56   32   54 1
  57   32   55 1

#	End of record

