#	Name: ASD01810512
#	Creating user name:	WinNT
#	Creation time:	15. 06. 2019 19:24

#	Modifying user name:	WinNT
#	Modification time:	15. 06. 2019 19:24

#	Program:	/corina/corina34_cracker 3.40 0067  02.08.2006

@<TRIPOS>MOLECULE
ASD01810512
  82   86    0    0    0
SMALL
NO_CHARGES


@<TRIPOS>ATOM
   1 N1             0.0526     1.4630     0.5085 N.3     
   2 N2            -5.5601    -8.1809     1.0132 N.am    
   3 C3            -5.4686    -8.8733     2.1451 C.2     
   4 C4            -5.6465    -8.9314    -0.2399 C.3     
   5 S5            -5.0869   -10.6138     0.2235 S.3     
   6 C6            -5.4586   -10.3837     2.0109 C.3     
   7 C7            -7.0801    -8.9883    -0.7519 C.3     
   8 C8            -7.5147    -7.5893    -1.1991 C.3     
   9 N9            -6.5987    -7.1018    -2.2383 N.3     
  10 C10           -5.2287    -6.9738    -1.7250 C.3     
  11 C11           -4.7143    -8.3514    -1.2960 C.3     
  12 O12           -5.3965    -8.3266     3.2253 O.2     
  13 C13           -4.3600   -11.0000     2.8794 C.3     
  14 C14           -4.3658   -12.5202     2.7063 C.3     
  15 C15            1.4121     2.0071     0.6179 C.3     
  16 C16            1.3435     3.5284     0.7698 C.3     
  17 C17            0.6307     4.1262    -0.4465 C.3     
  18 C18           -0.7647     3.5072    -0.5657 C.3     
  19 C19           -0.6349     1.9865    -0.6788 C.3     
  20 N20            0.5103     5.5766    -0.2794 N.am    
  21 C21            1.0431     6.5422    -1.1301 C.ar    
  22 C22           -0.1394     6.2034     0.7195 C.2     
  23 N23           -0.0459     7.5364     0.5549 N.am    
  24 C24            0.6922     7.7852    -0.5998 C.ar    
  25 C25            1.0926     8.9476    -1.2412 C.ar    
  26 C26            1.8371     8.8707    -2.4018 C.ar    
  27 C27            2.1849     7.6382    -2.9278 C.ar    
  28 C28            1.7885     6.4751    -2.2974 C.ar    
  29 O29           -0.7225     5.6492     1.6326 O.2     
  30 C30            0.0725    -0.0059     0.5004 C.3     
  31 C31           -1.3562    -0.5360     0.6369 C.3     
  32 C32           -1.3354    -2.0659     0.6285 C.3     
  33 C33           -2.7641    -2.5961     0.7651 C.3     
  34 C34           -2.7434    -4.1259     0.7566 C.3     
  35 C35           -4.1721    -4.6561     0.8932 C.3     
  36 C36           -4.1513    -6.1859     0.8848 C.3     
  37 C37           -5.5800    -6.7161     1.0213 C.3     
  38 H38           -6.4334   -10.8022     2.2615 H       
  39 H39           -7.1377    -9.6745    -1.5968 H       
  40 H40           -7.7375    -9.3360     0.0450 H       
  41 H41           -8.5276    -7.6339    -1.5993 H       
  42 H42           -7.4904    -6.9112    -0.3461 H       
  43 H43           -6.6257    -7.6972    -3.0524 H       
  44 H44           -4.5837    -6.5723    -2.5066 H       
  45 H45           -5.2232    -6.3007    -0.8677 H       
  46 H46           -3.7113    -8.2520    -0.8808 H       
  47 H47           -4.6865    -9.0147    -2.1605 H       
  48 H48           -3.3913   -10.6034     2.5754 H       
  49 H49           -4.5420   -10.7527     3.9252 H       
  50 H50           -4.1838   -12.7675     1.6605 H       
  51 H51           -3.5831   -12.9593     3.3250 H       
  52 H52           -5.3345   -12.9168     3.0102 H       
  53 H53            1.9064     1.5772     1.4891 H       
  54 H54            1.9769     1.7569    -0.2802 H       
  55 H55            0.7907     3.7792     1.6751 H       
  56 H56            2.3532     3.9335     0.8353 H       
  57 H57            1.2039     3.9088    -1.3478 H       
  58 H58           -1.3506     3.7576     0.3186 H       
  59 H59           -1.2611     3.8971    -1.4543 H       
  60 H60           -0.0606     1.7364    -1.5708 H       
  61 H61           -1.6274     1.5415    -0.7495 H       
  62 H62           -0.4295     8.2088     1.1394 H       
  63 H63            0.8226     9.9108    -0.8342 H       
  64 H64            2.1490     9.7759    -2.9015 H       
  65 H65            2.7670     7.5860    -3.8360 H       
  66 H66            2.0617     5.5154    -2.7107 H       
  67 H67            0.5028    -0.3582    -0.4370 H       
  68 H68            0.6749    -0.3656     1.3346 H       
  69 H69           -1.7864    -0.1837     1.5744 H       
  70 H70           -1.9585    -0.1762    -0.1972 H       
  71 H71           -0.9051    -2.4183    -0.3089 H       
  72 H72           -0.7331    -2.4257     1.4627 H       
  73 H73           -3.1944    -2.2437     1.7025 H       
  74 H74           -3.3664    -2.2363    -0.0691 H       
  75 H75           -2.3131    -4.4783    -0.1808 H       
  76 H76           -2.1410    -4.4857     1.5908 H       
  77 H77           -4.6023    -4.3037     1.8306 H       
  78 H78           -4.7744    -4.2963     0.0590 H       
  79 H79           -3.7210    -6.5383    -0.0527 H       
  80 H80           -3.5490    -6.5457     1.7189 H       
  81 H81           -6.1823    -6.3563     0.1871 H       
  82 H82           -6.0103    -6.3637     1.9587 H       
@<TRIPOS>BOND
   1    1   30 1
   2    1   15 1
   3    1   19 1
   4    2   37 1
   5    2    3 am
   6    2    4 1
   7    3   12 2
   8    3    6 1
   9    4    5 1
  10    4    7 1
  11    4   11 1
  12    5    6 1
  13    6   13 1
  14    6   38 1
  15    7    8 1
  16    7   39 1
  17    7   40 1
  18    8    9 1
  19    8   41 1
  20    8   42 1
  21    9   10 1
  22    9   43 1
  23   10   11 1
  24   10   44 1
  25   10   45 1
  26   11   46 1
  27   11   47 1
  28   13   14 1
  29   13   48 1
  30   13   49 1
  31   14   50 1
  32   14   51 1
  33   14   52 1
  34   15   16 1
  35   15   53 1
  36   15   54 1
  37   16   17 1
  38   16   55 1
  39   16   56 1
  40   17   18 1
  41   17   20 1
  42   17   57 1
  43   18   19 1
  44   18   58 1
  45   18   59 1
  46   19   60 1
  47   19   61 1
  48   20   21 1
  49   20   22 am
  50   21   24 ar
  51   21   28 ar
  52   22   23 am
  53   22   29 2
  54   23   24 1
  55   23   62 1
  56   24   25 ar
  57   25   26 ar
  58   25   63 1
  59   26   27 ar
  60   26   64 1
  61   27   28 ar
  62   27   65 1
  63   28   66 1
  64   30   31 1
  65   30   67 1
  66   30   68 1
  67   31   32 1
  68   31   69 1
  69   31   70 1
  70   32   33 1
  71   32   71 1
  72   32   72 1
  73   33   34 1
  74   33   73 1
  75   33   74 1
  76   34   35 1
  77   34   75 1
  78   34   76 1
  79   35   36 1
  80   35   77 1
  81   35   78 1
  82   36   37 1
  83   36   79 1
  84   36   80 1
  85   37   81 1
  86   37   82 1

#	End of record

