#	Name: ASD01900435
#	Creating user name:	WinNT
#	Creation time:	15. 06. 2019 19:51

#	Modifying user name:	WinNT
#	Modification time:	15. 06. 2019 19:51

#	Program:	/corina/corina34_cracker 3.40 0067  02.08.2006

@<TRIPOS>MOLECULE
ASD01900435
  26   28    0    0    0
SMALL
NO_CHARGES


@<TRIPOS>ATOM
   1 C1            -0.0263     1.3949     0.1276 C.ar    
   2 C2             0.0063     0.0001    -0.0616 C.ar    
   3 C3             1.2233    -0.6705     0.0548 C.ar    
   4 C4             2.3510     0.0690     0.3526 C.ar    
   5 C5             2.2453     1.4428     0.5262 C.ar    
   6 N6             1.0909     2.0594     0.4134 N.ar    
   7 N7            -2.1144     0.7218    -0.3260 N.2     
   8 N8            -1.2753    -0.3972    -0.3377 N.pl3   
   9 C9            -1.4236     1.7964    -0.0518 C.2     
  10 N10           -1.9266     3.0975     0.0454 N.pl3   
  11 C11           -3.3031     3.3226    -0.0400 C.ar    
  12 C12           -4.1956     2.3413     0.3729 C.ar    
  13 C13           -5.5562     2.5671     0.2876 C.ar    
  14 C14           -6.0297     3.7705    -0.2090 C.ar    
  15 C15           -5.1424     4.7488    -0.6206 C.ar    
  16 C16           -3.7813     4.5302    -0.5325 C.ar    
  17 Cl17          -7.7396     4.0512    -0.3155 Cl      
  18 Cl18          -6.6729     1.3416     0.8026 Cl      
  19 H19            1.2824    -1.7400    -0.0839 H       
  20 H20            3.3097    -0.4185     0.4504 H       
  21 H21            3.1305     2.0161     0.7590 H       
  22 H22           -1.5560    -1.3089    -0.5133 H       
  23 H23           -1.3201     3.8438     0.1722 H       
  24 H24           -3.8265     1.4030     0.7597 H       
  25 H25           -5.5143     5.6859    -1.0077 H       
  26 H26           -3.0894     5.2963    -0.8500 H       
@<TRIPOS>BOND
   1    1    2 ar
   2    1    6 ar
   3    1    9 1
   4    2    3 ar
   5    2    8 1
   6    3    4 ar
   7    3   19 1
   8    4    5 ar
   9    4   20 1
  10    5    6 ar
  11    5   21 1
  12    7    8 1
  13    7    9 2
  14    8   22 1
  15    9   10 1
  16   10   11 1
  17   10   23 1
  18   11   12 ar
  19   11   16 ar
  20   12   13 ar
  21   12   24 1
  22   13   14 ar
  23   13   18 1
  24   14   15 ar
  25   14   17 1
  26   15   16 ar
  27   15   25 1
  28   16   26 1

#	End of record

