#	Name: ASD05430217
#	Creating user name:	WinNT
#	Creation time:	15. 06. 2019 21:00

#	Modifying user name:	WinNT
#	Modification time:	15. 06. 2019 21:00

#	Program:	/corina/corina34_cracker 3.40 0067  02.08.2006

@<TRIPOS>MOLECULE
ASD05430217
  82   88    0    0    0
SMALL
NO_CHARGES


@<TRIPOS>ATOM
   1 C1            -0.2690     2.4787     1.1539 C.ar    
   2 C2            -0.4808     1.1557     0.8416 C.ar    
   3 C3             0.5776     0.3645     0.3999 C.ar    
   4 C4             1.8270     0.9327     0.2847 C.ar    
   5 C5             2.0330     2.2739     0.5915 C.ar    
   6 C6             0.9662     3.0972     1.0317 C.ar    
   7 O7             4.3374     0.6868     0.6005 O.3     
   8 C8             4.4594     2.0361     0.4173 C.2     
   9 C9             3.3815     2.8477     0.4571 C.2     
  10 C10            5.5255    -0.0182     0.9748 C.3     
  11 C11            6.5931     0.8124     1.6990 C.3     
  12 N12            6.8617     2.0100     0.9001 N.pl3   
  13 C13            5.8143     2.5740     0.1746 C.2     
  14 N14           -1.7622     0.6032     0.9683 N.pl3   
  15 C15           -2.8890     1.0236     0.3366 C.2     
  16 C16           -2.1145    -0.4676     1.7488 C.2     
  17 C17           -3.4357    -0.6600     1.5733 C.2     
  18 N18           -3.8821     0.2624     0.7079 N.2     
  19 C19           -4.2681    -1.7296     2.2323 C.3     
  20 C20           -0.0705     5.1008     2.2652 C.3     
  21 Si21          -1.4074     3.8322     1.8192 Si      
  22 C22            5.3752    -1.4829     1.3889 C.3     
  23 C23            6.0109    -1.1291     0.0428 C.3     
  24 C24            8.1812     2.6377     0.8563 C.3     
  25 C25            8.4167     3.1700    -0.5614 C.3     
  26 O26            7.3292     3.9992    -0.9579 O.3     
  27 N27            6.0350     3.5137    -0.6850 N.2     
  28 C28            8.2343     3.7768     1.8414 C.ar    
  29 C29            7.1743     4.0123     2.6968 C.ar    
  30 C30            9.3491     4.5984     1.9052 C.ar    
  31 C31            9.3537     5.6342     2.8271 C.ar    
  32 C32            8.2548     5.8120     3.6458 C.ar    
  33 N33            7.2135     5.0071     3.5614 N.ar    
  34 C34            9.2550     1.6046     1.2038 C.3     
  35 C35            9.2763     0.5114     0.1336 C.3     
  36 S36           10.5126    -0.7411     0.5733 S.o2    
  37 C37           10.3665    -1.9117    -0.8048 C.3     
  38 O38           11.8005    -0.1427     0.5244 O.2     
  39 O39           10.0943    -1.3911     1.7657 O.2     
  40 C40            1.0576     4.5682     1.3477 C.3     
  41 C41           -2.5555     4.4761     0.5008 C.3     
  42 C42           -2.3470     3.2638     3.3241 C.3     
  43 C43            8.2492     6.9342     4.6516 C.3     
  44 F44            7.7083     8.0834     4.0652 F       
  45 F45            7.4746     6.5659     5.7568 F       
  46 F46            9.5595     7.1950     5.0667 F       
  47 H47            0.4213    -0.6752     0.1528 H       
  48 H48            2.6581     0.3286    -0.0479 H       
  49 H49            3.5087     3.9181     0.3904 H       
  50 H50            6.2278     1.1020     2.6843 H       
  51 H51            7.5067     0.2269     1.8025 H       
  52 H52           -2.9524     1.8495    -0.3564 H       
  53 H53           -1.4584    -1.0457     2.3826 H       
  54 H54           -4.6654    -1.3519     3.1744 H       
  55 H55           -5.0926    -2.0050     1.5747 H       
  56 H56           -3.6484    -2.6055     2.4243 H       
  57 H57           -0.3686     6.1123     1.9894 H       
  58 H58            0.2056     5.0400     3.3179 H       
  59 H59            6.0336    -1.8540     2.1744 H       
  60 H60            4.3723    -1.9094     1.3753 H       
  61 H61            5.4261    -1.3230    -0.8564 H       
  62 H62            7.0874    -1.2675    -0.0573 H       
  63 H63            9.3396     3.7497    -0.5814 H       
  64 H64            8.5032     2.3317    -1.2528 H       
  65 H65            6.3038     3.3744     2.6563 H       
  66 H66           10.1940     4.4353     1.2526 H       
  67 H67           10.2056     6.2936     2.9044 H       
  68 H68           10.2289     2.0925     1.2443 H       
  69 H69            9.0309     1.1597     2.1733 H       
  70 H70            8.2931     0.0451     0.0709 H       
  71 H71            9.5318     0.9515    -0.8303 H       
  72 H72           10.5900    -1.4003    -1.7411 H       
  73 H73           11.0706    -2.7314    -0.6614 H       
  74 H74            9.3513    -2.3067    -0.8399 H       
  75 H75            2.0154     4.7586     1.8319 H       
  76 H76            1.0327     5.1250     0.4110 H       
  77 H77           -1.9841     4.7033    -0.3992 H       
  78 H78           -3.3072     3.7204     0.2729 H       
  79 H79           -3.0468     5.3814     0.8574 H       
  80 H80           -2.9001     4.1032     3.7456 H       
  81 H81           -3.0440     2.4751     3.0407 H       
  82 H82           -1.6468     2.8806     4.0663 H       
@<TRIPOS>BOND
   1    1    2 ar
   2    1    6 ar
   3    1   21 1
   4    2    3 ar
   5    2   14 1
   6    3    4 ar
   7    3   47 1
   8    4    5 ar
   9    4   48 1
  10    5    6 ar
  11    5    9 1
  12    6   40 1
  13    7    8 1
  14    7   10 1
  15    8    9 2
  16    8   13 1
  17    9   49 1
  18   10   11 1
  19   10   22 1
  20   10   23 1
  21   11   12 1
  22   11   50 1
  23   11   51 1
  24   12   13 1
  25   12   24 1
  26   13   27 2
  27   14   15 1
  28   14   16 1
  29   15   18 2
  30   15   52 1
  31   16   17 2
  32   16   53 1
  33   17   18 1
  34   17   19 1
  35   19   54 1
  36   19   55 1
  37   19   56 1
  38   20   21 1
  39   20   40 1
  40   20   57 1
  41   20   58 1
  42   21   41 1
  43   21   42 1
  44   22   23 1
  45   22   59 1
  46   22   60 1
  47   23   61 1
  48   23   62 1
  49   24   25 1
  50   24   28 1
  51   24   34 1
  52   25   26 1
  53   25   63 1
  54   25   64 1
  55   26   27 1
  56   28   29 ar
  57   28   30 ar
  58   29   33 ar
  59   29   65 1
  60   30   31 ar
  61   30   66 1
  62   31   32 ar
  63   31   67 1
  64   32   33 ar
  65   32   43 1
  66   34   35 1
  67   34   68 1
  68   34   69 1
  69   35   36 1
  70   35   70 1
  71   35   71 1
  72   36   37 1
  73   36   38 2
  74   36   39 2
  75   37   72 1
  76   37   73 1
  77   37   74 1
  78   40   75 1
  79   40   76 1
  80   41   77 1
  81   41   78 1
  82   41   79 1
  83   42   80 1
  84   42   81 1
  85   42   82 1
  86   43   44 1
  87   43   45 1
  88   43   46 1

#	End of record

