#	Name: ASD03240209
#	Creating user name:	WinNT
#	Creation time:	15. 06. 2019 20:34

#	Modifying user name:	WinNT
#	Modification time:	15. 06. 2019 20:34

#	Program:	/corina/corina34_cracker 3.40 0067  02.08.2006

@<TRIPOS>MOLECULE
ASD03240209
  87   90    0    0    0
SMALL
NO_CHARGES


@<TRIPOS>ATOM
   1 C1            -0.1096     1.2234    -0.5837 C.2     
   2 N2            -0.0055    -0.0173    -0.0005 N.pl3   
   3 C3            -3.6677     2.2434    -0.0166 C.3     
   4 C4            -2.4732     1.2937     0.0938 C.3     
   5 N5            -1.3075     1.8975    -0.5565 N.pl3   
   6 N6             0.9289     1.7629    -1.1576 N.2     
   7 N7            -4.8333     1.6396     0.6337 N.pl3   
   8 C8            -6.0450     2.3214     0.6612 C.ar    
   9 C9            -7.1517     1.7463     1.2796 C.ar    
  10 C10           -8.3522     2.4184     1.3085 C.ar    
  11 C11           -8.4595     3.6803     0.7163 C.ar    
  12 C12           -7.3461     4.2553     0.0964 C.ar    
  13 C13           -6.1471     3.5801     0.0752 C.ar    
  14 C14           -9.7448     4.4032     0.7450 C.2     
  15 N15           -9.8467     5.6196     0.1736 N.am    
  16 O16          -10.7127     3.9017     1.2842 O.2     
  17 C17          -11.0917     6.2576     0.1017 C.ar    
  18 C18          -11.1719     7.6389     0.2199 C.ar    
  19 C19          -12.2451     5.5092    -0.0935 C.ar    
  20 C20          -13.4721     6.1379    -0.1649 C.ar    
  21 C21          -13.5531     7.5189    -0.0410 C.ar    
  22 C22          -12.3989     8.2678     0.1490 C.ar    
  23 N23          -14.7964     8.1561    -0.1138 N.pl3   
  24 C24          -14.8817     9.6127     0.0169 C.3     
  25 C25          -16.0131     7.3667    -0.3206 C.3     
  26 C26          -16.5817     6.9610     1.0147 C.ar    
  27 C27          -14.7595    10.2472    -1.3446 C.ar    
  28 C28          -17.4971     7.7770     1.6528 C.ar    
  29 C29          -18.0187     7.4049     2.8777 C.ar    
  30 C30          -17.6253     6.2166     3.4643 C.ar    
  31 C31          -16.7106     5.4001     2.8257 C.ar    
  32 C32          -16.1923     5.7702     1.5988 C.ar    
  33 C33          -15.8917    10.4806    -2.1025 C.ar    
  34 C34          -15.7796    11.0626    -3.3514 C.ar    
  35 C35          -14.5353    11.4116    -3.8421 C.ar    
  36 C36          -13.4031    11.1790    -3.0838 C.ar    
  37 C37          -13.5157    10.6010    -1.8331 C.ar    
  38 C38          -18.1932     5.8114     4.8001 C.3     
  39 C39          -14.4130    12.0451    -5.2040 C.3     
  40 C40          -13.7695    13.4265    -5.0679 C.3     
  41 C41          -13.5419    11.1628    -6.1005 C.3     
  42 C42          -18.9260     4.4758     4.6587 C.3     
  43 C43          -17.0568     5.6648     5.8140 C.3     
  44 H44            0.8407    -0.4911    -0.0161 H       
  45 H45           -0.7784    -0.4188     0.4266 H       
  46 H46           -3.4275     3.1876     0.4720 H       
  47 H47           -3.8915     2.4249    -1.0678 H       
  48 H48           -2.2493     1.1122     1.1450 H       
  49 H49           -2.7133     0.3494    -0.3948 H       
  50 H50           -1.3809     2.7728    -0.9680 H       
  51 H51            1.7752     1.2890    -1.1732 H       
  52 H52           -4.7599     0.7643     1.0452 H       
  53 H53           -7.0682     0.7714     1.7369 H       
  54 H54           -9.2106     1.9714     1.7878 H       
  55 H55           -7.4259     5.2298    -0.3622 H       
  56 H56           -5.2866     4.0237    -0.4035 H       
  57 H57           -9.0579     6.0533    -0.1877 H       
  58 H58          -10.2744     8.2212     0.3676 H       
  59 H59          -12.1821     4.4353    -0.1898 H       
  60 H60          -14.3690     5.5559    -0.3174 H       
  61 H61          -12.4617     9.3416     0.2453 H       
  62 H62          -15.8410     9.8823     0.4586 H       
  63 H63          -14.0743     9.9680     0.6571 H       
  64 H64          -16.7466     7.9647    -0.8614 H       
  65 H65          -15.7735     6.4748    -0.8996 H       
  66 H66          -17.8044     8.7054     1.1946 H       
  67 H67          -18.7333     8.0427     3.3766 H       
  68 H68          -16.4030     4.4719     3.2841 H       
  69 H69          -15.4777     5.1323     1.0999 H       
  70 H70          -16.8639    10.2079    -1.7192 H       
  71 H71          -16.6641    11.2443    -3.9439 H       
  72 H72          -12.4310    11.4513    -3.4673 H       
  73 H73          -12.6312    10.4193    -1.2406 H       
  74 H74          -18.8913     6.5742     5.1445 H       
  75 H75          -15.4035    12.1477    -5.6473 H       
  76 H76          -12.7791    13.3239    -4.6246 H       
  77 H77          -13.6811    13.8848    -6.0529 H       
  78 H78          -14.3901    14.0551    -4.4292 H       
  79 H79          -14.0003    10.1787    -6.1975 H       
  80 H80          -13.4534    11.6211    -7.0855 H       
  81 H81          -12.5514    11.0602    -5.6572 H       
  82 H82          -18.2278     3.7129     4.3143 H       
  83 H83          -19.3368     4.1827     5.6249 H       
  84 H84          -19.7356     4.5802     3.9364 H       
  85 H85          -16.5347     6.6163     5.9147 H       
  86 H86          -17.4676     5.3717     6.7802 H       
  87 H87          -16.3586     4.9019     5.4696 H       
@<TRIPOS>BOND
   1    1    2 1
   2    1    6 2
   3    1    5 1
   4    2   44 1
   5    2   45 1
   6    3    4 1
   7    3    7 1
   8    3   46 1
   9    3   47 1
  10    4    5 1
  11    4   48 1
  12    4   49 1
  13    5   50 1
  14    6   51 1
  15    7    8 1
  16    7   52 1
  17    8    9 ar
  18    8   13 ar
  19    9   10 ar
  20    9   53 1
  21   10   11 ar
  22   10   54 1
  23   11   12 ar
  24   11   14 1
  25   12   13 ar
  26   12   55 1
  27   13   56 1
  28   14   15 am
  29   14   16 2
  30   15   17 1
  31   15   57 1
  32   17   18 ar
  33   17   19 ar
  34   18   22 ar
  35   18   58 1
  36   19   20 ar
  37   19   59 1
  38   20   21 ar
  39   20   60 1
  40   21   22 ar
  41   21   23 1
  42   22   61 1
  43   23   24 1
  44   23   25 1
  45   24   27 1
  46   24   62 1
  47   24   63 1
  48   25   26 1
  49   25   64 1
  50   25   65 1
  51   26   28 ar
  52   26   32 ar
  53   27   33 ar
  54   27   37 ar
  55   28   29 ar
  56   28   66 1
  57   29   30 ar
  58   29   67 1
  59   30   31 ar
  60   30   38 1
  61   31   32 ar
  62   31   68 1
  63   32   69 1
  64   33   34 ar
  65   33   70 1
  66   34   35 ar
  67   34   71 1
  68   35   36 ar
  69   35   39 1
  70   36   37 ar
  71   36   72 1
  72   37   73 1
  73   38   42 1
  74   38   43 1
  75   38   74 1
  76   39   40 1
  77   39   41 1
  78   39   75 1
  79   40   76 1
  80   40   77 1
  81   40   78 1
  82   41   79 1
  83   41   80 1
  84   41   81 1
  85   42   82 1
  86   42   83 1
  87   42   84 1
  88   43   85 1
  89   43   86 1
  90   43   87 1

#	End of record

