#	Name: ASD03331081
#	Creating user name:	WinNT
#	Creation time:	15. 06. 2019 20:38

#	Modifying user name:	WinNT
#	Modification time:	15. 06. 2019 20:38

#	Program:	/corina/corina34_cracker 3.40 0067  02.08.2006

@<TRIPOS>MOLECULE
ASD03331081
  56   58    0    0    0
SMALL
NO_CHARGES


@<TRIPOS>ATOM
   1 C1            -0.0288     1.0502     1.1327 C.ar    
   2 C2             0.0021    -0.4134     0.9204 C.2     
   3 N3            -0.9715    -1.2880     1.2819 N.pl3   
   4 C4            -0.5592    -2.5364     0.9130 C.2     
   5 C5             0.6570    -2.4010     0.3314 C.2     
   6 N6             0.9746    -1.0855     0.3448 N.2     
   7 C7             1.4827    -3.4893    -0.2211 C.2     
   8 N8             2.6800    -3.2124    -0.7745 N.am    
   9 C9            -0.9423     1.6083     2.0273 C.ar    
  10 O10            1.0836    -4.6373    -0.1779 O.2     
  11 C11            3.5009    -4.2943    -1.3238 C.3     
  12 C12            3.0674    -4.5833    -2.7624 C.3     
  13 C13            4.9503    -3.8822    -1.3091 C.2     
  14 C14            3.1221    -3.2918    -3.5808 C.3     
  15 C15           -2.2537    -1.0312     1.9439 C.3     
  16 C16           -3.1437    -2.2668     1.7519 C.3     
  17 O17           -2.4121    -3.4491     2.0869 O.3     
  18 C18           -1.3749    -3.7810     1.1516 C.3     
  19 O19            5.2518    -2.7189    -1.4728 O.2     
  20 N20            5.9117    -4.8065    -1.1141 N.am    
  21 C21            7.3117    -4.3925    -0.9916 C.3     
  22 C22            4.0088    -5.6191    -3.3804 C.3     
  23 C23            1.6377    -5.1282    -2.7645 C.3     
  24 C24           -0.9669     2.9756     2.2216 C.ar    
  25 C25           -0.0850     3.7924     1.5281 C.ar    
  26 C26            0.8230     3.2412     0.6387 C.ar    
  27 C27            0.8595     1.8763     0.4431 C.ar    
  28 F28           -0.1124     5.1294     1.7205 F       
  29 F29           -1.8506     3.5184     3.0874 F       
  30 C30            5.5568    -6.2250    -1.0246 C.3     
  31 H31            2.9982    -2.2967    -0.8090 H       
  32 H32           -1.6291     0.9726     2.5665 H       
  33 H33            3.3720    -5.1915    -0.7183 H       
  34 H34            4.1407    -2.9036    -3.5793 H       
  35 H35            2.8133    -3.4977    -4.6056 H       
  36 H36            2.4515    -2.5539    -3.1405 H       
  37 H37           -2.0907    -0.8564     3.0073 H       
  38 H38           -2.7315    -0.1600     1.4958 H       
  39 H39           -4.0183    -2.1870     2.3975 H       
  40 H40           -3.4663    -2.3228     0.7123 H       
  41 H41           -1.8168    -4.1186     0.2142 H       
  42 H42           -0.7408    -4.5649     1.5658 H       
  43 H43            7.5424    -4.1966     0.0555 H       
  44 H44            7.9592    -5.1864    -1.3639 H       
  45 H45            7.4751    -3.4866    -1.5754 H       
  46 H46            3.9050    -6.5661    -2.8509 H       
  47 H47            3.7543    -5.7603    -4.4308 H       
  48 H48            5.0378    -5.2686    -3.2998 H       
  49 H49            0.9670    -4.3904    -2.3242 H       
  50 H50            1.3288    -5.3341    -3.7894 H       
  51 H51            1.5986    -6.0483    -2.1814 H       
  52 H52            1.5068     3.8812     0.1008 H       
  53 H53            1.5680     1.4484    -0.2507 H       
  54 H54            4.4737    -6.3328    -1.0824 H       
  55 H55            6.0204    -6.7682    -1.8481 H       
  56 H56            5.9122    -6.6293    -0.0768 H       
@<TRIPOS>BOND
   1    1    2 1
   2    1    9 ar
   3    1   27 ar
   4    2    3 1
   5    2    6 2
   6    3    4 1
   7    3   15 1
   8    4    5 2
   9    4   18 1
  10    5    6 1
  11    5    7 1
  12    7    8 am
  13    7   10 2
  14    8   11 1
  15    8   31 1
  16    9   24 ar
  17    9   32 1
  18   11   12 1
  19   11   13 1
  20   11   33 1
  21   12   14 1
  22   12   22 1
  23   12   23 1
  24   13   19 2
  25   13   20 am
  26   14   34 1
  27   14   35 1
  28   14   36 1
  29   15   16 1
  30   15   37 1
  31   15   38 1
  32   16   17 1
  33   16   39 1
  34   16   40 1
  35   17   18 1
  36   18   41 1
  37   18   42 1
  38   20   21 1
  39   20   30 1
  40   21   43 1
  41   21   44 1
  42   21   45 1
  43   22   46 1
  44   22   47 1
  45   22   48 1
  46   23   49 1
  47   23   50 1
  48   23   51 1
  49   24   25 ar
  50   24   29 1
  51   25   26 ar
  52   25   28 1
  53   26   27 ar
  54   26   52 1
  55   27   53 1
  56   30   54 1
  57   30   55 1
  58   30   56 1

#	End of record

