#	Name: ASD01230322
#	Creating user name:	WinNT
#	Creation time:	15. 06. 2019 19:14

#	Modifying user name:	WinNT
#	Modification time:	15. 06. 2019 19:14

#	Program:	/corina/corina34_cracker 3.40 0067  02.08.2006

@<TRIPOS>MOLECULE
ASD01230322
  80   88    0    0    0
SMALL
NO_CHARGES


@<TRIPOS>ATOM
   1 C1            -0.0166     1.3725     0.0096 C.ar    
   2 C2             2.4426     0.0232     4.8266 C.ar    
   3 C3             0.0021    -0.0041     0.0020 C.ar    
   4 C4             2.5434     1.4357     4.8490 C.ar    
   5 C5             2.3154     1.3976    -0.4804 C.ar    
   6 C6             0.0482     0.1514     4.7315 C.ar    
   7 C7             1.2368    -0.7206    -0.0586 C.ar    
   8 C8             1.4088     2.1826     4.6059 C.ar    
   9 C9             2.3344    -0.0291    -0.5106 C.ar    
  10 C10            0.1578     1.5503     4.7454 C.ar    
  11 C11            1.0434    -2.0256     0.6614 C.3     
  12 C12            1.3438     3.5089     3.9050 C.3     
  13 O13           -0.4942    -2.8882     2.2614 O.3     
  14 O14            0.0961     4.8975     2.4403 O.3     
  15 C15            1.6050    -3.0909     1.5470 C.3     
  16 C16            2.2677     4.2530     2.9537 C.3     
  17 N17           -0.1222    -1.5831     1.5932 N.3     
  18 N18            0.0453     3.5402     3.1038 N.3     
  19 C19            1.2057     2.0489     0.0016 C.ar    
  20 C20            1.2186    -0.5681     4.5529 C.ar    
  21 C21            2.9436     2.2262     1.9626 C.3     
  22 C22            3.1066    -1.9913     2.9043 C.3     
  23 C23            2.4223     3.6597     1.5489 C.3     
  24 C24            1.7479    -2.8352     3.0696 C.3     
  25 C25            0.4224     2.6070     2.0138 C.3     
  26 C26            0.8521    -0.8829     2.4562 C.3     
  27 N27            1.2017     3.1810     0.8879 N.3     
  28 N28            1.1904    -1.6600     3.6946 N.3     
  29 C29            1.5534     1.6025     2.2415 C.3     
  30 C30            2.3666    -0.7971     2.2204 C.3     
  31 C31            0.2510    -3.9324     1.5844 C.3     
  32 C32            1.3566     5.5161     2.7322 C.3     
  33 C33            0.3784    -5.1940     2.4201 C.3     
  34 C34            1.8454     6.3756     1.5711 C.3     
  35 N35           -0.9436    -5.8016     2.5917 N.am    
  36 N36            0.9465     7.5194     1.3979 N.am    
  37 C37           -2.4353    -7.5635     3.4801 C.3     
  38 C38            0.2583     9.5976     0.2463 C.3     
  39 O39           -0.0998    -7.4583     3.8021 O.2     
  40 O40            2.1400     8.2856    -0.3081 O.2     
  41 C41           -1.0755    -6.9384     3.3036 C.2     
  42 C42            1.1830     8.4211     0.4245 C.2     
  43 F43            3.3890     2.0823    -0.9389 F       
  44 F44           -1.1489    -0.4569     4.8857 F       
  45 H45           -0.9601     1.9049    -0.0028 H       
  46 H46            3.3267    -0.5567     5.0562 H       
  47 H47           -0.9342    -0.5472     0.0199 H       
  48 H48            3.4951     1.9032     5.0561 H       
  49 H49            3.2088    -0.5449    -0.8898 H       
  50 H50           -0.7338     2.1494     4.8706 H       
  51 H51            0.4328    -2.6047    -0.1414 H       
  52 H52            1.1200     4.2411     4.7555 H       
  53 H53            2.4246    -3.7055     1.1405 H       
  54 H54            3.2365     4.5704     3.3993 H       
  55 H55            3.4941     1.7368     1.1760 H       
  56 H56            3.5435     2.2899     2.8761 H       
  57 H57            3.5511    -1.7288     3.8444 H       
  58 H58            3.7927    -2.4706     2.2140 H       
  59 H59            3.1376     4.1665     0.9012 H       
  60 H60            2.0033    -3.6972     3.6768 H       
  61 H61           -0.5254     2.1283     1.7089 H       
  62 H62            0.3582     0.0609     2.6968 H       
  63 H63            1.4295     0.8046     1.4758 H       
  64 H64            1.5136     1.0676     3.1513 H       
  65 H65            2.7933     0.0996     2.6907 H       
  66 H66            2.6937    -0.7988     1.2017 H       
  67 H67           -0.1231    -4.1221     0.5900 H       
  68 H68            1.2948     6.1076     3.6480 H       
  69 H69            1.0395    -5.8987     1.9158 H       
  70 H70            0.7922    -4.9426     3.3967 H       
  71 H71            2.8527     6.7341     1.7832 H       
  72 H72            1.8563     5.7806     0.6579 H       
  73 H73           -1.7240    -5.3858     2.1929 H       
  74 H74            0.1811     7.6277     1.9838 H       
  75 H75           -2.6204    -8.2662     2.6676 H       
  76 H76           -2.4715    -8.0919     4.4327 H       
  77 H77           -3.1977    -6.7845     3.4675 H       
  78 H78            0.6106    10.4317     0.8531 H       
  79 H79            0.2434     9.8924    -0.8030 H       
  80 H80           -0.7479     9.3196     0.5600 H       
@<TRIPOS>BOND
   1    1    3 ar
   2    1   19 ar
   3    1   45 1
   4    2    4 ar
   5    2   20 ar
   6    2   46 1
   7    3    7 ar
   8    3   47 1
   9    4    8 ar
  10    4   48 1
  11    5    9 ar
  12    5   19 ar
  13    5   43 1
  14    6   10 ar
  15    6   20 ar
  16    6   44 1
  17    7    9 ar
  18    7   11 1
  19    8   10 ar
  20    8   12 1
  21    9   49 1
  22   10   50 1
  23   11   15 1
  24   11   17 1
  25   11   51 1
  26   12   16 1
  27   12   18 1
  28   12   52 1
  29   13   17 1
  30   13   31 1
  31   14   18 1
  32   14   32 1
  33   15   31 1
  34   15   24 1
  35   15   53 1
  36   16   32 1
  37   16   23 1
  38   16   54 1
  39   17   26 1
  40   18   25 1
  41   19   27 1
  42   20   28 1
  43   21   23 1
  44   21   29 1
  45   21   55 1
  46   21   56 1
  47   22   24 1
  48   22   30 1
  49   22   57 1
  50   22   58 1
  51   23   27 1
  52   23   59 1
  53   24   28 1
  54   24   60 1
  55   25   27 1
  56   25   29 1
  57   25   61 1
  58   26   28 1
  59   26   30 1
  60   26   62 1
  61   29   63 1
  62   29   64 1
  63   30   65 1
  64   30   66 1
  65   31   33 1
  66   31   67 1
  67   32   34 1
  68   32   68 1
  69   33   35 1
  70   33   69 1
  71   33   70 1
  72   34   36 1
  73   34   71 1
  74   34   72 1
  75   35   41 am
  76   35   73 1
  77   36   42 am
  78   36   74 1
  79   37   41 1
  80   37   75 1
  81   37   76 1
  82   37   77 1
  83   38   42 1
  84   38   78 1
  85   38   79 1
  86   38   80 1
  87   39   41 2
  88   40   42 2

#	End of record

