#	Name: ASD01813899
#	Creating user name:	WinNT
#	Creation time:	15. 06. 2019 19:31

#	Modifying user name:	WinNT
#	Modification time:	15. 06. 2019 19:31

#	Program:	/corina/corina34_cracker 3.40 0067  02.08.2006

@<TRIPOS>MOLECULE
ASD01813899
  52   56    0    0    0
SMALL
NO_CHARGES


@<TRIPOS>ATOM
   1 C1            -0.6526     0.4187     0.2938 C.2     
   2 C2            -0.3692    -0.9537     0.2990 C.2     
   3 C3             0.9262    -1.3722     0.2106 C.2     
   4 C4             1.9546    -0.4199     0.1158 C.2     
   5 N5             1.6492     0.9140     0.1134 N.am    
   6 C6             0.3508     1.3205     0.2019 C.2     
   7 C7             3.2867    -0.8475     0.0250 C.2     
   8 C8             4.2933     0.0694    -0.0670 C.2     
   9 C9             3.9756     1.4403    -0.0697 C.2     
  10 C10            2.6264     1.8387     0.0234 C.2     
  11 O11            2.3419     3.0245     0.0214 O.2     
  12 C12            5.0372     2.4444    -0.1670 C.2     
  13 O13            4.7260     3.7570    -0.1691 O.3     
  14 O14            6.1997     2.0948    -0.2459 O.2     
  15 C15            3.6072    -2.3200     0.0294 C.3     
  16 N16            3.7266    -2.7993    -1.3541 N.3     
  17 C17            4.2681    -4.1649    -1.3934 C.3     
  18 C18            4.3021    -4.6557    -2.8427 C.3     
  19 N19            5.1256    -3.7424    -3.6473 N.3     
  20 C20            4.5841    -2.3768    -3.6079 C.3     
  21 C21            4.5500    -1.8859    -2.1586 C.3     
  22 C22            5.2377    -4.1921    -4.9455 C.ar    
  23 N23            4.2184    -4.7865    -5.5510 N.ar    
  24 C24            4.3135    -5.2228    -6.7970 C.ar    
  25 N25            5.4051    -5.1022    -7.5143 N.ar    
  26 C26            6.4962    -4.5160    -6.9992 C.ar    
  27 C27            6.4427    -4.0268    -5.6714 C.ar    
  28 C28            7.6788    -4.3698    -7.7368 C.ar    
  29 C29            8.7585    -3.7657    -7.1646 C.ar    
  30 C30            8.7059    -3.2912    -5.8570 C.ar    
  31 C31            7.5688    -3.4115    -5.1135 C.ar    
  32 H32           -1.6761     0.7572     0.3590 H       
  33 H33           -1.1702    -1.6745     0.3727 H       
  34 H34            1.1592    -2.4268     0.2137 H       
  35 H35            0.1209     2.3758     0.1992 H       
  36 H36            5.3216    -0.2533    -0.1366 H       
  37 H37            5.4607     4.3823    -0.2351 H       
  38 H38            4.5483    -2.4855     0.5537 H       
  39 H39            2.8092    -2.8640     0.5348 H       
  40 H40            5.2786    -4.1673    -0.9848 H       
  41 H41            3.6343    -4.8246    -0.8009 H       
  42 H42            4.7304    -5.6575    -2.8774 H       
  43 H43            3.2884    -4.6792    -3.2426 H       
  44 H44            5.2179    -1.7170    -4.2005 H       
  45 H45            3.5736    -2.3743    -4.0165 H       
  46 H46            4.1218    -0.8842    -2.1239 H       
  47 H47            5.5637    -1.8625    -1.7587 H       
  48 H48            3.4535    -5.6999    -7.2432 H       
  49 H49            7.7344    -4.7338    -8.7521 H       
  50 H50            9.6691    -3.6539    -7.7345 H       
  51 H51            9.5758    -2.8170    -5.4269 H       
  52 H52            7.5395    -3.0396    -4.1000 H       
@<TRIPOS>BOND
   1    1    2 1
   2    1    6 2
   3    1   32 1
   4    2    3 2
   5    2   33 1
   6    3    4 1
   7    3   34 1
   8    4    5 1
   9    4    7 2
  10    5    6 1
  11    5   10 am
  12    6   35 1
  13    7    8 1
  14    7   15 1
  15    8    9 2
  16    8   36 1
  17    9   10 1
  18    9   12 1
  19   10   11 2
  20   12   13 1
  21   12   14 2
  22   13   37 1
  23   15   16 1
  24   15   38 1
  25   15   39 1
  26   16   17 1
  27   16   21 1
  28   17   18 1
  29   17   40 1
  30   17   41 1
  31   18   19 1
  32   18   42 1
  33   18   43 1
  34   19   20 1
  35   19   22 1
  36   20   21 1
  37   20   44 1
  38   20   45 1
  39   21   46 1
  40   21   47 1
  41   22   23 ar
  42   22   27 ar
  43   23   24 ar
  44   24   25 ar
  45   24   48 1
  46   25   26 ar
  47   26   27 ar
  48   26   28 ar
  49   27   31 ar
  50   28   29 ar
  51   28   49 1
  52   29   30 ar
  53   29   50 1
  54   30   31 ar
  55   30   51 1
  56   31   52 1

#	End of record

