#	Name: ASD04880308
#	Creating user name:	WinNT
#	Creation time:	15. 06. 2019 20:53

#	Modifying user name:	WinNT
#	Modification time:	15. 06. 2019 20:53

#	Program:	/corina/corina34_cracker 3.40 0067  02.08.2006

@<TRIPOS>MOLECULE
ASD04880308
  41   43    0    0    0
SMALL
NO_CHARGES


@<TRIPOS>ATOM
   1 C1            -0.0123     1.3644    -0.2560 C.ar    
   2 C2             0.0104    -0.0185    -0.2933 C.ar    
   3 C3             1.2179    -0.6983    -0.2822 C.ar    
   4 C4             2.4076     0.0029    -0.2337 C.ar    
   5 C5             2.3899     1.3987    -0.1960 C.ar    
   6 C6             1.1680     2.0762    -0.2075 C.ar    
   7 C7             3.6553     2.1543    -0.1437 C.2     
   8 N8             4.8328     1.6320    -0.1290 N.2     
   9 N9             5.8680     2.5633    -0.0784 N.am    
  10 C10            5.2901     3.9164    -0.0558 C.3     
  11 C11            3.7706     3.6614    -0.1056 C.3     
  12 F12            1.2319    -2.0487    -0.3184 F       
  13 C13            7.1838     2.2723    -0.0537 C.2     
  14 C14            7.6272     0.8685     0.0461 C.ar    
  15 O15            8.0056     3.1668    -0.1136 O.2     
  16 C16            6.6922    -0.1476     0.2598 C.ar    
  17 C17            7.1078    -1.4580     0.3527 C.ar    
  18 C18            8.4549    -1.7723     0.2341 C.ar    
  19 C19            9.3932    -0.7635     0.0209 C.ar    
  20 C20            8.9826     0.5516    -0.0786 C.ar    
  21 O21           10.7121    -1.0748    -0.0940 O.3     
  22 C22           11.6178     0.0089    -0.3116 C.3     
  23 O23            8.8596    -3.0654     0.3265 O.3     
  24 C24            7.8458    -4.0483     0.5459 C.3     
  25 H25           -0.9567     1.8880    -0.2694 H       
  26 H26           -0.9170    -0.5706    -0.3308 H       
  27 H27            3.3486    -0.5271    -0.2248 H       
  28 H28            1.1479     3.1557    -0.1785 H       
  29 H29            5.5653     4.4358     0.8621 H       
  30 H30            5.6092     4.4845    -0.9296 H       
  31 H31            3.3365     4.1009    -1.0037 H       
  32 H32            3.2884     4.0593     0.7873 H       
  33 H33            5.6436     0.0941     0.3524 H       
  34 H34            6.3842    -2.2423     0.5186 H       
  35 H35            9.7079     1.3337    -0.2478 H       
  36 H36           12.6347    -0.3766    -0.3846 H       
  37 H37           11.3560     0.5210    -1.2375 H       
  38 H38           11.5536     0.7090     0.5214 H       
  39 H39            8.3032    -5.0362     0.5997 H       
  40 H40            7.3298    -3.8353     1.4821 H       
  41 H41            7.1311    -4.0231    -0.2767 H       
@<TRIPOS>BOND
   1    1    2 ar
   2    1    6 ar
   3    1   25 1
   4    2    3 ar
   5    2   26 1
   6    3    4 ar
   7    3   12 1
   8    4    5 ar
   9    4   27 1
  10    5    6 ar
  11    5    7 1
  12    6   28 1
  13    7    8 2
  14    7   11 1
  15    8    9 1
  16    9   10 1
  17    9   13 am
  18   10   11 1
  19   10   29 1
  20   10   30 1
  21   11   31 1
  22   11   32 1
  23   13   14 1
  24   13   15 2
  25   14   16 ar
  26   14   20 ar
  27   16   17 ar
  28   16   33 1
  29   17   18 ar
  30   17   34 1
  31   18   19 ar
  32   18   23 1
  33   19   20 ar
  34   19   21 1
  35   20   35 1
  36   21   22 1
  37   22   36 1
  38   22   37 1
  39   22   38 1
  40   23   24 1
  41   24   39 1
  42   24   40 1
  43   24   41 1

#	End of record

