#	Name: ASD03092402
#	Creating user name:	WinNT
#	Creation time:	15. 06. 2019 20:32

#	Modifying user name:	WinNT
#	Modification time:	15. 06. 2019 20:32

#	Program:	/corina/corina34_cracker 3.40 0067  02.08.2006

@<TRIPOS>MOLECULE
ASD03092402
  62   65    0    0    0
SMALL
NO_CHARGES


@<TRIPOS>ATOM
   1 C1             0.3371     2.0142     0.1473 C.2     
   2 C2             0.5529     0.5250     0.2295 C.3     
   3 C3            -0.1048    -0.1529    -0.9741 C.3     
   4 O4             1.2896     2.7629     0.0914 O.2     
   5 N5            -0.9146     2.5138     0.1303 N.am    
   6 C6             2.0535     0.2263     0.2261 C.3     
   7 C7            -1.1245     3.9614     0.0503 C.3     
   8 S8            -4.9831     4.7581    -0.6387 S.3     
   9 C9            -4.5796     4.6091     1.0158 C.2     
  10 N10           -3.3133     4.3512     1.1494 N.2     
  11 C11           -2.6025     4.2553     0.0469 C.2     
  12 C12           -3.3088     4.4431    -1.0876 C.2     
  13 N13           -5.4734     4.7442     2.0625 N.3     
  14 C14           -6.8264     5.0343     1.5658 C.3     
  15 C15           -7.7688     5.2348     2.7556 C.3     
  16 O16           -7.7348     4.0707     3.5857 O.3     
  17 C17           -6.4323     3.7592     4.0874 C.3     
  18 C18           -5.4763     3.5438     2.9111 C.3     
  19 C19           -6.5009     2.4841     4.9302 C.3     
  20 C20           -9.1943     5.4577     2.2463 C.3     
  21 C21           -2.5478     5.3150    -4.6604 C.ar    
  22 C22           -3.0698     5.4019    -3.3878 C.ar    
  23 C23           -2.7732     4.3929    -2.4620 C.ar    
  24 C24           -1.9533     3.3350    -2.8775 C.ar    
  25 C25           -1.4750     3.3287    -4.1696 C.ar    
  26 N26           -1.7793     4.3003    -5.0103 N.ar    
  27 C27           -0.5919     2.1975    -4.6296 C.3     
  28 C28           -2.8638     6.3899    -5.6682 C.3     
  29 C29           -4.1666     6.2557    -6.4593 C.3     
  30 C30           -4.0418     7.3181    -5.3653 C.3     
  31 H31            0.1087     0.1437     1.1490 H       
  32 H32           -1.1738     0.0599    -0.9716 H       
  33 H33            0.3395     0.2284    -1.8935 H       
  34 H34            0.0513    -1.2300    -0.9146 H       
  35 H35           -1.6765     1.9147     0.1709 H       
  36 H36            2.5221     0.7092     1.0836 H       
  37 H37            2.2096    -0.8508     0.2856 H       
  38 H38            2.4978     0.6076    -0.6933 H       
  39 H39           -0.6601     4.4439     0.9103 H       
  40 H40           -0.6759     4.3435    -0.8667 H       
  41 H41           -6.8056     5.9410     0.9612 H       
  42 H42           -7.1782     4.1997     0.9594 H       
  43 H43           -7.4478     6.1024     3.3320 H       
  44 H44           -6.0724     4.5839     4.7026 H       
  45 H45           -5.8066     2.6853     2.3262 H       
  46 H46           -4.4699     3.3624     3.2885 H       
  47 H47           -6.8590     1.6598     4.3134 H       
  48 H48           -5.5079     2.2473     5.3122 H       
  49 H49           -7.1846     2.6369     5.7652 H       
  50 H50           -9.5148     4.5886     1.6717 H       
  51 H51           -9.8647     5.6003     3.0938 H       
  52 H52           -9.2188     6.3427     1.6106 H       
  53 H53           -3.6976     6.2351    -3.1084 H       
  54 H54           -1.7000     2.5370    -2.1952 H       
  55 H55           -1.2089     1.4008    -5.0452 H       
  56 H56            0.0955     2.5607    -5.3936 H       
  57 H57           -0.0236     1.8128    -3.7828 H       
  58 H58           -2.0042     6.8188    -6.1832 H       
  59 H59           -4.1641     6.5967    -7.4946 H       
  60 H60           -4.7951     5.3899    -6.2507 H       
  61 H61           -4.5882     7.1512    -4.4370 H       
  62 H62           -3.9573     8.3579    -5.6809 H       
@<TRIPOS>BOND
   1    1    2 1
   2    1    4 2
   3    1    5 am
   4    2    3 1
   5    2    6 1
   6    2   31 1
   7    3   32 1
   8    3   33 1
   9    3   34 1
  10    5    7 1
  11    5   35 1
  12    6   36 1
  13    6   37 1
  14    6   38 1
  15    7   11 1
  16    7   39 1
  17    7   40 1
  18    8    9 1
  19    8   12 1
  20    9   10 2
  21    9   13 1
  22   10   11 1
  23   11   12 2
  24   12   23 1
  25   13   14 1
  26   13   18 1
  27   14   15 1
  28   14   41 1
  29   14   42 1
  30   15   16 1
  31   15   20 1
  32   15   43 1
  33   16   17 1
  34   17   18 1
  35   17   19 1
  36   17   44 1
  37   18   45 1
  38   18   46 1
  39   19   47 1
  40   19   48 1
  41   19   49 1
  42   20   50 1
  43   20   51 1
  44   20   52 1
  45   21   22 ar
  46   21   26 ar
  47   21   28 1
  48   22   23 ar
  49   22   53 1
  50   23   24 ar
  51   24   25 ar
  52   24   54 1
  53   25   26 ar
  54   25   27 1
  55   27   55 1
  56   27   56 1
  57   27   57 1
  58   28   29 1
  59   28   30 1
  60   28   58 1
  61   29   30 1
  62   29   59 1
  63   29   60 1
  64   30   61 1
  65   30   62 1

#	End of record

