#	Name: ASD05143028
#	Creating user name:	WinNT
#	Creation time:	15. 06. 2019 20:57

#	Modifying user name:	WinNT
#	Modification time:	15. 06. 2019 20:57

#	Program:	/corina/corina34_cracker 3.40 0067  02.08.2006

@<TRIPOS>MOLECULE
ASD05143028
 149  152    0    0    0
SMALL
NO_CHARGES


@<TRIPOS>ATOM
   1 C1            -2.1036     5.4094     7.5407 C.2     
   2 C2            -1.6178     4.6730     8.7624 C.3     
   3 N3            -1.2160     5.9443     6.6790 N.am    
   4 O4            -3.2932     5.5165     7.3302 O.2     
   5 C5            -1.6882     6.6603     5.4913 C.3     
   6 C6            -2.5219     5.7150     4.6239 C.3     
   7 C7            -2.5358     7.8320     5.9150 C.2     
   8 C8            -1.6301     4.5916     4.0914 C.3     
   9 C9            -2.4638     3.6463     3.2240 C.3     
  10 N10           -1.6098     2.5707     2.7141 N.pl3   
  11 C11           -2.1426     1.5948     1.9054 C.2     
  12 N12           -1.3412     0.5853     1.4269 N.pl3   
  13 N13           -3.4075     1.6266     1.5924 N.2     
  14 O14           -3.0283     7.8550     7.0231 O.2     
  15 N15           -2.7466     8.8545     5.0626 N.am    
  16 C16           -3.5706     9.9936     5.4745 C.3     
  17 C17           -2.6676    11.1851     5.7997 C.3     
  18 C18           -1.5114    10.7222     6.6880 C.3     
  19 C19           -0.3704    10.2512     5.8236 C.2     
  20 O20           -0.5733     9.5194     4.8779 O.2     
  21 N21            0.8967    10.6641     6.1244 N.am    
  22 C22            1.9598    10.1513     5.2304 C.3     
  23 C23            2.1098    11.1098     4.0474 C.3     
  24 C24            2.7730    10.3774     2.8791 C.3     
  25 C25            3.7313    11.3278     2.1585 C.3     
  26 N26            3.6795    11.0483     0.7094 N.am    
  27 C27            5.1339    11.1104     2.6649 C.2     
  28 N28            5.5218    11.6608     3.8324 N.am    
  29 O29            5.9138    10.4402     2.0217 O.2     
  30 C30            2.8531    11.8352    -0.0325 C.2     
  31 O31            2.2094    12.7178     0.4942 O.2     
  32 C32            2.7486    11.5962    -1.5168 C.3     
  33 N33            1.5339    12.2781    -2.0194 N.am    
  34 C34            3.9842    12.1651    -2.2171 C.3     
  35 C35            0.4807    11.4580    -2.3109 C.2     
  36 O36            0.5723    10.2579    -2.1618 O.2     
  37 C37           -0.7972    12.0730    -2.8209 C.3     
  38 N38           -1.9239    11.1805    -2.4833 N.am    
  39 C39           -1.0084    13.4373    -2.1612 C.3     
  40 C40           -3.0284    11.7696    -1.9479 C.2     
  41 O41           -3.0579    12.9678    -1.7626 O.2     
  42 C42           -4.2141    10.9113    -1.5893 C.3     
  43 C43            3.9358    11.8172    -3.6826 C.2     
  44 C44            3.2374    12.5627    -4.7325 C.ar    
  45 C45            3.4750    11.8631    -5.9295 C.ar    
  46 N46            4.2602    10.7764    -5.6159 N.pl3   
  47 C47            4.5294    10.7687    -4.2744 C.2     
  48 C48            2.4606    13.7228    -4.7460 C.ar    
  49 C49            1.9345    14.1732    -5.9237 C.ar    
  50 C50            2.1658    13.4862    -7.1078 C.ar    
  51 C51            2.9298    12.3400    -7.1174 C.ar    
  52 N52           -4.7996    11.4148    -0.3259 N.am    
  53 C53           -3.7609     9.4618    -1.4033 C.3     
  54 C54           -4.9594     8.5933    -1.1198 C.ar    
  55 C55           -5.9887     8.5160    -2.0397 C.ar    
  56 C56           -7.0884     7.7205    -1.7822 C.ar    
  57 C57           -7.1594     6.9989    -0.5995 C.ar    
  58 C58           -6.1253     7.0782     0.3219 C.ar    
  59 C59           -5.0251     7.8707     0.0571 C.ar    
  60 C60           -4.5091    10.3656     4.3554 C.2     
  61 N61           -3.9924    10.8511     3.1933 N.am    
  62 O62           -5.7074    10.2339     4.4882 O.2     
  63 C63           -4.9604    11.1985     2.1338 C.3     
  64 C64           -5.1821    12.7123     2.1183 C.3     
  65 C65           -4.4060    10.7558     0.8043 C.2     
  66 C66           -5.8450    13.1441     3.4279 C.3     
  67 N67           -6.0579    14.5975     3.4130 N.3     
  68 O68           -3.6246     9.8306     0.7387 O.2     
  69 C69           -1.0182    13.2722    -0.6402 C.3     
  70 C70           -1.3761    14.6075     0.0154 C.3     
  71 N71           -1.3855    14.4495     1.4719 N.pl3   
  72 C72           -1.6826    15.5229     2.2779 C.2     
  73 N73           -1.6914    15.3746     3.6447 N.pl3   
  74 N74           -1.9560    16.6811     1.7463 N.2     
  75 O75           -8.2404     6.2160    -0.3437 O.3     
  76 C76           -8.2457     5.5015     0.8939 C.3     
  77 H77           -1.5117     5.3735     9.5907 H       
  78 H78           -2.3376     3.8996     9.0306 H       
  79 H79           -0.6527     4.2131     8.5497 H       
  80 H80           -0.2645     5.8553     6.8452 H       
  81 H81           -0.8326     7.0188     4.9191 H       
  82 H82           -3.3265     5.2875     5.2222 H       
  83 H83           -2.9466     6.2694     3.7870 H       
  84 H84           -0.8255     5.0191     3.4931 H       
  85 H85           -1.2054     4.0372     4.9283 H       
  86 H86           -3.2683     3.2188     3.8223 H       
  87 H87           -2.8884     4.2007     2.3871 H       
  88 H88           -0.6685     2.5470     2.9471 H       
  89 H89           -0.3999     0.5616     1.6599 H       
  90 H90           -1.7172    -0.1032     0.8564 H       
  91 H91           -3.7834     0.9381     1.0218 H       
  92 H92           -2.3528     8.8361     4.1763 H       
  93 H93           -4.1482     9.7234     6.3585 H       
  94 H94           -2.2703    11.6029     4.8746 H       
  95 H95           -3.2456    11.9466     6.3232 H       
  96 H96           -1.1769    11.5519     7.3107 H       
  97 H97           -1.8473     9.9032     7.3241 H       
  98 H98            1.0867    11.2527     6.8717 H       
  99 H99            2.9013    10.0946     5.7768 H       
 100 H100           1.6854     9.1612     4.8663 H       
 101 H101           1.1262    11.4663     3.7415 H       
 102 H102           2.7280    11.9576     4.3427 H       
 103 H103           3.3284     9.5190     3.2569 H       
 104 H104           2.0072    10.0365     2.1824 H       
 105 H105           3.4302    12.3591     2.3426 H       
 106 H106           4.2067    10.3404     0.3072 H       
 107 H107           4.8981    12.1968     4.3468 H       
 108 H108           6.4246    11.5209     4.1583 H       
 109 H109           2.6746    10.5262    -1.7109 H       
 110 H110           1.4891    13.2403    -2.1341 H       
 111 H111           4.0008    13.2488    -2.1013 H       
 112 H112           4.8830    11.7384    -1.7718 H       
 113 H113          -0.7382    12.1936    -3.9026 H       
 114 H114          -1.8793    10.2235    -2.6349 H       
 115 H115          -0.1995    14.1090    -2.4486 H       
 116 H116          -1.9609    13.8550    -2.4874 H       
 117 H117          -4.9581    10.9651    -2.3841 H       
 118 H118           4.5784    10.1167    -6.2519 H       
 119 H119           5.1247    10.0249    -3.7657 H       
 120 H120           2.2759    14.2621    -3.8286 H       
 121 H121           1.3337    15.0706    -5.9337 H       
 122 H122           1.7429    13.8544    -8.0308 H       
 123 H123           3.1042    11.8129    -8.0437 H       
 124 H124          -5.4191    12.1607    -0.3023 H       
 125 H125          -3.2681     9.1158    -2.3119 H       
 126 H126          -3.0640     9.4035    -0.5672 H       
 127 H127          -5.9331     9.0782    -2.9602 H       
 128 H128          -7.8924     7.6607    -2.5009 H       
 129 H129          -6.1782     6.5174     1.2433 H       
 130 H130          -4.2198     7.9328     0.7741 H       
 131 H131          -3.0371    10.9633     3.0678 H       
 132 H132          -5.9070    10.6927     2.3237 H       
 133 H133          -4.2228    13.2190     2.0124 H       
 134 H134          -5.8270    12.9765     1.2802 H       
 135 H135          -6.8043    12.6374     3.5338 H       
 136 H136          -5.2001    12.8799     4.2659 H       
 137 H137          -6.5997    14.8754     2.6084 H       
 138 H138          -6.4950    14.9077     4.2679 H       
 139 H139          -1.7568    12.5208    -0.3610 H       
 140 H140          -0.0315    12.9547    -0.3028 H       
 141 H141          -0.6375    15.3589    -0.2637 H       
 142 H142          -2.3628    14.9250    -0.3219 H       
 143 H143          -1.1820    13.5875     1.8675 H       
 144 H144          -1.4879    14.5126     4.0403 H       
 145 H145          -1.9010    16.1319     4.2134 H       
 146 H146          -2.1656    17.4384     2.3150 H       
 147 H147          -7.3849     4.8338     0.9316 H       
 148 H148          -8.1936     6.2085     1.7218 H       
 149 H149          -9.1625     4.9172     0.9722 H       
@<TRIPOS>BOND
   1    1    2 1
   2    1    3 am
   3    1    4 2
   4    2   77 1
   5    2   78 1
   6    2   79 1
   7    3    5 1
   8    3   80 1
   9    5    6 1
  10    5    7 1
  11    5   81 1
  12    6    8 1
  13    6   82 1
  14    6   83 1
  15    7   14 2
  16    7   15 am
  17    8    9 1
  18    8   84 1
  19    8   85 1
  20    9   10 1
  21    9   86 1
  22    9   87 1
  23   10   11 1
  24   10   88 1
  25   11   12 1
  26   11   13 2
  27   12   89 1
  28   12   90 1
  29   13   91 1
  30   15   16 1
  31   15   92 1
  32   16   17 1
  33   16   60 1
  34   16   93 1
  35   17   18 1
  36   17   94 1
  37   17   95 1
  38   18   19 1
  39   18   96 1
  40   18   97 1
  41   19   20 2
  42   19   21 am
  43   21   22 1
  44   21   98 1
  45   22   23 1
  46   22   99 1
  47   22  100 1
  48   23   24 1
  49   23  101 1
  50   23  102 1
  51   24   25 1
  52   24  103 1
  53   24  104 1
  54   25   26 1
  55   25   27 1
  56   25  105 1
  57   26   30 am
  58   26  106 1
  59   27   28 am
  60   27   29 2
  61   28  107 1
  62   28  108 1
  63   30   31 2
  64   30   32 1
  65   32   33 1
  66   32   34 1
  67   32  109 1
  68   33   35 am
  69   33  110 1
  70   34   43 1
  71   34  111 1
  72   34  112 1
  73   35   36 2
  74   35   37 1
  75   37   38 1
  76   37   39 1
  77   37  113 1
  78   38   40 am
  79   38  114 1
  80   39   69 1
  81   39  115 1
  82   39  116 1
  83   40   41 2
  84   40   42 1
  85   42   52 1
  86   42   53 1
  87   42  117 1
  88   43   44 1
  89   43   47 2
  90   44   45 ar
  91   44   48 ar
  92   45   46 1
  93   45   51 ar
  94   46   47 1
  95   46  118 1
  96   47  119 1
  97   48   49 ar
  98   48  120 1
  99   49   50 ar
 100   49  121 1
 101   50   51 ar
 102   50  122 1
 103   51  123 1
 104   52   65 am
 105   52  124 1
 106   53   54 1
 107   53  125 1
 108   53  126 1
 109   54   55 ar
 110   54   59 ar
 111   55   56 ar
 112   55  127 1
 113   56   57 ar
 114   56  128 1
 115   57   58 ar
 116   57   75 1
 117   58   59 ar
 118   58  129 1
 119   59  130 1
 120   60   61 am
 121   60   62 2
 122   61   63 1
 123   61  131 1
 124   63   64 1
 125   63   65 1
 126   63  132 1
 127   64   66 1
 128   64  133 1
 129   64  134 1
 130   65   68 2
 131   66   67 1
 132   66  135 1
 133   66  136 1
 134   67  137 1
 135   67  138 1
 136   69   70 1
 137   69  139 1
 138   69  140 1
 139   70   71 1
 140   70  141 1
 141   70  142 1
 142   71   72 1
 143   71  143 1
 144   72   73 1
 145   72   74 2
 146   73  144 1
 147   73  145 1
 148   74  146 1
 149   75   76 1
 150   76  147 1
 151   76  148 1
 152   76  149 1

#	End of record

