#	Name: ASD01882747
#	Creating user name:	WinNT
#	Creation time:	15. 06. 2019 19:45

#	Modifying user name:	WinNT
#	Modification time:	15. 06. 2019 19:45

#	Program:	/corina/corina34_cracker 3.40 0067  02.08.2006

@<TRIPOS>MOLECULE
ASD01882747
  41   42    0    0    0
SMALL
NO_CHARGES


@<TRIPOS>ATOM
   1 N1            -0.0165     1.3692     0.0096 N.pl3   
   2 O2             1.1412    -0.7243    -0.0127 O.3     
   3 C3             0.0021    -0.0041     0.0020 C.2     
   4 N4            -1.0753    -0.7270     0.0089 N.2     
   5 C5            -0.6823    -2.1496     0.0076 C.3     
   6 C6             0.8153    -2.0697     0.3922 C.3     
   7 C7             1.6390    -3.0940    -0.3909 C.3     
   8 O8             3.0178    -2.9666    -0.0377 O.3     
   9 C9             3.8916    -3.8096    -0.6484 C.ar    
  10 C10            5.2452    -3.7410    -0.3526 C.ar    
  11 C11            6.1314    -4.5989    -0.9747 C.ar    
  12 C12            5.6702    -5.5255    -1.8915 C.ar    
  13 C13            4.3216    -5.5956    -2.1884 C.ar    
  14 C14            3.4306    -4.7440    -1.5644 C.ar    
  15 C15            6.6391    -6.4602    -2.5687 C.3     
  16 C16            5.8774    -7.3767    -3.5283 C.3     
  17 C17            6.8611    -8.3257    -4.2158 C.3     
  18 C18            7.6705    -5.6458    -3.3521 C.3     
  19 C19            7.3529    -7.3071    -1.5133 C.3     
  20 H20            0.8168     1.8655     0.0043 H       
  21 H21           -0.8631     1.8427     0.0162 H       
  22 H22           -1.2463    -2.7101     0.7532 H       
  23 H23           -0.8071    -2.5872    -0.9829 H       
  24 H24            0.9511    -2.1991     1.4659 H       
  25 H25            1.2935    -4.0992    -0.1495 H       
  26 H26            1.5198    -2.9156    -1.4596 H       
  27 H27            5.6060    -3.0171     0.3632 H       
  28 H28            7.1853    -4.5456    -0.7450 H       
  29 H29            3.9639    -6.3197    -2.9054 H       
  30 H30            2.3767    -4.8024    -1.7930 H       
  31 H31            5.1426    -7.9569    -2.9702 H       
  32 H32            5.3688    -6.7733    -4.2802 H       
  33 H33            7.5959    -7.7455    -4.7739 H       
  34 H34            7.3697    -8.9291    -3.4639 H       
  35 H35            6.3185    -8.9786    -4.8995 H       
  36 H36            8.2131    -4.9928    -2.6685 H       
  37 H37            8.3713    -6.3218    -3.8419 H       
  38 H38            7.1619    -5.0424    -4.1040 H       
  39 H39            6.6181    -7.8874    -0.9552 H       
  40 H40            8.0537    -7.9832    -2.0031 H       
  41 H41            7.8955    -6.6542    -0.8296 H       
@<TRIPOS>BOND
   1    1    3 1
   2    1   20 1
   3    1   21 1
   4    2    3 1
   5    2    6 1
   6    3    4 2
   7    4    5 1
   8    5    6 1
   9    5   22 1
  10    5   23 1
  11    6    7 1
  12    6   24 1
  13    7    8 1
  14    7   25 1
  15    7   26 1
  16    8    9 1
  17    9   10 ar
  18    9   14 ar
  19   10   11 ar
  20   10   27 1
  21   11   12 ar
  22   11   28 1
  23   12   13 ar
  24   12   15 1
  25   13   14 ar
  26   13   29 1
  27   14   30 1
  28   15   16 1
  29   15   18 1
  30   15   19 1
  31   16   17 1
  32   16   31 1
  33   16   32 1
  34   17   33 1
  35   17   34 1
  36   17   35 1
  37   18   36 1
  38   18   37 1
  39   18   38 1
  40   19   39 1
  41   19   40 1
  42   19   41 1

#	End of record

