#	Name: ASD03331551
#	Creating user name:	WinNT
#	Creation time:	15. 06. 2019 20:39

#	Modifying user name:	WinNT
#	Modification time:	15. 06. 2019 20:39

#	Program:	/corina/corina34_cracker 3.40 0067  02.08.2006

@<TRIPOS>MOLECULE
ASD03331551
  64   66    0    0    0
SMALL
NO_CHARGES


@<TRIPOS>ATOM
   1 C1            -0.2241     2.8026    -2.1391 C.ar    
   2 C2            -0.5590     1.4686    -2.3730 C.ar    
   3 C3             1.1474     3.1600    -1.7158 C.2     
   4 N4             1.7188     4.3956    -1.8273 N.pl3   
   5 C5             2.9837     4.3021    -1.3393 C.2     
   6 C6             3.1611     3.0176    -0.9231 C.2     
   7 N7             2.0153     2.3444    -1.1655 N.2     
   8 C8             1.0861     5.6049    -2.3615 C.3     
   9 C9             2.1606     6.5291    -2.9388 C.3     
  10 C10            2.6763     7.4689    -1.8500 C.3     
  11 C11            3.3173     6.6732    -0.7174 C.3     
  12 C12            3.9901     5.4213    -1.2891 C.3     
  13 C13            4.3825     2.4626    -0.3135 C.2     
  14 O14            5.3540     3.1740    -0.1424 O.2     
  15 N15            4.4230     1.1666     0.0544 N.am    
  16 C16            5.6373     0.6149     0.6605 C.3     
  17 C17            5.6866    -0.8723     0.4219 C.2     
  18 C18            4.3465     0.3186     2.7791 C.3     
  19 N19            6.8752    -1.4981     0.3121 N.am    
  20 O20            4.6568    -1.5060     0.3287 O.2     
  21 C21            5.6263     0.8899     2.1655 C.3     
  22 C22            6.8430     0.2265     2.8140 C.3     
  23 C23            5.6786     2.3995     2.4085 C.3     
  24 C24            6.9244    -2.9241    -0.0200 C.3     
  25 C25           -1.8411     1.1405    -2.7686 C.ar    
  26 C26           -2.7941     2.1358    -2.9330 C.ar    
  27 C27           -2.4645     3.4615    -2.7020 C.ar    
  28 C28           -1.1856     3.7992    -2.3113 C.ar    
  29 F29           -4.0471     1.8111    -3.3201 F       
  30 F30           -2.1676    -0.1505    -2.9961 F       
  31 C31            3.7143     8.4183    -2.4516 C.3     
  32 C32            1.5094     8.2883    -1.2951 C.3     
  33 H33            0.1828     0.6941    -2.2454 H       
  34 H34            0.3826     5.3301    -3.1474 H       
  35 H35            0.5545     6.1206    -1.5618 H       
  36 H36            2.9869     5.9296    -3.3209 H       
  37 H37            1.7344     7.1164    -3.7521 H       
  38 H38            4.0635     7.2903    -0.2170 H       
  39 H39            2.5503     6.3784    -0.0012 H       
  40 H40            4.8251     5.1325    -0.6508 H       
  41 H41            4.3538     5.6301    -2.2952 H       
  42 H42            3.6481     0.5993    -0.0821 H       
  43 H43            6.5128     1.0841     0.2117 H       
  44 H44            4.3092    -0.7570     2.6060 H       
  45 H45            4.3387     0.5145     3.8513 H       
  46 H46            3.4797     0.7912     2.3171 H       
  47 H47            7.6982    -1.0043     0.4531 H       
  48 H48            7.7523     0.5828     2.3299 H       
  49 H49            6.8728     0.4791     3.8739 H       
  50 H50            6.7708    -0.8552     2.7003 H       
  51 H51            4.8119     2.8721     1.9465 H       
  52 H52            5.6709     2.5954     3.4807 H       
  53 H53            6.5905     2.8065     1.9714 H       
  54 H54            6.3965    -3.4937     0.7448 H       
  55 H55            6.4500    -3.0883    -0.9876 H       
  56 H56            7.9632    -3.2512    -0.0645 H       
  57 H57           -3.2096     4.2325    -2.8320 H       
  58 H58           -0.9306     4.8331    -2.1313 H       
  59 H59            3.2542     9.0016    -3.2491 H       
  60 H60            4.0841     9.0902    -1.6770 H       
  61 H61            4.5442     7.8396    -2.8571 H       
  62 H62            0.8122     7.6262    -0.7817 H       
  63 H63            1.8885     9.0313    -0.5934 H       
  64 H64            0.9964     8.7912    -2.1148 H       
@<TRIPOS>BOND
   1    1    2 ar
   2    1    3 1
   3    1   28 ar
   4    2   25 ar
   5    2   33 1
   6    3    4 1
   7    3    7 2
   8    4    5 1
   9    4    8 1
  10    5    6 2
  11    5   12 1
  12    6    7 1
  13    6   13 1
  14    8    9 1
  15    8   34 1
  16    8   35 1
  17    9   10 1
  18    9   36 1
  19    9   37 1
  20   10   11 1
  21   10   31 1
  22   10   32 1
  23   11   12 1
  24   11   38 1
  25   11   39 1
  26   12   40 1
  27   12   41 1
  28   13   14 2
  29   13   15 am
  30   15   16 1
  31   15   42 1
  32   16   21 1
  33   16   17 1
  34   16   43 1
  35   17   19 am
  36   17   20 2
  37   18   21 1
  38   18   44 1
  39   18   45 1
  40   18   46 1
  41   19   24 1
  42   19   47 1
  43   21   22 1
  44   21   23 1
  45   22   48 1
  46   22   49 1
  47   22   50 1
  48   23   51 1
  49   23   52 1
  50   23   53 1
  51   24   54 1
  52   24   55 1
  53   24   56 1
  54   25   26 ar
  55   25   30 1
  56   26   27 ar
  57   26   29 1
  58   27   28 ar
  59   27   57 1
  60   28   58 1
  61   31   59 1
  62   31   60 1
  63   31   61 1
  64   32   62 1
  65   32   63 1
  66   32   64 1

#	End of record

