#	Name: ASD03540374
#	Creating user name:	WinNT
#	Creation time:	15. 06. 2019 20:43

#	Modifying user name:	WinNT
#	Modification time:	15. 06. 2019 20:43

#	Program:	/corina/corina34_cracker 3.40 0067  02.08.2006

@<TRIPOS>MOLECULE
ASD03540374
  59   62    0    0    0
SMALL
NO_CHARGES


@<TRIPOS>ATOM
   1 N1            -0.0161     1.3396     0.0094 N.am    
   2 C2             0.0021    -0.0041     0.0020 C.2     
   3 N3             1.1390    -0.7172    -0.0122 N.am    
   4 C4             2.3459    -0.1106    -0.0200 C.2     
   5 C5             2.3857     1.3633    -0.0129 C.ar    
   6 C6             3.5871     2.0607    -0.0197 C.ar    
   7 C7             3.5659     3.4548    -0.0121 C.ar    
   8 C8             2.3437     4.1382     0.0023 C.ar    
   9 C9             1.1622     3.4519     0.0094 C.ar    
  10 C10            1.1637     2.0628     0.0020 C.ar    
  11 C11            4.8337     4.2115    -0.0186 C.2     
  12 O12            5.8952     3.6190    -0.0307 O.2     
  13 N13            4.8141     5.5591    -0.0113 N.am    
  14 C14            6.0721     6.3100    -0.0178 C.3     
  15 C15            4.9765    11.8799     2.3165 C.3     
  16 O16            5.2518    10.4792     2.3836 O.3     
  17 C17            5.3762     9.8177     1.2030 C.ar    
  18 C18            5.2361    10.5026     0.0045 C.ar    
  19 C19            5.6494     8.4578     1.1942 C.ar    
  20 C20            5.7753     7.7874    -0.0074 C.ar    
  21 C21            5.6297     8.4710    -1.2002 C.ar    
  22 C22            5.3629     9.8279    -1.1941 C.ar    
  23 O23            3.3721    -0.7626    -0.0320 O.2     
  24 O24           -1.0576    -0.5997     0.0089 O.2     
  25 C25            1.0697    -2.1806    -0.0189 C.3     
  26 C26            1.0327    -2.6752    -1.4420 C.ar    
  27 C27            2.2125    -2.9583    -2.1052 C.ar    
  28 C28            2.1812    -3.4118    -3.4097 C.ar    
  29 C29            0.9648    -3.5831    -4.0543 C.ar    
  30 C30           -0.2176    -3.2984    -3.3867 C.ar    
  31 C31           -0.1812    -2.8505    -2.0804 C.ar    
  32 O32            0.9314    -4.0287    -5.3377 O.3     
  33 C33           -0.3563    -4.1815    -5.9382 C.3     
  34 C34           -1.2992     2.0466     0.0193 C.3     
  35 H35            4.5271     1.5290    -0.0304 H       
  36 H36            2.3349     5.2181     0.0081 H       
  37 H37            0.2260     3.9901     0.0212 H       
  38 H38            3.9672     6.0319    -0.0017 H       
  39 H39            6.6548     6.0502     0.8660 H       
  40 H40            6.6399     6.0598    -0.9139 H       
  41 H41            4.9019    12.2842     3.3260 H       
  42 H42            5.7822    12.3833     1.7821 H       
  43 H43            4.0356    12.0404     1.7903 H       
  44 H44            5.0274    11.5622     0.0087 H       
  45 H45            5.7636     7.9234     2.1257 H       
  46 H46            5.7288     7.9453    -2.1384 H       
  47 H47            5.2540    10.3606    -2.1272 H       
  48 H48            1.9463    -2.5881     0.4847 H       
  49 H49            0.1684    -2.5041     0.5017 H       
  50 H50            3.1592    -2.8244    -1.6030 H       
  51 H51            3.1030    -3.6324    -3.9274 H       
  52 H52           -1.1658    -3.4309    -3.8864 H       
  53 H53           -1.1015    -2.6332    -1.5586 H       
  54 H54           -0.2402    -4.5425    -6.9601 H       
  55 H55           -0.9422    -4.8990    -5.3637 H       
  56 H56           -0.8687    -3.2195    -5.9487 H       
  57 H57           -2.1134     1.3219     0.0192 H       
  58 H58           -1.3652     2.6671     0.9130 H       
  59 H59           -1.3736     2.6768    -0.8669 H       
@<TRIPOS>BOND
   1    1    2 am
   2    1   10 1
   3    1   34 1
   4    2    3 am
   5    2   24 2
   6    3    4 am
   7    3   25 1
   8    4    5 1
   9    4   23 2
  10    5    6 ar
  11    5   10 ar
  12    6    7 ar
  13    6   35 1
  14    7    8 ar
  15    7   11 1
  16    8    9 ar
  17    8   36 1
  18    9   10 ar
  19    9   37 1
  20   11   12 2
  21   11   13 am
  22   13   14 1
  23   13   38 1
  24   14   20 1
  25   14   39 1
  26   14   40 1
  27   15   16 1
  28   15   41 1
  29   15   42 1
  30   15   43 1
  31   16   17 1
  32   17   18 ar
  33   17   19 ar
  34   18   22 ar
  35   18   44 1
  36   19   20 ar
  37   19   45 1
  38   20   21 ar
  39   21   22 ar
  40   21   46 1
  41   22   47 1
  42   25   26 1
  43   25   48 1
  44   25   49 1
  45   26   27 ar
  46   26   31 ar
  47   27   28 ar
  48   27   50 1
  49   28   29 ar
  50   28   51 1
  51   29   30 ar
  52   29   32 1
  53   30   31 ar
  54   30   52 1
  55   31   53 1
  56   32   33 1
  57   33   54 1
  58   33   55 1
  59   33   56 1
  60   34   57 1
  61   34   58 1
  62   34   59 1

#	End of record

