#	Name: ASD01411018
#	Creating user name:	WinNT
#	Creation time:	15. 06. 2019 19:19

#	Modifying user name:	WinNT
#	Modification time:	15. 06. 2019 19:19

#	Program:	/corina/corina34_cracker 3.40 0067  02.08.2006

@<TRIPOS>MOLECULE
ASD01411018
  73   78    0    0    0
SMALL
NO_CHARGES


@<TRIPOS>ATOM
   1 C1            -0.2586     4.0110     1.0227 C.ar    
   2 C2             0.2288     2.6987     1.1750 C.ar    
   3 C3            -0.6433     1.6182     1.1099 C.ar    
   4 C4            -1.9759     1.8237     0.8977 C.ar    
   5 C5            -2.4789     3.1224     0.7434 C.ar    
   6 C6            -1.6227     4.2171     0.8113 C.ar    
   7 N7             0.8017     4.8488     1.1306 N.2     
   8 C8             1.8946     4.1501     1.3363 C.2     
   9 N9             1.5893     2.8132     1.3715 N.pl3   
  10 C10            2.5327     1.7118     1.5793 C.3     
  11 C11            2.1285     0.9223     2.8260 C.3     
  12 C12            3.1138    -0.2279     3.0429 C.3     
  13 C13            3.0937    -1.1532     1.8246 C.3     
  14 C14            3.4979    -0.3638     0.5779 C.3     
  15 C15            2.5127     0.7865     0.3609 C.3     
  16 C16           -3.9228     3.3302     0.5139 C.2     
  17 O17           -4.3611     4.4563     0.3799 O.2     
  18 N18           -4.7547     2.2716     0.4531 N.am    
  19 C19           -6.2012     2.4815     0.3543 C.3     
  20 C20           -6.6043     3.1923    -0.9119 C.2     
  21 O21           -7.5574     3.9422    -0.9091 O.2     
  22 C22            3.2416     4.7153     1.5031 C.2     
  23 C23           -7.0281     1.2169     0.6408 C.3     
  24 C24           -8.0080     2.1253     1.4020 C.3     
  25 C25           -6.8244     3.0844     1.6244 C.3     
  26 N26           -5.9056     2.9947    -2.0473 N.am    
  27 C27           -6.2735     3.6590    -3.2171 C.ar    
  28 C28           -6.1099     3.0347    -4.4501 C.ar    
  29 C29           -6.4711     3.6865    -5.6070 C.ar    
  30 C30           -7.0044     4.9795    -5.5422 C.ar    
  31 C31           -7.1676     5.6034    -4.2994 C.ar    
  32 C32           -6.8085     4.9419    -3.1474 C.ar    
  33 C33           -7.3912     5.6797    -6.7748 C.2     
  34 C34           -7.9056     6.9273    -6.7099 C.2     
  35 C35            3.5331     5.9852     1.9044 C.2     
  36 C36            4.9354     6.0914     1.9246 C.2     
  37 C37            5.4290     4.8962     1.5395 C.2     
  38 O38            4.4043     4.0665     1.2916 O.3     
  39 C39           -8.2788     7.6030    -7.8991 C.2     
  40 O40           -8.1358     7.0594    -8.9780 O.2     
  41 O41           -8.7925     8.8490    -7.8343 O.3     
  42 H42           -0.2654     0.6133     1.2272 H       
  43 H43           -2.6474     0.9793     0.8480 H       
  44 H44           -2.0095     5.2184     0.6926 H       
  45 H45            3.5368     2.1140     1.7136 H       
  46 H46            2.1427     1.5815     3.6939 H       
  47 H47            1.1243     0.5201     2.6916 H       
  48 H48            4.1179     0.1743     3.1773 H       
  49 H49            2.8258    -0.7903     3.9311 H       
  50 H50            3.7957    -1.9727     1.9792 H       
  51 H51            2.0896    -1.5554     1.6903 H       
  52 H52            4.5021     0.0384     0.7122 H       
  53 H53            3.4837    -1.0230    -0.2900 H       
  54 H54            1.5085     0.3843     0.2266 H       
  55 H55            2.8006     1.3489    -0.5272 H       
  56 H56           -4.3957     1.3708     0.4748 H       
  57 H57           -7.4571     0.7640    -0.2530 H       
  58 H58           -6.5164     0.4957     1.2781 H       
  59 H59           -8.7944     2.5429     0.7734 H       
  60 H60           -8.3903     1.6817     2.3213 H       
  61 H61           -6.2564     2.8743     2.5307 H       
  62 H62           -7.0904     4.1367     1.5248 H       
  63 H63           -5.1468     2.3904    -2.0508 H       
  64 H64           -5.6985     2.0374    -4.4992 H       
  65 H65           -6.3432     3.2016    -6.5635 H       
  66 H66           -7.5783     6.6008    -4.2447 H       
  67 H67           -6.9343     5.4222    -2.1883 H       
  68 H68           -7.2643     5.1971    -7.7325 H       
  69 H69           -8.0325     7.4100    -5.7521 H       
  70 H70            2.8243     6.7597     2.1577 H       
  71 H71            5.5090     6.9649     2.1970 H       
  72 H72            6.4761     4.6471     1.4501 H       
  73 H73           -9.0166     9.2273    -8.6956 H       
@<TRIPOS>BOND
   1    1    2 ar
   2    1    7 1
   3    1    6 ar
   4    2    3 ar
   5    2    9 1
   6    3    4 ar
   7    3   42 1
   8    4    5 ar
   9    4   43 1
  10    5    6 ar
  11    5   16 1
  12    6   44 1
  13    7    8 2
  14    8    9 1
  15    8   22 1
  16    9   10 1
  17   10   11 1
  18   10   15 1
  19   10   45 1
  20   11   12 1
  21   11   46 1
  22   11   47 1
  23   12   13 1
  24   12   48 1
  25   12   49 1
  26   13   14 1
  27   13   50 1
  28   13   51 1
  29   14   15 1
  30   14   52 1
  31   14   53 1
  32   15   54 1
  33   15   55 1
  34   16   17 2
  35   16   18 am
  36   18   19 1
  37   18   56 1
  38   19   20 1
  39   19   23 1
  40   19   25 1
  41   20   21 2
  42   20   26 am
  43   22   35 2
  44   22   38 1
  45   23   24 1
  46   23   57 1
  47   23   58 1
  48   24   25 1
  49   24   59 1
  50   24   60 1
  51   25   61 1
  52   25   62 1
  53   26   27 1
  54   26   63 1
  55   27   28 ar
  56   27   32 ar
  57   28   29 ar
  58   28   64 1
  59   29   30 ar
  60   29   65 1
  61   30   31 ar
  62   30   33 1
  63   31   32 ar
  64   31   66 1
  65   32   67 1
  66   33   34 2
  67   33   68 1
  68   34   39 1
  69   34   69 1
  70   35   36 1
  71   35   70 1
  72   36   37 2
  73   36   71 1
  74   37   38 1
  75   37   72 1
  76   39   40 2
  77   39   41 1
  78   41   73 1

#	End of record

