#	Name: ASD01910477
#	Creating user name:	WinNT
#	Creation time:	15. 06. 2019 19:55

#	Modifying user name:	WinNT
#	Modification time:	15. 06. 2019 19:55

#	Program:	/corina/corina34_cracker 3.40 0067  02.08.2006

@<TRIPOS>MOLECULE
ASD01910477
  43   46    0    0    0
SMALL
NO_CHARGES


@<TRIPOS>ATOM
   1 C1            -0.8528     1.9336     1.0582 C.ar    
   2 C2            -0.8691     0.4949     0.6913 C.2     
   3 N3            -1.8825    -0.3753     0.9007 N.2     
   4 C4            -1.4662    -1.5215     0.4230 C.2     
   5 O5            -0.2339    -1.3240    -0.0559 O.3     
   6 N6             0.0915    -0.1660     0.1002 N.2     
   7 C7            -2.2324    -2.8192     0.4147 C.3     
   8 C8            -2.4166    -3.2944    -1.0283 C.3     
   9 C9            -3.2230    -4.5951    -1.0399 C.3     
  10 C10           -2.4551    -5.6741    -0.2698 C.3     
  11 N11           -2.1470    -5.1670     1.0743 N.am    
  12 C12           -1.4533    -3.8780     1.2012 C.3     
  13 C13           -2.4942    -5.8708     2.1700 C.2     
  14 C14           -3.2648    -7.1233     2.0299 C.ar    
  15 O15           -2.1733    -5.4748     3.2737 O.2     
  16 C16           -2.8383    -8.1123     1.1414 C.ar    
  17 C17           -3.5604    -9.2800     1.0136 C.ar    
  18 C18           -4.7087    -9.4738     1.7646 C.ar    
  19 C19           -5.1387    -8.4940     2.6498 C.ar    
  20 C20           -4.4191    -7.3246     2.7899 C.ar    
  21 F21           -5.4125   -10.6197     1.6349 F       
  22 C22            0.2709     2.7052     0.7757 C.ar    
  23 C23            0.2715     4.0460     1.1234 C.ar    
  24 C24           -0.8537     4.5695     1.7426 C.ar    
  25 C25           -1.9356     3.7443     1.9932 C.ar    
  26 N26           -1.9113     2.4739     1.6474 N.ar    
  27 F27           -6.2592    -8.6883     3.3791 F       
  28 H28           -3.2086    -2.6682     0.8754 H       
  29 H29           -2.9493    -2.5319    -1.5966 H       
  30 H30           -1.4403    -3.4684    -1.4808 H       
  31 H31           -4.1899    -4.4280    -0.5652 H       
  32 H32           -3.3738    -4.9205    -2.0692 H       
  33 H33           -3.0678    -6.5720    -0.1900 H       
  34 H34           -1.5281    -5.9071    -0.7938 H       
  35 H35           -0.4446    -3.9646     0.7972 H       
  36 H36           -1.4050    -3.5909     2.2516 H       
  37 H37           -1.9440    -7.9627     0.5547 H       
  38 H38           -3.2306   -10.0450     0.3263 H       
  39 H39           -4.7533    -6.5627     3.4785 H       
  40 H40            1.1304     2.2645     0.2925 H       
  41 H41            1.1289     4.6695     0.9173 H       
  42 H42           -0.8849     5.6110     2.0266 H       
  43 H43           -2.8134     4.1484     2.4755 H       
@<TRIPOS>BOND
   1    1    2 1
   2    1   22 ar
   3    1   26 ar
   4    2    3 1
   5    2    6 2
   6    3    4 2
   7    4    5 1
   8    4    7 1
   9    5    6 1
  10    7    8 1
  11    7   12 1
  12    7   28 1
  13    8    9 1
  14    8   29 1
  15    8   30 1
  16    9   10 1
  17    9   31 1
  18    9   32 1
  19   10   11 1
  20   10   33 1
  21   10   34 1
  22   11   12 1
  23   11   13 am
  24   12   35 1
  25   12   36 1
  26   13   14 1
  27   13   15 2
  28   14   16 ar
  29   14   20 ar
  30   16   17 ar
  31   16   37 1
  32   17   18 ar
  33   17   38 1
  34   18   19 ar
  35   18   21 1
  36   19   20 ar
  37   19   27 1
  38   20   39 1
  39   22   23 ar
  40   22   40 1
  41   23   24 ar
  42   23   41 1
  43   24   25 ar
  44   24   42 1
  45   25   26 ar
  46   25   43 1

#	End of record

