#	Name: ASD01152322
#	Creating user name:	WinNT
#	Creation time:	15. 06. 2019 19:05

#	Modifying user name:	WinNT
#	Modification time:	15. 06. 2019 19:05

#	Program:	/corina/corina34_cracker 3.40 0067  02.08.2006

@<TRIPOS>MOLECULE
ASD01152322
  48   50    0    0    0
SMALL
NO_CHARGES


@<TRIPOS>ATOM
   1 C1             0.1453     1.0230    -0.5671 C.2     
   2 N2             0.1365    -0.2728    -0.3969 N.2     
   3 N3            -1.0774    -0.9403    -0.1947 N.am    
   4 C4            -2.2411    -0.2671    -0.1724 C.2     
   5 N5            -2.2759     1.0675    -0.3440 N.am    
   6 C6            -1.1304     1.7542    -0.5355 C.2     
   7 O7            -1.1535     2.9609    -0.6914 O.2     
   8 O8            -3.2797    -0.8743     0.0053 O.2     
   9 C9            -1.0796    -2.3277    -0.0137 C.ar    
  10 C10           -3.5579     1.7759    -0.3156 C.3     
  11 C11           -3.8648     2.2026     1.0968 C.ar    
  12 C12           -3.4370     3.4348     1.5548 C.ar    
  13 C13           -3.7182     3.8266     2.8500 C.ar    
  14 C14           -4.4280     2.9855     3.6883 C.ar    
  15 C15           -4.8560     1.7524     3.2294 C.ar    
  16 C16           -4.5790     1.3640     1.9321 C.ar    
  17 C17           -0.3261    -2.8980     1.0042 C.ar    
  18 C18           -1.8401    -3.1374    -0.8481 C.ar    
  19 C19           -1.8400    -4.5062    -0.6667 C.ar    
  20 C20           -1.0844    -5.0714     0.3446 C.ar    
  21 C21           -0.3305    -4.2679     1.1801 C.ar    
  22 Cl22          -4.7812     3.4767     5.3154 Cl      
  23 C23            0.4958    -2.0231     1.9153 C.3     
  24 C24           -0.3482    -1.5808     3.0828 C.2     
  25 C25           -1.2206    -0.3580     2.9615 C.3     
  26 C26           -0.3235    -2.2593     4.2031 C.2     
  27 O27            1.3152     1.6849    -0.7645 O.3     
  28 C28            2.5181     0.9201    -0.6645 C.3     
  29 H29           -3.5011     2.6556    -0.9567 H       
  30 H30           -4.3464     1.1147    -0.6749 H       
  31 H31           -2.8825     4.0912     0.9005 H       
  32 H32           -3.3836     4.7892     3.2078 H       
  33 H33           -5.4102     1.0954     3.8832 H       
  34 H34           -4.9130     0.4015     1.5738 H       
  35 H35           -2.4309    -2.6967    -1.6374 H       
  36 H36           -2.4309    -5.1363    -1.3150 H       
  37 H37           -1.0866    -6.1423     0.4847 H       
  38 H38            0.2584    -4.7124     1.9688 H       
  39 H39            1.3553    -2.5851     2.2805 H       
  40 H40            0.8412    -1.1482     1.3645 H       
  41 H41           -1.9966    -0.5377     2.2173 H       
  42 H42           -1.6836    -0.1450     3.9250 H       
  43 H43           -0.6127     0.4930     2.6544 H       
  44 H44           -0.9283    -1.9423     5.0398 H       
  45 H45            0.3018    -3.1356     4.2901 H       
  46 H46            2.6351     0.5588     0.3572 H       
  47 H47            2.4668     0.0713    -1.3464 H       
  48 H48            3.3701     1.5468    -0.9280 H       
@<TRIPOS>BOND
   1    1    2 2
   2    1   27 1
   3    1    6 1
   4    2    3 1
   5    3    4 am
   6    3    9 1
   7    4    5 am
   8    4    8 2
   9    5    6 am
  10    5   10 1
  11    6    7 2
  12    9   17 ar
  13    9   18 ar
  14   10   11 1
  15   10   29 1
  16   10   30 1
  17   11   12 ar
  18   11   16 ar
  19   12   13 ar
  20   12   31 1
  21   13   14 ar
  22   13   32 1
  23   14   15 ar
  24   14   22 1
  25   15   16 ar
  26   15   33 1
  27   16   34 1
  28   17   23 1
  29   17   21 ar
  30   18   19 ar
  31   18   35 1
  32   19   20 ar
  33   19   36 1
  34   20   21 ar
  35   20   37 1
  36   21   38 1
  37   23   24 1
  38   23   39 1
  39   23   40 1
  40   24   25 1
  41   24   26 2
  42   25   41 1
  43   25   42 1
  44   25   43 1
  45   26   44 1
  46   26   45 1
  47   27   28 1
  48   28   46 1
  49   28   47 1
  50   28   48 1

#	End of record

