#	Name: ASD00842533
#	Creating user name:	WinNT
#	Creation time:	15. 06. 2019 18:44

#	Modifying user name:	WinNT
#	Modification time:	15. 06. 2019 18:44

#	Program:	/corina/corina34_cracker 3.40 0067  02.08.2006

@<TRIPOS>MOLECULE
ASD00842533
  89   94    0    0    0
SMALL
NO_CHARGES


@<TRIPOS>ATOM
   1 F1            -0.0934    -3.1266     4.7188 F       
   2 C2            -0.0167     1.3829     0.0096 C.ar    
   3 C3             0.0021    -0.0041     0.0020 C.ar    
   4 C4             1.2143    -0.6791    -0.0132 C.ar    
   5 C5             2.3989     0.0312    -0.0207 C.ar    
   6 C6             2.3774     1.4139    -0.0126 C.ar    
   7 C7             1.1710     2.0888     0.0021 C.ar    
   8 C8             1.2384    -2.1858    -0.0210 C.3     
   9 C9             0.4953    -2.7219    -1.2261 C.2     
  10 O10            2.6067    -2.6715    -0.0097 O.3     
  11 C11            3.3980    -2.2932    -1.0313 C.2     
  12 N12            4.6790    -2.7090    -1.0811 N.am    
  13 O13            2.9572    -1.5768    -1.9082 O.2     
  14 C14            5.5547    -2.3046    -2.1894 C.3     
  15 C15            6.1662    -3.5606    -2.8182 C.3     
  16 C16            6.8654    -4.3813    -1.7320 C.3     
  17 C17            5.8417    -4.8168    -0.6810 C.3     
  18 C18            5.2281    -3.5704    -0.0251 C.3     
  19 N19            7.4814    -5.5698    -2.3370 N.3     
  20 C20            8.2628    -6.3209    -1.3445 C.3     
  21 C21            8.8209    -7.5900    -1.9930 C.3     
  22 N22            9.6542    -7.2220    -3.1461 N.3     
  23 C23            8.8728    -6.4708    -4.1386 C.3     
  24 C24            8.3147    -5.2018    -3.4901 C.3     
  25 C25           10.2703    -8.4104    -3.7511 C.3     
  26 O26            0.7742    -2.5259    -2.3901 O.2     
  27 N27           -0.5308    -3.4561    -0.7641 N.am    
  28 C28            0.4693    -2.7338     1.1591 C.ar    
  29 C29           -0.5745    -3.4835     0.6314 C.ar    
  30 C30            0.6333    -2.6124     2.5205 C.ar    
  31 C31           -0.2502    -3.2433     3.3820 C.ar    
  32 C32           -1.2951    -3.9938     2.8675 C.ar    
  33 C33           -1.4596    -4.1155     1.5019 C.ar    
  34 Cl34          -2.4029    -4.7849     3.9448 Cl      
  35 C35           -0.9816    -5.8522    -2.0406 C.ar    
  36 C36            0.1966    -6.0106    -2.7553 C.ar    
  37 C37           -1.6521    -6.9613    -1.5618 C.ar    
  38 C38           -1.1494    -8.2280    -1.7940 C.ar    
  39 C39            0.0250    -8.3885    -2.5062 C.ar    
  40 C40            0.6988    -7.2830    -2.9874 C.ar    
  41 H41            0.4157    -9.3792    -2.6863 H       
  42 O42            0.8577    -4.9213    -3.2278 O.3     
  43 C43            2.0644    -5.1597    -3.9551 C.3     
  44 C44            2.6620    -3.8245    -4.4034 C.3     
  45 S45           -1.6188    -4.2377    -1.7375 S.o2    
  46 O46           -2.7979    -4.4105    -0.9634 O.2     
  47 O47           -1.6010    -3.5584    -2.9855 O.2     
  48 O48           -1.1648    -0.7006     0.0099 O.3     
  49 C49           -3.5740    -0.8895     0.0328 C.3     
  50 C50           -2.3744     0.0601     0.0260 C.3     
  51 H51           -0.9590     1.9106     0.0170 H       
  52 H52            3.3426    -0.4937    -0.0325 H       
  53 H53            3.3047     1.9675    -0.0178 H       
  54 H54            1.1569     3.1687     0.0084 H       
  55 H55            4.9723    -1.7677    -2.9382 H       
  56 H56            6.3493    -1.6614    -1.8113 H       
  57 H57            5.3783    -4.1589    -3.2757 H       
  58 H58            6.8915    -3.2706    -3.5785 H       
  59 H59            7.6366    -3.7742    -1.2580 H       
  60 H60            5.0568    -5.4032    -1.1587 H       
  61 H61            6.3359    -5.4208     0.0799 H       
  62 H62            5.9975    -3.0329     0.5291 H       
  63 H63            4.4288    -3.8702     0.6527 H       
  64 H64            9.0863    -5.7030    -0.9868 H       
  65 H65            7.6210    -6.5928    -0.5065 H       
  66 H66            9.4248    -8.1340    -1.2667 H       
  67 H67            7.9967    -8.2206    -2.3264 H       
  68 H68            9.5146    -6.1990    -4.9766 H       
  69 H69            8.0493    -7.0888    -4.4963 H       
  70 H70            7.7108    -4.6577    -4.2164 H       
  71 H71            9.1389    -4.5711    -3.1567 H       
  72 H72            9.4897    -9.0929    -4.0875 H       
  73 H73           10.8814    -8.1096    -4.6020 H       
  74 H74           10.8967    -8.9107    -3.0126 H       
  75 H75            1.4496    -2.0266     2.9167 H       
  76 H76           -2.2763    -4.7021     1.1078 H       
  77 H77           -2.5695    -6.8386    -1.0052 H       
  78 H78           -1.6746    -9.0937    -1.4182 H       
  79 H79            1.6156    -7.4089    -3.5442 H       
  80 H80            2.7773    -5.6804    -3.3156 H       
  81 H81            1.8464    -5.7722    -4.8300 H       
  82 H82            3.5825    -4.0064    -4.9582 H       
  83 H83            1.9492    -3.3038    -5.0429 H       
  84 H84            2.8801    -3.2120    -3.5285 H       
  85 H85           -3.5489    -1.5131    -0.8609 H       
  86 H86           -3.5312    -1.5227     0.9190 H       
  87 H87           -4.4966    -0.3093     0.0451 H       
  88 H88           -2.3995     0.6837     0.9196 H       
  89 H89           -2.4172     0.6932    -0.8603 H       
@<TRIPOS>BOND
   1    1   31 1
   2    2    3 ar
   3    2    7 ar
   4    2   51 1
   5    3    4 ar
   6    3   48 1
   7    4    5 ar
   8    4    8 1
   9    5    6 ar
  10    5   52 1
  11    6    7 ar
  12    6   53 1
  13    7   54 1
  14    8    9 1
  15    8   10 1
  16    8   28 1
  17    9   26 2
  18    9   27 am
  19   10   11 1
  20   11   12 am
  21   11   13 2
  22   12   14 1
  23   12   18 1
  24   14   15 1
  25   14   55 1
  26   14   56 1
  27   15   16 1
  28   15   57 1
  29   15   58 1
  30   16   17 1
  31   16   19 1
  32   16   59 1
  33   17   18 1
  34   17   60 1
  35   17   61 1
  36   18   62 1
  37   18   63 1
  38   19   20 1
  39   19   24 1
  40   20   21 1
  41   20   64 1
  42   20   65 1
  43   21   22 1
  44   21   66 1
  45   21   67 1
  46   22   23 1
  47   22   25 1
  48   23   24 1
  49   23   68 1
  50   23   69 1
  51   24   70 1
  52   24   71 1
  53   25   72 1
  54   25   73 1
  55   25   74 1
  56   27   45 am
  57   27   29 1
  58   28   29 ar
  59   28   30 ar
  60   29   33 ar
  61   30   31 ar
  62   30   75 1
  63   31   32 ar
  64   32   33 ar
  65   32   34 1
  66   33   76 1
  67   35   36 ar
  68   35   37 ar
  69   35   45 1
  70   36   42 1
  71   36   40 ar
  72   37   38 ar
  73   37   77 1
  74   38   39 ar
  75   38   78 1
  76   39   40 ar
  77   39   41 1
  78   40   79 1
  79   42   43 1
  80   43   44 1
  81   43   80 1
  82   43   81 1
  83   44   82 1
  84   44   83 1
  85   44   84 1
  86   45   46 2
  87   45   47 2
  88   48   50 1
  89   49   50 1
  90   49   85 1
  91   49   86 1
  92   49   87 1
  93   50   88 1
  94   50   89 1

#	End of record

