#	Name: ASD01028584
#	Creating user name:	WinNT
#	Creation time:	15. 06. 2019 18:57

#	Modifying user name:	WinNT
#	Modification time:	15. 06. 2019 18:57

#	Program:	/corina/corina34_cracker 3.40 0067  02.08.2006

@<TRIPOS>MOLECULE
ASD01028584
  49   54    0    0    0
SMALL
NO_CHARGES


@<TRIPOS>ATOM
   1 N1            -0.0169     1.3919     0.0097 N.2     
   2 N2             0.0021    -0.0041     0.0020 N.pl3   
   3 C3             1.1068     2.0736     0.0026 C.2     
   4 C4             2.3526     1.4122    -0.0128 C.2     
   5 C5             2.4037     0.0538    -0.0211 C.2     
   6 C6             1.2011    -0.6778    -0.0130 C.2     
   7 N7             0.9147    -1.9691    -0.0175 N.2     
   8 N8            -0.3631    -2.1239    -0.0054 N.2     
   9 C9            -0.9614    -0.9589     0.0057 C.2     
  10 C10           -2.4496    -0.7222     0.0221 C.3     
  11 N11           -2.9176    -0.6519     1.4086 N.pl3   
  12 C12           -4.2620    -0.4388     1.6769 C.ar    
  13 C13           -5.1794    -0.2899     0.6502 C.ar    
  14 C14           -6.5190    -0.0776     0.9475 C.ar    
  15 N15           -6.9493    -0.0123     2.1861 N.ar    
  16 C16           -6.1188    -0.1475     3.2253 C.ar    
  17 C17           -4.7385    -0.3729     3.0099 C.ar    
  18 C18           -6.5948    -0.0757     4.5475 C.ar    
  19 C19           -5.6856    -0.2237     5.5753 C.ar    
  20 C20           -4.3352    -0.4380     5.2806 C.ar    
  21 N21           -3.9078    -0.5089     4.0438 N.ar    
  22 O22           -6.1003    -0.1611     6.8675 O.3     
  23 C23            1.0643     3.5578     0.0105 C.2     
  24 C24           -5.1027    -0.3232     7.8777 C.3     
  25 N25            2.0882     4.3744     0.0046 N.2     
  26 O26            1.7318     5.5298     0.0132 O.3     
  27 C27            0.3958     5.6393     0.0262 C.2     
  28 C28           -0.0968     4.3797     0.0197 C.2     
  29 C29           -0.4022     6.9176     0.0395 C.3     
  30 C30           -0.1892     7.8711     1.2169 C.3     
  31 C31            0.3599     8.2283    -0.1658 C.3     
  32 H32            3.2675     1.9861    -0.0185 H       
  33 H33            3.3548    -0.4576    -0.0336 H       
  34 H34           -2.6739     0.2161    -0.4852 H       
  35 H35           -2.9535    -1.5417    -0.4903 H       
  36 H36           -2.2875    -0.7542     2.1389 H       
  37 H37           -4.8538    -0.3383    -0.3785 H       
  38 H38           -7.2254     0.0371     0.1386 H       
  39 H39           -7.6420     0.0909     4.7523 H       
  40 H40           -3.6298    -0.5528     6.0904 H       
  41 H41           -4.3498     0.4582     7.7735 H       
  42 H42           -5.5667    -0.2519     8.8614 H       
  43 H43           -4.6304    -1.2995     7.7686 H       
  44 H44           -1.1314     4.0698     0.0264 H       
  45 H45           -1.4071     6.8488    -0.3770 H       
  46 H46           -1.0540     8.4300     1.5747 H       
  47 H47            0.5281     7.5739     1.9819 H       
  48 H48            1.4385     8.1660    -0.3104 H       
  49 H49           -0.1435     9.0221    -0.7176 H       
@<TRIPOS>BOND
   1    1    2 1
   2    1    3 2
   3    2    6 1
   4    2    9 1
   5    3    4 1
   6    3   23 1
   7    4    5 2
   8    4   32 1
   9    5    6 1
  10    5   33 1
  11    6    7 2
  12    7    8 1
  13    8    9 2
  14    9   10 1
  15   10   11 1
  16   10   34 1
  17   10   35 1
  18   11   12 1
  19   11   36 1
  20   12   13 ar
  21   12   17 ar
  22   13   14 ar
  23   13   37 1
  24   14   15 ar
  25   14   38 1
  26   15   16 ar
  27   16   17 ar
  28   16   18 ar
  29   17   21 ar
  30   18   19 ar
  31   18   39 1
  32   19   20 ar
  33   19   22 1
  34   20   21 ar
  35   20   40 1
  36   22   24 1
  37   23   25 2
  38   23   28 1
  39   24   41 1
  40   24   42 1
  41   24   43 1
  42   25   26 1
  43   26   27 1
  44   27   28 2
  45   27   29 1
  46   28   44 1
  47   29   30 1
  48   29   31 1
  49   29   45 1
  50   30   31 1
  51   30   46 1
  52   30   47 1
  53   31   48 1
  54   31   49 1

#	End of record

