#	Name: ASD01180101
#	Creating user name:	WinNT
#	Creation time:	15. 06. 2019 19:06

#	Modifying user name:	WinNT
#	Modification time:	15. 06. 2019 19:06

#	Program:	/corina/corina34_cracker 3.40 0067  02.08.2006

@<TRIPOS>MOLECULE
ASD01180101
  42   44    0    0    0
SMALL
NO_CHARGES


@<TRIPOS>ATOM
   1 C1            -0.0167     1.3781     0.0096 C.ar    
   2 C2             0.0021    -0.0041     0.0020 C.ar    
   3 C3             1.2084    -0.6789    -0.0132 C.ar    
   4 C4             2.3960     0.0285    -0.0212 C.ar    
   5 C5             2.3773     1.4107    -0.0145 C.ar    
   6 C6             1.1710     2.0855     0.0021 C.ar    
   7 C7             3.6720     2.1819    -0.0228 C.3     
   8 O8             4.0688     2.4320    -1.3726 O.3     
   9 C9             5.2247     3.1224    -1.5581 C.ar    
  10 C10            5.6676     3.3992    -2.8407 C.ar    
  11 C11            6.8529     4.1075    -3.0266 C.ar    
  12 C12            7.5861     4.5335    -1.9204 C.ar    
  13 C13            7.1370     4.2530    -0.6454 C.ar    
  14 C14            5.9584     3.5549    -0.4616 C.ar    
  15 C15            7.3332     4.4070    -4.3974 C.ar    
  16 C16            8.5204     5.1166    -4.5947 C.ar    
  17 C17            8.9247     5.3702    -5.8935 C.ar    
  18 N18            8.1797     4.9357    -6.8983 N.ar    
  19 C19            7.0640     4.2685    -6.6787 C.ar    
  20 N20            6.6430     3.9993    -5.4608 N.ar    
  21 S21            6.1127     3.7154    -8.0549 S.o     
  22 C22            6.7974     2.0690    -8.3889 C.3     
  23 O23            4.8074     3.5837    -7.5089 O.2     
  24 C24           10.1972     6.1319    -6.1613 C.3     
  25 F25           11.2667     5.2349    -6.2549 F       
  26 F26           10.0741     6.8378    -7.3628 F       
  27 F27           10.4321     7.0300    -5.1147 F       
  28 H28           -0.9592     1.9054     0.0170 H       
  29 H29           -0.9258    -0.5567     0.0083 H       
  30 H30            1.2231    -1.7588    -0.0184 H       
  31 H31            3.3386    -0.4987    -0.0324 H       
  32 H32            1.1563     3.1654     0.0069 H       
  33 H33            3.5335     3.1300     0.4968 H       
  34 H34            4.4443     1.6008     0.4812 H       
  35 H35            5.0960     3.0666    -3.6946 H       
  36 H36            8.5055     5.0825    -2.0606 H       
  37 H37            7.7063     4.5834     0.2109 H       
  38 H38            5.6113     3.3380     0.5378 H       
  39 H39            9.1073     5.4588    -3.7552 H       
  40 H40            6.6693     1.4372    -7.5100 H       
  41 H41            6.2755     1.6235    -9.2358 H       
  42 H42            7.8586     2.1572    -8.6215 H       
@<TRIPOS>BOND
   1    1    2 ar
   2    1    6 ar
   3    1   28 1
   4    2    3 ar
   5    2   29 1
   6    3    4 ar
   7    3   30 1
   8    4    5 ar
   9    4   31 1
  10    5    6 ar
  11    5    7 1
  12    6   32 1
  13    7    8 1
  14    7   33 1
  15    7   34 1
  16    8    9 1
  17    9   10 ar
  18    9   14 ar
  19   10   11 ar
  20   10   35 1
  21   11   12 ar
  22   11   15 1
  23   12   13 ar
  24   12   36 1
  25   13   14 ar
  26   13   37 1
  27   14   38 1
  28   15   16 ar
  29   15   20 ar
  30   16   17 ar
  31   16   39 1
  32   17   24 1
  33   17   18 ar
  34   18   19 ar
  35   19   20 ar
  36   19   21 1
  37   21   22 1
  38   21   23 2
  39   22   40 1
  40   22   41 1
  41   22   42 1
  42   24   25 1
  43   24   26 1
  44   24   27 1

#	End of record

