#	Name: ASD01813237
#	Creating user name:	WinNT
#	Creation time:	15. 06. 2019 19:30

#	Modifying user name:	WinNT
#	Modification time:	15. 06. 2019 19:30

#	Program:	/corina/corina34_cracker 3.40 0067  02.08.2006

@<TRIPOS>MOLECULE
ASD01813237
  52   56    0    0    0
SMALL
NO_CHARGES


@<TRIPOS>ATOM
   1 C1            -0.0169     1.3972     0.0097 C.2     
   2 C2             0.0021    -0.0041     0.0020 C.2     
   3 C3             1.1986    -0.6593    -0.0129 C.2     
   4 C4             2.3918     0.0821    -0.0204 C.2     
   5 N5             2.3437     1.4497    -0.0122 N.am    
   6 C6             1.1421     2.0937     0.0024 C.2     
   7 C7             3.6227    -0.5889    -0.0356 C.2     
   8 C8             4.7877     0.1218    -0.0425 C.2     
   9 C9             4.7345     1.5280    -0.0346 C.2     
  10 C10            3.4812     2.1736    -0.0189 C.2     
  11 O11            3.4258     3.3917    -0.0123 O.2     
  12 C12            5.9703     2.3140    -0.0413 C.2     
  13 O13            5.9124     3.6618    -0.0337 O.3     
  14 O14            7.0487     1.7516    -0.0537 O.2     
  15 C15            3.6593    -2.0954    -0.0439 C.3     
  16 N16            3.7787    -2.5747    -1.4274 N.3     
  17 C17            4.0548    -4.0166    -1.4628 C.3     
  18 C18            4.3182    -4.4509    -2.9067 C.3     
  19 C19            3.0937    -4.1230    -3.7636 C.3     
  20 C20            2.7953    -2.6256    -3.6707 C.3     
  21 C21            2.5775    -2.2437    -2.2045 C.3     
  22 C22            3.3631    -4.5004    -5.1971 C.ar    
  23 C23            3.0177    -5.7763    -5.6302 C.ar    
  24 N24            2.4282    -6.6642    -4.7231 N.am    
  25 C25            1.9181    -6.1949    -3.5663 C.2     
  26 O26            1.9491    -4.8791    -3.2850 O.3     
  27 C27            3.9404    -3.6062    -6.0726 C.ar    
  28 C28            4.1780    -3.9813    -7.3833 C.ar    
  29 C29            3.8379    -5.2499    -7.8168 C.ar    
  30 C30            3.2585    -6.1502    -6.9429 C.ar    
  31 O31            1.4248    -6.9683    -2.7694 O.2     
  32 H32           -0.9605     1.9226     0.0170 H       
  33 H33           -0.9233    -0.5609     0.0082 H       
  34 H34            1.2282    -1.7389    -0.0187 H       
  35 H35            1.1156     3.1733     0.0087 H       
  36 H36            5.7393    -0.3889    -0.0536 H       
  37 H37            6.7544     4.1373    -0.0385 H       
  38 H38            4.5153    -2.4412     0.5356 H       
  39 H39            2.7412    -2.4836     0.3971 H       
  40 H40            4.9314    -4.2337    -0.8525 H       
  41 H41            3.1955    -4.5607    -1.0708 H       
  42 H42            5.1868    -3.9186    -3.2943 H       
  43 H43            4.5057    -5.5243    -2.9355 H       
  44 H44            3.6368    -2.0613    -4.0726 H       
  45 H45            1.8965    -2.3974    -4.2436 H       
  46 H46            1.7252    -2.7956    -1.8083 H       
  47 H47            2.3822    -1.1738    -2.1331 H       
  48 H48            2.3864    -7.6120    -4.9255 H       
  49 H49            4.2065    -2.6148    -5.7367 H       
  50 H50            4.6301    -3.2810    -8.0700 H       
  51 H51            4.0263    -5.5378    -8.8405 H       
  52 H52            2.9927    -7.1406    -7.2820 H       
@<TRIPOS>BOND
   1    1    2 1
   2    1    6 2
   3    1   32 1
   4    2    3 2
   5    2   33 1
   6    3    4 1
   7    3   34 1
   8    4    5 1
   9    4    7 2
  10    5    6 1
  11    5   10 am
  12    6   35 1
  13    7    8 1
  14    7   15 1
  15    8    9 2
  16    8   36 1
  17    9   10 1
  18    9   12 1
  19   10   11 2
  20   12   13 1
  21   12   14 2
  22   13   37 1
  23   15   16 1
  24   15   38 1
  25   15   39 1
  26   16   17 1
  27   16   21 1
  28   17   18 1
  29   17   40 1
  30   17   41 1
  31   18   19 1
  32   18   42 1
  33   18   43 1
  34   19   20 1
  35   19   22 1
  36   19   26 1
  37   20   21 1
  38   20   44 1
  39   20   45 1
  40   21   46 1
  41   21   47 1
  42   22   23 ar
  43   22   27 ar
  44   23   24 1
  45   23   30 ar
  46   24   25 am
  47   24   48 1
  48   25   26 1
  49   25   31 2
  50   27   28 ar
  51   27   49 1
  52   28   29 ar
  53   28   50 1
  54   29   30 ar
  55   29   51 1
  56   30   52 1

#	End of record

