#	Name: ASD05430542
#	Creating user name:	WinNT
#	Creation time:	15. 06. 2019 21:00

#	Modifying user name:	WinNT
#	Modification time:	15. 06. 2019 21:00

#	Program:	/corina/corina34_cracker 3.40 0067  02.08.2006

@<TRIPOS>MOLECULE
ASD05430542
  59   63    0    0    0
SMALL
NO_CHARGES


@<TRIPOS>ATOM
   1 C1            -0.0229     1.3681     0.1755 C.ar    
   2 C2            -0.0158    -0.0184     0.3226 C.ar    
   3 C3            -1.2129    -0.7203     0.3792 C.ar    
   4 C4            -2.4135    -0.0498     0.2906 C.ar    
   5 C5            -2.4285     1.3412     0.1433 C.ar    
   6 C6            -1.2233     2.0482     0.0917 C.ar    
   7 C7            -4.8651     1.3680    -0.0475 C.2     
   8 C8            -3.7096     2.0591     0.0480 C.2     
   9 N9            -7.1680     1.5696    -0.8192 N.pl3   
  10 C10           -6.1758     2.0461     0.0374 C.2     
  11 O11            1.1509     2.0517     0.1200 O.3     
  12 C12            1.0690     3.4703    -0.0316 C.3     
  13 C13            1.5487    -1.6294     1.3654 C.2     
  14 N14            1.2030    -0.7060     0.4132 N.pl3   
  15 C15            2.7999    -2.0366     1.0779 C.2     
  16 N16            3.2113    -1.3829    -0.0185 N.2     
  17 C17            2.2636    -0.5829    -0.4261 C.2     
  18 C18            3.5995    -3.0509     1.8543 C.3     
  19 C19           -6.8925     0.3392    -1.5621 C.3     
  20 C20           -6.0768    -0.5999    -0.6779 C.3     
  21 O21           -4.8703     0.0157    -0.2320 O.3     
  22 C22           -8.4272     2.2991    -0.9341 C.3     
  23 C23           -8.7845     2.8672     0.4441 C.3     
  24 O24           -7.6868     3.6084     0.9672 O.3     
  25 N25           -6.4153     3.0082     0.8624 N.2     
  26 C26           -8.2725     3.4258    -1.9229 C.ar    
  27 C27           -9.2957     3.7145    -2.8067 C.ar    
  28 C28           -9.1552     4.7477    -3.7136 C.ar    
  29 C29           -7.9891     5.4939    -3.7369 C.ar    
  30 C30           -6.9651     5.2039    -2.8513 C.ar    
  31 C31           -7.1099     4.1735    -1.9417 C.ar    
  32 F32           -7.8505     6.5040    -4.6233 F       
  33 C33          -10.0012     3.7858     0.3144 C.3     
  34 O34          -10.4076     4.2243     1.6123 O.3     
  35 H35           -1.2027    -1.7943     0.4925 H       
  36 H36           -3.3429    -0.5982     0.3345 H       
  37 H37           -1.2302     3.1222    -0.0219 H       
  38 H38           -3.7252     3.1390     0.0545 H       
  39 H39            2.0740     3.8911    -0.0616 H       
  40 H40            0.5481     3.7070    -0.9593 H       
  41 H41            0.5224     3.8947     0.8105 H       
  42 H42            0.9370    -1.9629     2.1906 H       
  43 H43            2.3142     0.0672    -1.2870 H       
  44 H44            3.4124    -4.0464     1.4517 H       
  45 H45            4.6611    -2.8185     1.7698 H       
  46 H46            3.3035    -3.0215     2.9029 H       
  47 H47           -7.8322    -0.1405    -1.8357 H       
  48 H48           -6.3249     0.5753    -2.4623 H       
  49 H49           -6.6741    -0.8807     0.1896 H       
  50 H50           -5.8298    -1.4977    -1.2445 H       
  51 H51           -9.2142     1.6227    -1.2677 H       
  52 H52           -9.0232     2.0478     1.1221 H       
  53 H53          -10.2050     3.1320    -2.7886 H       
  54 H54           -9.9545     4.9728    -4.4041 H       
  55 H55           -6.0551     5.7853    -2.8686 H       
  56 H56           -6.3113     3.9471    -1.2509 H       
  57 H57           -9.7404     4.6503    -0.2960 H       
  58 H58          -10.8190     3.2411    -0.1577 H       
  59 H59          -11.1757     4.8116     1.6064 H       
@<TRIPOS>BOND
   1    1    2 ar
   2    1   11 1
   3    1    6 ar
   4    2    3 ar
   5    2   14 1
   6    3    4 ar
   7    3   35 1
   8    4    5 ar
   9    4   36 1
  10    5    6 ar
  11    5    8 1
  12    6   37 1
  13    7    8 2
  14    7   21 1
  15    7   10 1
  16    8   38 1
  17    9   10 1
  18    9   22 1
  19    9   19 1
  20   10   25 2
  21   11   12 1
  22   12   39 1
  23   12   40 1
  24   12   41 1
  25   13   14 1
  26   13   15 2
  27   13   42 1
  28   14   17 1
  29   15   16 1
  30   15   18 1
  31   16   17 2
  32   17   43 1
  33   18   44 1
  34   18   45 1
  35   18   46 1
  36   19   20 1
  37   19   47 1
  38   19   48 1
  39   20   21 1
  40   20   49 1
  41   20   50 1
  42   22   23 1
  43   22   26 1
  44   22   51 1
  45   23   24 1
  46   23   33 1
  47   23   52 1
  48   24   25 1
  49   26   27 ar
  50   26   31 ar
  51   27   28 ar
  52   27   53 1
  53   28   29 ar
  54   28   54 1
  55   29   30 ar
  56   29   32 1
  57   30   31 ar
  58   30   55 1
  59   31   56 1
  60   33   34 1
  61   33   57 1
  62   33   58 1
  63   34   59 1

#	End of record

