#	Name: ASD03082069
#	Creating user name:	WinNT
#	Creation time:	15. 06. 2019 20:27

#	Modifying user name:	WinNT
#	Modification time:	15. 06. 2019 20:27

#	Program:	/corina/corina34_cracker 3.40 0067  02.08.2006

@<TRIPOS>MOLECULE
ASD03082069
  69   73    0    0    0
SMALL
NO_CHARGES


@<TRIPOS>ATOM
   1 C1            -0.0176     1.4478     0.0100 C.3     
   2 O2             0.0021    -0.0041     0.0020 O.3     
   3 C3            -1.1901    -0.6321     0.0100 C.2     
   4 C4            -1.2473    -2.1054     0.0027 C.ar    
   5 O5            -2.2179     0.0157     0.0233 O.2     
   6 C6            -0.0682    -2.8542    -0.0126 C.ar    
   7 C7            -0.1286    -4.2314    -0.0190 C.ar    
   8 C8            -1.3536    -4.8776    -0.0103 C.ar    
   9 C9            -2.5275    -4.1501     0.0044 C.ar    
  10 C10           -2.4861    -2.7636     0.0168 C.ar    
  11 N11           -3.6720    -2.0264     0.0316 N.am    
  12 C12           -4.2797    -1.6543     1.1650 C.2     
  13 C13           -5.5313    -0.8745     0.8260 C.3     
  14 C14           -5.5418    -0.8604    -0.7162 C.3     
  15 C15           -4.2919    -1.6288    -1.0864 C.2     
  16 O16           -3.8892    -1.9029     2.2854 O.2     
  17 O17           -3.9154    -1.8548    -2.2163 O.2     
  18 C18            1.4178     1.9774    -0.0009 C.3     
  19 C19            2.0960     1.5891    -1.3176 C.3     
  20 C20            3.5108     2.1738    -1.3457 C.3     
  21 C21            3.4332     3.6929    -1.1776 C.3     
  22 N22            2.7773     4.0127     0.0968 N.3     
  23 C23            1.4008     3.5022     0.1283 C.3     
  24 C24            2.8087     5.4582     0.3568 C.3     
  25 C25            1.9534     6.1825    -0.6846 C.3     
  26 C26           -6.7727    -1.5872     1.3664 C.3     
  27 O27            0.5856     5.7997    -0.5273 O.3     
  28 C28           -0.3131     6.3571    -1.3806 C.ar    
  29 C29            0.1272     7.2598    -2.3532 C.ar    
  30 C30           -0.7483     7.8344    -3.2212 C.ar    
  31 C31           -2.1157     7.5188    -3.1432 C.ar    
  32 C32           -2.5645     6.6034    -2.1581 C.ar    
  33 C33           -1.6341     6.0238    -1.2805 C.ar    
  34 C34           -3.0476     8.0944    -4.0237 C.ar    
  35 C35           -4.3644     7.7666    -3.9196 C.ar    
  36 C36           -4.8058     6.8669    -2.9509 C.ar    
  37 C37           -3.9327     6.2893    -2.0815 C.ar    
  38 H38           -0.5448     1.8089    -0.8731 H       
  39 H39           -0.5278     1.7993     0.9068 H       
  40 H40            0.8894    -2.3549    -0.0198 H       
  41 H41            0.7837    -4.8092    -0.0311 H       
  42 H42           -1.3911    -5.9569    -0.0153 H       
  43 H43           -3.4788    -4.6614     0.0104 H       
  44 H44           -5.4691     0.1405     1.2185 H       
  45 H45           -6.4313    -1.3611    -1.0984 H       
  46 H46           -5.4847     0.1616    -1.0909 H       
  47 H47            1.9708     1.5470     0.8341 H       
  48 H48            2.1491     0.5030    -1.3936 H       
  49 H49            1.5211     1.9860    -2.1543 H       
  50 H50            4.0972     1.7471    -0.5319 H       
  51 H51            3.9837     1.9368    -2.2988 H       
  52 H52            4.4399     4.1108    -1.1828 H       
  53 H53            2.8584     4.1203    -1.9992 H       
  54 H54            0.8355     3.9305    -0.6994 H       
  55 H55            0.9313     3.7816     1.0715 H       
  56 H56            2.4137     5.6568     1.3531 H       
  57 H57            3.8365     5.8161     0.2955 H       
  58 H58            2.0474     7.2596    -0.5465 H       
  59 H59            2.2932     5.9133    -1.6847 H       
  60 H60           -6.7084    -1.6557     2.4523 H       
  61 H61           -7.6641    -1.0241     1.0899 H       
  62 H62           -6.8299    -2.5895     0.9418 H       
  63 H63            1.1772     7.5045    -2.4160 H       
  64 H64           -0.3942     8.5305    -3.9671 H       
  65 H65           -1.9621     5.3249    -0.5253 H       
  66 H66           -2.7205     8.7937    -4.7789 H       
  67 H67           -5.0782     8.2106    -4.5977 H       
  68 H68           -5.8564     6.6242    -2.8897 H       
  69 H69           -4.2891     5.5942    -1.3357 H       
@<TRIPOS>BOND
   1    1    2 1
   2    1   18 1
   3    1   38 1
   4    1   39 1
   5    2    3 1
   6    3    4 1
   7    3    5 2
   8    4    6 ar
   9    4   10 ar
  10    6    7 ar
  11    6   40 1
  12    7    8 ar
  13    7   41 1
  14    8    9 ar
  15    8   42 1
  16    9   10 ar
  17    9   43 1
  18   10   11 1
  19   11   12 am
  20   11   15 am
  21   12   13 1
  22   12   16 2
  23   13   14 1
  24   13   26 1
  25   13   44 1
  26   14   15 1
  27   14   45 1
  28   14   46 1
  29   15   17 2
  30   18   19 1
  31   18   23 1
  32   18   47 1
  33   19   20 1
  34   19   48 1
  35   19   49 1
  36   20   21 1
  37   20   50 1
  38   20   51 1
  39   21   22 1
  40   21   52 1
  41   21   53 1
  42   22   23 1
  43   22   24 1
  44   23   54 1
  45   23   55 1
  46   24   25 1
  47   24   56 1
  48   24   57 1
  49   25   27 1
  50   25   58 1
  51   25   59 1
  52   26   60 1
  53   26   61 1
  54   26   62 1
  55   27   28 1
  56   28   29 ar
  57   28   33 ar
  58   29   30 ar
  59   29   63 1
  60   30   31 ar
  61   30   64 1
  62   31   32 ar
  63   31   34 ar
  64   32   33 ar
  65   32   37 ar
  66   33   65 1
  67   34   35 ar
  68   34   66 1
  69   35   36 ar
  70   35   67 1
  71   36   37 ar
  72   36   68 1
  73   37   69 1

#	End of record

