#	Name: ASD01885238
#	Creating user name:	WinNT
#	Creation time:	15. 06. 2019 19:49

#	Modifying user name:	WinNT
#	Modification time:	15. 06. 2019 19:49

#	Program:	/corina/corina34_cracker 3.40 0067  02.08.2006

@<TRIPOS>MOLECULE
ASD01885238
  56   59    0    0    0
SMALL
NO_CHARGES


@<TRIPOS>ATOM
   1 N1             0.3475     1.2469    -0.0412 N.ar    
   2 C2             0.4154    -0.0706    -0.0628 C.ar    
   3 C3             1.6424    -0.7421    -0.1153 C.ar    
   4 C4             2.8214    -0.0105    -0.1461 C.ar    
   5 C5             2.7255     1.4038    -0.1226 C.ar    
   6 C6             3.8702     2.2105    -0.1515 C.ar    
   7 C7             3.7404     3.5669    -0.1281 C.ar    
   8 C8             2.4824     4.1637    -0.0757 C.ar    
   9 C9             1.3493     3.4112    -0.0459 C.ar    
  10 C10            1.4429     2.0064    -0.0687 C.ar    
  11 C11           -0.8396    -0.8596    -0.0301 C.2     
  12 O12           -0.7945    -2.0737    -0.0494 O.2     
  13 N13           -2.0302    -0.2302     0.0210 N.am    
  14 C14            4.1383    -0.6860    -0.2014 C.ar    
  15 C15            5.0317    -0.5670     0.8635 C.ar    
  16 C16            6.2567    -1.1989     0.8063 C.ar    
  17 C17            6.6001    -1.9493    -0.3044 C.ar    
  18 C18            5.7186    -2.0711    -1.3634 C.ar    
  19 C19            4.4879    -1.4484    -1.3156 C.ar    
  20 C20            4.6596     0.2507     2.0734 C.3     
  21 C21            2.3752     5.6667    -0.0511 C.3     
  22 N22            2.2920     6.1728    -1.4234 N.pl3   
  23 N23            3.1338     5.9345    -2.3675 N.2     
  24 N24            2.7681     6.5281    -3.4484 N.2     
  25 C25            1.6308     7.1923    -3.2141 C.2     
  26 C26            1.3139     6.9665    -1.9177 C.2     
  27 C27            0.8525     8.0239    -4.2009 C.3     
  28 C28            1.7341     9.1642    -4.7141 C.3     
  29 C29            2.1733    10.0384    -3.5377 C.3     
  30 C30            0.4181     7.1464    -5.3766 C.3     
  31 F31           -0.3457     6.0749    -4.9015 F       
  32 F32           -0.3476     7.9061    -6.2676 F       
  33 F33            1.5504     6.6558    -6.0357 F       
  34 O34           -0.3031     8.5669    -3.5593 O.3     
  35 H35            1.6715    -1.8216    -0.1314 H       
  36 H36            4.8509     1.7598    -0.1918 H       
  37 H37            4.6241     4.1874    -0.1502 H       
  38 H38            0.3818     3.8894    -0.0053 H       
  39 H39           -2.0662     0.7390     0.0364 H       
  40 H40           -2.8512    -0.7464     0.0423 H       
  41 H41            6.9492    -1.1075     1.6300 H       
  42 H42            7.5605    -2.4416    -0.3448 H       
  43 H43            5.9924    -2.6579    -2.2278 H       
  44 H44            3.7988    -1.5476    -2.1413 H       
  45 H45            4.1595    -0.3866     2.8028 H       
  46 H46            5.5609     0.6732     2.5176 H       
  47 H47            3.9893     1.0568     1.7751 H       
  48 H48            1.4802     5.9581     0.4985 H       
  49 H49            3.2546     6.0857     0.4380 H       
  50 H50            0.4544     7.3451    -1.3846 H       
  51 H51            2.6135     8.7500    -5.2072 H       
  52 H52            1.1698     9.7682    -5.4247 H       
  53 H53            2.8719    10.7973    -3.8899 H       
  54 H54            1.3008    10.5230    -3.0995 H       
  55 H55            2.6601     9.4175    -2.7856 H       
  56 H56           -0.1026     9.1351    -2.8030 H       
@<TRIPOS>BOND
   1    1    2 ar
   2    1   10 ar
   3    2    3 ar
   4    2   11 1
   5    3    4 ar
   6    3   35 1
   7    4    5 ar
   8    4   14 1
   9    5    6 ar
  10    5   10 ar
  11    6    7 ar
  12    6   36 1
  13    7    8 ar
  14    7   37 1
  15    8    9 ar
  16    8   21 1
  17    9   10 ar
  18    9   38 1
  19   11   12 2
  20   11   13 am
  21   13   39 1
  22   13   40 1
  23   14   15 ar
  24   14   19 ar
  25   15   16 ar
  26   15   20 1
  27   16   17 ar
  28   16   41 1
  29   17   18 ar
  30   17   42 1
  31   18   19 ar
  32   18   43 1
  33   19   44 1
  34   20   45 1
  35   20   46 1
  36   20   47 1
  37   21   22 1
  38   21   48 1
  39   21   49 1
  40   22   23 1
  41   22   26 1
  42   23   24 2
  43   24   25 1
  44   25   26 2
  45   25   27 1
  46   26   50 1
  47   27   28 1
  48   27   30 1
  49   27   34 1
  50   28   29 1
  51   28   51 1
  52   28   52 1
  53   29   53 1
  54   29   54 1
  55   29   55 1
  56   30   31 1
  57   30   32 1
  58   30   33 1
  59   34   56 1

#	End of record

