#	Name: ASD01911983
#	Creating user name:	WinNT
#	Creation time:	15. 06. 2019 19:58

#	Modifying user name:	WinNT
#	Modification time:	15. 06. 2019 19:58

#	Program:	/corina/corina34_cracker 3.40 0067  02.08.2006

@<TRIPOS>MOLECULE
ASD01911983
  38   40    0    0    0
SMALL
NO_CHARGES


@<TRIPOS>ATOM
   1 C1            -1.4599     1.2099     1.7772 C.ar    
   2 C2            -1.3775    -0.1718     1.6214 C.ar    
   3 C3            -1.5436    -0.9734     2.7484 C.ar    
   4 N4            -1.7719    -0.3976     3.9170 N.ar    
   5 C5            -1.8428     0.9142     4.0228 C.ar    
   6 N6            -1.6912     1.7069     2.9808 N.ar    
   7 N7            -1.1349    -0.7390     0.3672 N.pl3   
   8 C8            -1.0290    -2.1258     0.2364 C.ar    
   9 C9             0.3005    -4.0765    -0.2081 C.ar    
  10 C10           -0.8128    -4.8783    -0.0254 C.ar    
  11 C11           -2.0397    -4.3051     0.2838 C.ar    
  12 C12           -2.1477    -2.9276     0.4148 C.ar    
  13 N13           -3.1641    -5.1157     0.4677 N.am    
  14 C14           -3.0285    -6.3445     1.0046 C.2     
  15 C15           -4.2020    -7.2426     1.1046 C.ar    
  16 O16           -1.9433    -6.7156     1.4066 O.2     
  17 C17           -4.0551    -8.5105     1.6601 C.ar    
  18 C18            0.1953    -2.7031    -0.0780 C.ar    
  19 C19           -0.9917     0.1209    -0.8102 C.3     
  20 C20           -5.1622    -9.3413     1.7482 C.ar    
  21 C21           -6.3780    -8.8749     1.2774 C.ar    
  22 C22           -6.4532    -7.5982     0.7347 C.ar    
  23 N23           -5.3865    -6.8290     0.6683 N.ar    
  24 F24           -7.6369    -7.1381     0.2739 F       
  25 F25            1.4929    -4.6362    -0.5084 F       
  26 H26           -1.3323     1.8657     0.9287 H       
  27 H27           -1.4872    -2.0490     2.6690 H       
  28 H28           -2.0309     1.3524     4.9918 H       
  29 H29           -0.7277    -5.9504    -0.1238 H       
  30 H30           -3.1008    -2.4804     0.6556 H       
  31 H31           -4.0417    -4.7936     0.2089 H       
  32 H32           -3.0917    -8.8430     2.0175 H       
  33 H33            1.0652    -2.0793    -0.2213 H       
  34 H34            0.0558     0.3955    -0.9343 H       
  35 H35           -1.3340    -0.4152    -1.6954 H       
  36 H36           -1.5903     1.0220    -0.6770 H       
  37 H37           -5.0778   -10.3302     2.1742 H       
  38 H38           -7.2588    -9.4975     1.3313 H       
@<TRIPOS>BOND
   1    1    2 ar
   2    1    6 ar
   3    1   26 1
   4    2    3 ar
   5    2    7 1
   6    3    4 ar
   7    3   27 1
   8    4    5 ar
   9    5    6 ar
  10    5   28 1
  11    7    8 1
  12    7   19 1
  13    8   18 ar
  14    8   12 ar
  15    9   10 ar
  16    9   25 1
  17    9   18 ar
  18   10   11 ar
  19   10   29 1
  20   11   12 ar
  21   11   13 1
  22   12   30 1
  23   13   14 am
  24   13   31 1
  25   14   15 1
  26   14   16 2
  27   15   17 ar
  28   15   23 ar
  29   17   20 ar
  30   17   32 1
  31   18   33 1
  32   19   34 1
  33   19   35 1
  34   19   36 1
  35   20   21 ar
  36   20   37 1
  37   21   22 ar
  38   21   38 1
  39   22   23 ar
  40   22   24 1

#	End of record

