#	Name: ASD01810521
#	Creating user name:	WinNT
#	Creation time:	15. 06. 2019 19:24

#	Modifying user name:	WinNT
#	Modification time:	15. 06. 2019 19:24

#	Program:	/corina/corina34_cracker 3.40 0067  02.08.2006

@<TRIPOS>MOLECULE
ASD01810521
  47   50    0    0    0
SMALL
NO_CHARGES


@<TRIPOS>ATOM
   1 C1            -0.0195     1.4845    -0.0192 C.ar    
   2 C2            -0.0446     0.0986    -0.0491 C.ar    
   3 C3             1.1469    -0.5989    -0.0668 C.ar    
   4 N4             2.3025     0.0363    -0.0404 N.ar    
   5 C5             2.3742     1.3581     0.0057 C.ar    
   6 C6             1.2144     2.1304    -0.0060 C.ar    
   7 N7             1.2534     3.5192    -0.0467 N.am    
   8 C8             2.0798     4.3170     0.6118 C.2     
   9 C9             3.1434     3.8793     1.5256 C.ar    
  10 N10            3.6277     1.9693     0.1139 N.am    
  11 C11            3.3995     4.6039     2.6937 C.ar    
  12 C12            3.9097     2.7452     1.2360 C.ar    
  13 C13            4.9437     2.3760     2.0864 C.ar    
  14 C14            5.1939     3.1081     3.2300 C.ar    
  15 C15            4.4182     4.2141     3.5361 C.ar    
  16 O16            1.9473     5.5140     0.4456 O.2     
  17 C17            4.5511     1.8095    -0.8547 C.2     
  18 C18            4.2361     0.9678    -2.0645 C.3     
  19 O19            5.6355     2.3431    -0.7529 O.2     
  20 N20            5.3380     1.0677    -3.0308 N.3     
  21 C21            5.4361     2.4277    -3.5790 C.3     
  22 C22            6.6416     2.5105    -4.5184 C.3     
  23 N23            6.4893     1.5217    -5.5948 N.3     
  24 C24            6.3912     0.1617    -5.0467 C.3     
  25 C25            5.1858     0.0789    -4.1072 C.3     
  26 C26            7.5912     1.6216    -6.5611 C.3     
  27 H27           -0.9383     2.0520    -0.0108 H       
  28 H28           -0.9864    -0.4300    -0.0581 H       
  29 H29            1.1325    -1.6782    -0.1022 H       
  30 H30            0.6031     3.9520    -0.6217 H       
  31 H31            2.7992     5.4684     2.9358 H       
  32 H32            5.5527     1.5151     1.8531 H       
  33 H33            5.9981     2.8168     3.8894 H       
  34 H34            4.6128     4.7739     4.4390 H       
  35 H35            4.1118    -0.0718    -1.7614 H       
  36 H36            3.3151     1.3245    -2.5255 H       
  37 H37            4.5270     2.6632    -4.1323 H       
  38 H38            5.5609     3.1403    -2.7636 H       
  39 H39            6.6993     3.5103    -4.9486 H       
  40 H40            7.5535     2.3017    -3.9591 H       
  41 H41            6.2665    -0.5509    -5.8620 H       
  42 H42            7.3003    -0.0738    -4.4933 H       
  43 H43            5.1280    -0.9210    -3.6770 H       
  44 H44            4.2738     0.2877    -4.6666 H       
  45 H45            8.5381     1.4413    -6.0524 H       
  46 H46            7.4538     0.8788    -7.3469 H       
  47 H47            7.5992     2.6188    -7.0012 H       
@<TRIPOS>BOND
   1    1    2 ar
   2    1    6 ar
   3    1   27 1
   4    2    3 ar
   5    2   28 1
   6    3    4 ar
   7    3   29 1
   8    4    5 ar
   9    5    6 ar
  10    5   10 1
  11    6    7 1
  12    7    8 am
  13    7   30 1
  14    8    9 1
  15    8   16 2
  16    9   12 ar
  17    9   11 ar
  18   10   12 1
  19   10   17 am
  20   11   15 ar
  21   11   31 1
  22   12   13 ar
  23   13   14 ar
  24   13   32 1
  25   14   15 ar
  26   14   33 1
  27   15   34 1
  28   17   18 1
  29   17   19 2
  30   18   20 1
  31   18   35 1
  32   18   36 1
  33   20   21 1
  34   20   25 1
  35   21   22 1
  36   21   37 1
  37   21   38 1
  38   22   23 1
  39   22   39 1
  40   22   40 1
  41   23   24 1
  42   23   26 1
  43   24   25 1
  44   24   41 1
  45   24   42 1
  46   25   43 1
  47   25   44 1
  48   26   45 1
  49   26   46 1
  50   26   47 1

#	End of record

