#	Name: ASD03731592
#	Creating user name:	WinNT
#	Creation time:	15. 06. 2019 20:46

#	Modifying user name:	WinNT
#	Modification time:	15. 06. 2019 20:46

#	Program:	/corina/corina34_cracker 3.40 0067  02.08.2006

@<TRIPOS>MOLECULE
ASD03731592
  37   38    0    0    0
SMALL
NO_CHARGES


@<TRIPOS>ATOM
   1 C1            -0.0179     1.4702     0.0101 C.2     
   2 C2             0.0021    -0.0041     0.0020 C.ar    
   3 C3             1.2227    -0.6898    -0.0133 C.ar    
   4 C4             1.2357    -2.0699    -0.0204 C.ar    
   5 C5             0.0405    -2.7771    -0.0127 C.ar    
   6 C6            -1.1747    -2.0987     0.0020 C.ar    
   7 C7            -1.1976    -0.7217     0.0155 C.ar    
   8 O8             1.0268     2.0925     0.0035 O.2     
   9 N9            -1.1941     2.1282     0.0193 N.am    
  10 F10            2.3854    -0.0019    -0.0216 F       
  11 O11            0.0574    -4.1341    -0.0202 O.3     
  12 C12            0.0769    -4.7788     1.1770 C.ar    
  13 C13            0.0948    -6.1703     1.2195 C.ar    
  14 C14            0.1145    -6.8228     2.4412 C.ar    
  15 C15            0.1164    -6.0915     3.6160 C.ar    
  16 C16            0.0982    -4.7091     3.5733 C.ar    
  17 C17            0.0847    -4.0522     2.3566 C.ar    
  18 O18            0.0924    -6.8873     0.0641 O.3     
  19 C19            0.1115    -8.3111     0.1841 C.3     
  20 F20           -1.0187    -8.7346     0.8916 F       
  21 F21            0.1061    -8.8867    -1.0910 F       
  22 F22            1.2656    -8.7060     0.8691 F       
  23 Cl23           0.1412    -6.9108     5.1463 Cl      
  24 Cl24          -2.6644    -2.9899     0.0104 Cl      
  25 S25            2.7703    -2.9355    -0.0397 S.o2    
  26 O26            2.4619    -4.1820    -0.6482 O.2     
  27 O27            3.6773    -2.0271    -0.6492 O.2     
  28 C28            3.1816    -3.1666     1.7119 C.3     
  29 H29           -2.1414    -0.1968     0.0318 H       
  30 H30           -2.0275     1.6318     0.0205 H       
  31 H31           -1.2073     3.0981     0.0246 H       
  32 H32            0.1281    -7.9021     2.4768 H       
  33 H33            0.0990    -4.1415     4.4921 H       
  34 H34            0.0753    -2.9727     2.3259 H       
  35 H35            2.3947    -3.7443     2.1967 H       
  36 H36            4.1283    -3.7005     1.7954 H       
  37 H37            3.2691    -2.1940     2.1960 H       
@<TRIPOS>BOND
   1    1    2 1
   2    1    8 2
   3    1    9 am
   4    2    3 ar
   5    2    7 ar
   6    3    4 ar
   7    3   10 1
   8    4    5 ar
   9    4   25 1
  10    5    6 ar
  11    5   11 1
  12    6    7 ar
  13    6   24 1
  14    7   29 1
  15    9   30 1
  16    9   31 1
  17   11   12 1
  18   12   13 ar
  19   12   17 ar
  20   13   14 ar
  21   13   18 1
  22   14   15 ar
  23   14   32 1
  24   15   16 ar
  25   15   23 1
  26   16   17 ar
  27   16   33 1
  28   17   34 1
  29   18   19 1
  30   19   20 1
  31   19   21 1
  32   19   22 1
  33   25   26 2
  34   25   27 2
  35   25   28 1
  36   28   35 1
  37   28   36 1
  38   28   37 1

#	End of record

