#	Name: ASD01810617
#	Creating user name:	WinNT
#	Creation time:	15. 06. 2019 19:24

#	Modifying user name:	WinNT
#	Modification time:	15. 06. 2019 19:24

#	Program:	/corina/corina34_cracker 3.40 0067  02.08.2006

@<TRIPOS>MOLECULE
ASD01810617
  26   26    0    0    0
SMALL
NO_CHARGES


@<TRIPOS>ATOM
   1 C1            -0.0168     1.4606     0.0240 C.2     
   2 C2             0.0024    -0.0036     0.0086 C.2     
   3 C3             1.2775    -0.7175    -0.0140 C.2     
   4 O4             1.0278     2.0822     0.0180 O.2     
   5 O5            -1.1943     2.1199     0.0392 O.3     
   6 O6             2.3205    -0.0978    -0.1180 O.2     
   7 C7             1.3010    -2.1893     0.0893 C.ar    
   8 C8             1.1439    -2.9792    -1.0578 C.ar    
   9 C9             1.1672    -4.3560    -0.9514 C.ar    
  10 C10            1.3449    -4.9562     0.2834 C.ar    
  11 C11            1.5009    -4.1842     1.4219 C.ar    
  12 C12            1.4861    -2.8059     1.3342 C.ar    
  13 F13            1.6441    -2.0544     2.4458 F       
  14 F14            0.9699    -2.3956    -2.2638 F       
  15 N15           -1.0717    -0.6428     0.0147 N.1     
  16 N16           -2.0376    -1.2176     0.0202 N.pl3   
  17 C17           -1.1382     3.5477     0.0537 C.3     
  18 C18           -2.5596     4.1138     0.0697 C.3     
  19 H19            1.0460    -4.9663    -1.8341 H       
  20 H20            1.3617    -6.0334     0.3590 H       
  21 H21            1.6386    -4.6612     2.3810 H       
  22 H22           -0.6043     3.8814     0.9435 H       
  23 H23           -0.6169     3.8999    -0.8364 H       
  24 H24           -2.5168     5.2029     0.0807 H       
  25 H25           -3.0936     3.7802    -0.8201 H       
  26 H26           -3.0810     3.7616     0.9597 H       
@<TRIPOS>BOND
   1    1    2 1
   2    1    4 2
   3    1    5 1
   4    2    3 1
   5    2   15 2
   6    3    6 2
   7    3    7 1
   8    5   17 1
   9    7    8 ar
  10    7   12 ar
  11    8    9 ar
  12    8   14 1
  13    9   10 ar
  14    9   19 1
  15   10   11 ar
  16   10   20 1
  17   11   12 ar
  18   11   21 1
  19   12   13 1
  20   15   16 2
  21   17   18 1
  22   17   22 1
  23   17   23 1
  24   18   24 1
  25   18   25 1
  26   18   26 1

#	End of record

