#	Name: ASD01812723
#	Creating user name:	WinNT
#	Creation time:	15. 06. 2019 19:29

#	Modifying user name:	WinNT
#	Modification time:	15. 06. 2019 19:29

#	Program:	/corina/corina34_cracker 3.40 0067  02.08.2006

@<TRIPOS>MOLECULE
ASD01812723
  53   57    0    0    0
SMALL
NO_CHARGES


@<TRIPOS>ATOM
   1 N1            -0.0158     1.3146     0.0093 N.ar    
   2 C2             0.0021    -0.0041     0.0020 C.ar    
   3 C3             1.1989    -0.7034    -0.0132 C.ar    
   4 C4             2.3830    -0.0017    -0.0207 C.ar    
   5 C5             2.3452     1.3975    -0.0128 C.ar    
   6 C6             1.0958     2.0332     0.0025 C.ar    
   7 C7             3.8374    -0.3895    -0.0367 C.3     
   8 N8             4.5957     0.8678    -0.0372 N.am    
   9 C9             3.7284     1.8956    -0.0234 C.2     
  10 C10            6.0561     0.9836    -0.0500 C.3     
  11 C11            6.5437     1.0306    -1.4752 C.ar    
  12 C12            6.4771     2.2159    -2.1889 C.ar    
  13 C13            6.9239     2.2632    -3.4966 C.ar    
  14 C14            7.4410     1.1168    -4.0943 C.ar    
  15 C15            7.5052    -0.0722    -3.3709 C.ar    
  16 C16            7.0616    -0.1083    -2.0645 C.ar    
  17 O17            1.0259     3.3855     0.0104 O.3     
  18 O18            4.0435     3.0700    -0.0201 O.2     
  19 C19           -0.2061     3.9611     0.0253 C.ar    
  20 C20            7.2411     1.6647    -6.5682 C.2     
  21 C21            7.9219     1.1613    -5.4984 C.2     
  22 C22            9.1642     0.6921    -5.9678 C.2     
  23 N23            9.2187     0.9067    -7.2557 N.2     
  24 N24            8.0235     1.5162    -7.6561 N.pl3   
  25 C25           10.2428     0.0543    -5.1307 C.3     
  26 C26            7.6818     1.9219    -9.0217 C.3     
  27 F27            5.9746     3.3268    -1.6069 F       
  28 C28           -0.8250     4.2492     1.2345 C.ar    
  29 C29           -2.0783     4.8353     1.2461 C.ar    
  30 C30           -2.7144     5.1341     0.0556 C.ar    
  31 C31           -2.1010     4.8486    -1.1501 C.ar    
  32 C32           -0.8454     4.2673    -1.1687 C.ar    
  33 F33           -0.2445     3.9933    -2.3472 F       
  34 F34           -0.2042     3.9570     2.3984 F       
  35 H35           -0.9309    -0.5480     0.0084 H       
  36 H36            1.2022    -1.7834    -0.0186 H       
  37 H37            4.0796    -0.9730     0.8516 H       
  38 H38            4.0625    -0.9634    -0.9356 H       
  39 H39            6.3527     1.8968     0.4658 H       
  40 H40            6.4933     0.1224     0.4553 H       
  41 H41            6.8717     3.1872    -4.0533 H       
  42 H42            7.9052    -0.9638    -3.8308 H       
  43 H43            7.1156    -1.0289    -1.5024 H       
  44 H44            6.2525     2.0991    -6.5480 H       
  45 H45           10.0888    -1.0244    -5.1002 H       
  46 H46           11.2175     0.2699    -5.5682 H       
  47 H47           10.2021     0.4559    -4.1182 H       
  48 H48            8.0106     2.9476    -9.1891 H       
  49 H49            8.1780     1.2607    -9.7321 H       
  50 H50            6.6024     1.8593    -9.1600 H       
  51 H51           -2.5604     5.0593     2.1863 H       
  52 H52           -3.6928     5.5913     0.0674 H       
  53 H53           -2.6006     5.0833    -2.0784 H       
@<TRIPOS>BOND
   1    1    2 ar
   2    1    6 ar
   3    2    3 ar
   4    2   35 1
   5    3    4 ar
   6    3   36 1
   7    4    7 1
   8    4    5 ar
   9    5    6 ar
  10    5    9 1
  11    6   17 1
  12    7    8 1
  13    7   37 1
  14    7   38 1
  15    8    9 am
  16    8   10 1
  17    9   18 2
  18   10   11 1
  19   10   39 1
  20   10   40 1
  21   11   12 ar
  22   11   16 ar
  23   12   13 ar
  24   12   27 1
  25   13   14 ar
  26   13   41 1
  27   14   15 ar
  28   14   21 1
  29   15   16 ar
  30   15   42 1
  31   16   43 1
  32   17   19 1
  33   19   28 ar
  34   19   32 ar
  35   20   21 2
  36   20   24 1
  37   20   44 1
  38   21   22 1
  39   22   23 2
  40   22   25 1
  41   23   24 1
  42   24   26 1
  43   25   45 1
  44   25   46 1
  45   25   47 1
  46   26   48 1
  47   26   49 1
  48   26   50 1
  49   28   29 ar
  50   28   34 1
  51   29   30 ar
  52   29   51 1
  53   30   31 ar
  54   30   52 1
  55   31   32 ar
  56   31   53 1
  57   32   33 1

#	End of record

