#	Name: ASD01883009
#	Creating user name:	WinNT
#	Creation time:	15. 06. 2019 19:45

#	Modifying user name:	WinNT
#	Modification time:	15. 06. 2019 19:45

#	Program:	/corina/corina34_cracker 3.40 0067  02.08.2006

@<TRIPOS>MOLECULE
ASD01883009
  53   55    0    0    0
SMALL
NO_CHARGES


@<TRIPOS>ATOM
   1 C1            -2.6328    -1.7010     2.7693 C.ar    
   2 C2            -1.6988    -2.0060     1.7969 C.ar    
   3 C3            -0.7362    -2.9677     2.0406 C.ar    
   4 C4            -0.7073    -3.6241     3.2568 C.ar    
   5 C5            -1.6407    -3.3185     4.2296 C.ar    
   6 C6            -2.6042    -2.3578     3.9854 C.ar    
   7 C7             1.6872    -3.0223     1.5171 C.3     
   8 C8             0.2814    -3.3009     0.9802 C.3     
   9 C9             0.1608    -4.7795     0.6045 C.3     
  10 C10            1.1730    -5.1063    -0.4980 C.3     
  11 N11            2.5120    -4.7063    -0.0443 N.pl3   
  12 C12            2.7167    -3.3292     0.4250 C.3     
  13 N13            5.6492    -7.4051    -0.0592 N.am    
  14 C14            5.0918    -7.0664    -1.2365 C.2     
  15 C15            4.0171    -6.1467    -1.2697 C.2     
  16 C16            3.5549    -5.6050    -0.0583 C.2     
  17 C17            4.1787    -5.9982     1.1401 C.2     
  18 C18            5.1979    -6.8845     1.1116 C.2     
  19 O19            5.5126    -7.5512    -2.2733 O.2     
  20 C20            3.4125    -5.7748    -2.5134 C.1     
  21 N21            2.9330    -5.4798    -3.5001 N.1     
  22 C22            6.7610    -8.3590    -0.0394 C.3     
  23 C23            8.0848    -7.6018    -0.1627 C.3     
  24 C24            9.2459    -8.5980    -0.1419 C.3     
  25 C25           10.5600    -7.8548    -0.3900 C.3     
  26 C26            9.3005    -9.2893     1.2219 C.3     
  27 H27           -3.3821    -0.9465     2.5806 H       
  28 H28           -1.7214    -1.4932     0.8467 H       
  29 H29            0.0443    -4.3760     3.4470 H       
  30 H30           -1.6184    -3.8316     5.1796 H       
  31 H31           -3.3333    -2.1187     4.7454 H       
  32 H32            1.7651    -1.9742     1.8064 H       
  33 H33            1.8773    -3.6546     2.3844 H       
  34 H34            0.1012    -2.6864     0.0981 H       
  35 H35            0.3653    -5.3953     1.4803 H       
  36 H36           -0.8478    -4.9822     0.2441 H       
  37 H37            1.1604    -6.1774    -0.6998 H       
  38 H38            0.9155    -4.5586    -1.4045 H       
  39 H39            2.5851    -2.6365    -0.4062 H       
  40 H40            3.7227    -3.2277     0.8322 H       
  41 H41            3.8401    -5.5947     2.0830 H       
  42 H42            5.6687    -7.1791     2.0378 H       
  43 H43            6.7462    -8.9147     0.8982 H       
  44 H44            6.6598    -9.0523    -0.8743 H       
  45 H45            8.0995    -7.0461    -1.1002 H       
  46 H46            8.1860    -6.9085     0.6723 H       
  47 H47            9.0980    -9.3447    -0.9221 H       
  48 H48           10.7080    -7.1081     0.3902 H       
  49 H49           11.3872    -8.5644    -0.3752 H       
  50 H50           10.5211    -7.3623    -1.3616 H       
  51 H51            9.4484    -8.5426     2.0020 H       
  52 H52            8.3643    -9.8188     1.3986 H       
  53 H53           10.1277    -9.9990     1.2366 H       
@<TRIPOS>BOND
   1    1    2 ar
   2    1    6 ar
   3    1   27 1
   4    2    3 ar
   5    2   28 1
   6    3    4 ar
   7    3    8 1
   8    4    5 ar
   9    4   29 1
  10    5    6 ar
  11    5   30 1
  12    6   31 1
  13    7    8 1
  14    7   12 1
  15    7   32 1
  16    7   33 1
  17    8    9 1
  18    8   34 1
  19    9   10 1
  20    9   35 1
  21    9   36 1
  22   10   11 1
  23   10   37 1
  24   10   38 1
  25   11   12 1
  26   11   16 1
  27   12   39 1
  28   12   40 1
  29   13   14 am
  30   13   22 1
  31   13   18 1
  32   14   15 1
  33   14   19 2
  34   15   16 2
  35   15   20 1
  36   16   17 1
  37   17   18 2
  38   17   41 1
  39   18   42 1
  40   20   21 3
  41   22   23 1
  42   22   43 1
  43   22   44 1
  44   23   24 1
  45   23   45 1
  46   23   46 1
  47   24   25 1
  48   24   26 1
  49   24   47 1
  50   25   48 1
  51   25   49 1
  52   25   50 1
  53   26   51 1
  54   26   52 1
  55   26   53 1

#	End of record

