#	Name: ASD01200107
#	Creating user name:	WinNT
#	Creation time:	15. 06. 2019 19:08

#	Modifying user name:	WinNT
#	Modification time:	15. 06. 2019 19:08

#	Program:	/corina/corina34_cracker 3.40 0067  02.08.2006

@<TRIPOS>MOLECULE
ASD01200107
  55   59    0    0    0
SMALL
NO_CHARGES


@<TRIPOS>ATOM
   1 O1            -0.5065     1.0603    -1.8609 O.3     
   2 C2            -0.3495    -0.1340    -1.2671 C.2     
   3 N3             0.9226    -0.3713    -0.9257 N.am    
   4 C4             1.7224     0.6582    -1.2692 C.2     
   5 C5             0.8127     1.6823    -1.9179 C.3     
   6 O6            -1.2600    -0.9116    -1.0628 O.2     
   7 O7             2.9190     0.7464    -1.0955 O.2     
   8 C8             1.3865    -1.5929    -0.2633 C.3     
   9 C9             1.4728    -6.2205    -4.0399 C.2     
  10 N10            2.5762    -5.5166    -4.0972 N.2     
  11 C11            2.5039    -4.4840    -3.2237 C.ar    
  12 C12            1.2540    -4.5679    -2.5836 C.ar    
  13 N13            0.6218    -5.6744    -3.1178 N.pl3   
  14 C14            3.3819    -3.4484    -2.8869 C.ar    
  15 C15            3.0133    -2.5219    -1.9323 C.ar    
  16 C16            1.7741    -2.6121    -1.3034 C.ar    
  17 C17            0.9002    -3.6278    -1.6257 C.ar    
  18 C18            1.1869    -7.4223    -4.8548 C.ar    
  19 C19            2.1356    -7.8801    -5.7685 C.ar    
  20 C20            1.8537    -9.0059    -6.5232 C.ar    
  21 C21            0.6319    -9.6375    -6.3396 C.ar    
  22 C22           -0.2631    -9.1288    -5.4151 C.ar    
  23 N23            0.0315    -8.0591    -4.7062 N.ar    
  24 O24            3.8658    -1.5151    -1.6036 O.3     
  25 C25            5.0187    -1.3982    -2.3132 C.ar    
  26 C26            5.0399    -0.6602    -3.4881 C.ar    
  27 C27            6.2133    -0.5425    -4.2073 C.ar    
  28 C28            7.3661    -1.1598    -3.7577 C.ar    
  29 C29            7.3477    -1.8957    -2.5872 C.ar    
  30 C30            6.1782    -2.0118    -1.8612 C.ar    
  31 S31            8.8609    -1.0086    -4.6781 S.o2    
  32 O32            9.6004    -2.1737    -4.3392 O.2     
  33 O33            8.4292    -0.7771    -6.0120 O.2     
  34 C34            9.6611     0.4723    -4.0019 C.3     
  35 C35           10.9859     0.7129    -4.7285 C.3     
  36 H36            1.1092     1.8573    -2.9521 H       
  37 H37            0.8213     2.6144    -1.3530 H       
  38 H38            2.2508    -1.3626     0.3596 H       
  39 H39            0.5869    -1.9948     0.3590 H       
  40 H40           -0.2604    -6.0025    -2.8834 H       
  41 H41            4.3440    -3.3740    -3.3717 H       
  42 H42           -0.0593    -3.6917    -1.1341 H       
  43 H43            3.0767    -7.3636    -5.8860 H       
  44 H44            2.5685    -9.3839    -7.2390 H       
  45 H45            0.3818   -10.5177    -6.9132 H       
  46 H46           -1.2148    -9.6183    -5.2701 H       
  47 H47            4.1396    -0.1785    -3.8401 H       
  48 H48            6.2304     0.0317    -5.1218 H       
  49 H49            8.2493    -2.3771    -2.2384 H       
  50 H50            6.1654    -2.5833    -0.9449 H       
  51 H51            9.0083     1.3339    -4.1417 H       
  52 H52            9.8509     0.3291    -2.9382 H       
  53 H53           11.4667     1.6028    -4.3222 H       
  54 H54           11.6387    -0.1487    -4.5887 H       
  55 H55           10.7960     0.8562    -5.7923 H       
@<TRIPOS>BOND
   1    1    2 1
   2    1    5 1
   3    2    3 am
   4    2    6 2
   5    3    4 am
   6    3    8 1
   7    4    5 1
   8    4    7 2
   9    5   36 1
  10    5   37 1
  11    8   16 1
  12    8   38 1
  13    8   39 1
  14    9   10 2
  15    9   13 1
  16    9   18 1
  17   10   11 1
  18   11   12 ar
  19   11   14 ar
  20   12   13 1
  21   12   17 ar
  22   13   40 1
  23   14   15 ar
  24   14   41 1
  25   15   16 ar
  26   15   24 1
  27   16   17 ar
  28   17   42 1
  29   18   19 ar
  30   18   23 ar
  31   19   20 ar
  32   19   43 1
  33   20   21 ar
  34   20   44 1
  35   21   22 ar
  36   21   45 1
  37   22   23 ar
  38   22   46 1
  39   24   25 1
  40   25   26 ar
  41   25   30 ar
  42   26   27 ar
  43   26   47 1
  44   27   28 ar
  45   27   48 1
  46   28   29 ar
  47   28   31 1
  48   29   30 ar
  49   29   49 1
  50   30   50 1
  51   31   32 2
  52   31   33 2
  53   31   34 1
  54   34   35 1
  55   34   51 1
  56   34   52 1
  57   35   53 1
  58   35   54 1
  59   35   55 1

#	End of record

