#	Name: ASD05430299
#	Creating user name:	WinNT
#	Creation time:	15. 06. 2019 21:00

#	Modifying user name:	WinNT
#	Modification time:	15. 06. 2019 21:00

#	Program:	/corina/corina34_cracker 3.40 0067  02.08.2006

@<TRIPOS>MOLECULE
ASD05430299
  68   73    0    0    0
SMALL
NO_CHARGES


@<TRIPOS>ATOM
   1 C1            -0.0459     1.9268    -0.3668 C.ar    
   2 C2            -0.1153     0.6738    -0.9748 C.ar    
   3 C3             1.0447     0.0393    -1.4003 C.ar    
   4 C4             2.2696     0.6450    -1.2237 C.ar    
   5 C5             2.3469     1.9020    -0.6151 C.ar    
   6 C6             1.1793     2.5406    -0.1868 C.ar    
   7 C7             4.6807     0.2991     0.0159 C.3     
   8 C8             4.7521     1.8019    -0.2090 C.2     
   9 C9             3.6548     2.5505    -0.4251 C.2     
  10 C10            5.6495    -0.0637     1.1414 C.3     
  11 C11            7.1056     0.2924     0.8420 C.3     
  12 N12            7.1756     1.6851     0.4055 N.pl3   
  13 C13            6.1127     2.3831    -0.1729 C.2     
  14 C14            8.2930     2.6278     0.4827 C.3     
  15 O15            7.9174     3.6611    -0.4519 O.3     
  16 N16            6.5168     3.5154    -0.6437 N.2     
  17 C17            8.4193     3.1902     1.8751 C.ar    
  18 C18            9.5975     1.9558     0.0496 C.3     
  19 N19           -1.3585     0.0529    -1.1565 N.pl3   
  20 C20           -1.8351    -0.4916    -2.3209 C.2     
  21 C21           -3.0612    -0.9786    -2.0506 C.2     
  22 N22           -3.3307    -0.7408    -0.7584 N.2     
  23 C23           -2.3165    -0.1283    -0.2107 C.2     
  24 C24           -3.9731    -1.6705    -3.0308 C.3     
  25 C25            8.9023     4.4718     2.0615 C.ar    
  26 C26            9.0180     4.9886     3.3387 C.ar    
  27 C27            8.6513     4.2239     4.4297 C.ar    
  28 C28            8.1677     2.9408     4.2438 C.ar    
  29 C29            8.0467     2.4263     2.9654 C.ar    
  30 C30           -1.0383     3.8289     0.6587 C.3     
  31 O31           -1.1838     2.5472     0.0438 O.3     
  32 O32           10.6867     2.8600     0.2448 O.3     
  33 C33            5.1787     0.4023     2.5269 C.3     
  34 O34            5.5986    -0.9017     2.9792 O.3     
  35 C35            5.4654    -1.4935     1.6703 C.3     
  36 Cl36           7.7072     1.9793     5.6139 Cl      
  37 S37            9.6506     6.6670     3.5817 Du      
  38 F38            8.4711     6.9586     4.6380 F       
  39 F39           10.8301     6.3754     2.5254 F       
  40 F40           10.2133     8.1599     3.7978 F       
  41 F41            8.7103     7.1945     2.3860 F       
  42 F42           10.5909     6.1395     4.7773 F       
  43 H43            0.9865    -0.9313    -1.8704 H       
  44 H44            3.1701     0.1491    -1.5549 H       
  45 H45            1.2345     3.5113     0.2833 H       
  46 H46            3.6664     0.0176     0.2990 H       
  47 H47            4.9661    -0.2231    -0.8973 H       
  48 H48            3.7337     3.6271    -0.4592 H       
  49 H49            7.7055     0.1620     1.7427 H       
  50 H50            7.4848    -0.3566     0.0527 H       
  51 H51            9.7593     1.0580     0.6462 H       
  52 H52            9.5344     1.6853    -1.0044 H       
  53 H53           -1.3253    -0.5233    -3.2725 H       
  54 H54           -2.2524     0.1874     0.8202 H       
  55 H55           -3.7776    -2.7427    -3.0144 H       
  56 H56           -5.0111    -1.4862    -2.7538 H       
  57 H57           -3.7902    -1.2830    -4.0330 H       
  58 H58            9.1897     5.0696     1.2092 H       
  59 H59            8.7424     4.6274     5.4273 H       
  60 H60            7.6694     1.4250     2.8196 H       
  61 H61           -2.0200     4.2114     0.9381 H       
  62 H62           -0.4175     3.7360     1.5498 H       
  63 H63           -0.5664     4.5169    -0.0427 H       
  64 H64           11.5474     2.4998    -0.0094 H       
  65 H65            5.7656     1.2228     2.9396 H       
  66 H66            4.1035     0.5680     2.5951 H       
  67 H67            4.4788    -1.9131     1.4739 H       
  68 H68            6.2787    -2.1697     1.4067 H       
@<TRIPOS>BOND
   1    1    2 ar
   2    1    6 ar
   3    1   31 1
   4    2    3 ar
   5    2   19 1
   6    3    4 ar
   7    3   43 1
   8    4    5 ar
   9    4   44 1
  10    5    6 ar
  11    5    9 1
  12    6   45 1
  13    7    8 1
  14    7   10 1
  15    7   46 1
  16    7   47 1
  17    8    9 2
  18    8   13 1
  19    9   48 1
  20   10   11 1
  21   10   33 1
  22   10   35 1
  23   11   12 1
  24   11   49 1
  25   11   50 1
  26   12   13 1
  27   12   14 1
  28   13   16 2
  29   14   15 1
  30   14   17 1
  31   14   18 1
  32   15   16 1
  33   17   25 ar
  34   17   29 ar
  35   18   32 1
  36   18   51 1
  37   18   52 1
  38   19   20 1
  39   19   23 1
  40   20   21 2
  41   20   53 1
  42   21   22 1
  43   21   24 1
  44   22   23 2
  45   23   54 1
  46   24   55 1
  47   24   56 1
  48   24   57 1
  49   25   26 ar
  50   25   58 1
  51   26   27 ar
  52   26   37 1
  53   27   28 ar
  54   27   59 1
  55   28   29 ar
  56   28   36 1
  57   29   60 1
  58   30   31 1
  59   30   61 1
  60   30   62 1
  61   30   63 1
  62   32   64 1
  63   33   34 1
  64   33   65 1
  65   33   66 1
  66   34   35 1
  67   35   67 1
  68   35   68 1
  69   37   38 1
  70   37   39 1
  71   37   40 1
  72   37   41 1
  73   37   42 1

#	End of record

