#	Name: ASD02038696
#	Creating user name:	WinNT
#	Creation time:	15. 06. 2019 20:17

#	Modifying user name:	WinNT
#	Modification time:	15. 06. 2019 20:17

#	Program:	/corina/corina34_cracker 3.40 0067  02.08.2006

@<TRIPOS>MOLECULE
ASD02038696
  45   48    0    0    0
SMALL
NO_CHARGES


@<TRIPOS>ATOM
   1 C1            -0.0168     1.3843     0.0097 C.ar    
   2 C2             0.0021    -0.0041     0.0020 C.ar    
   3 C3             1.2074    -0.6774    -0.0133 C.ar    
   4 O4             3.5858    -0.6315    -0.0356 O.3     
   5 C5             3.5300    -2.0594    -0.0436 C.3     
   6 C6             4.9514    -2.6252    -0.0596 C.3     
   7 C7             4.8948    -4.1497     0.0575 C.3     
   8 S8             6.5760    -4.8077     0.1870 S.3     
   9 C9             5.1128    -8.4060     0.4033 C.ar    
  10 C10            1.1766     2.0940     0.0021 C.ar    
  11 C11            2.3813     1.4196    -0.0126 C.ar    
  12 C12            2.3994     0.0326    -0.0211 C.ar    
  13 O13            5.5937    -2.2651    -1.2843 O.3     
  14 C14            6.4786    -8.7229     0.4909 C.ar    
  15 C15            6.8766   -10.0450     0.6140 C.ar    
  16 C16            5.9280   -11.0480     0.6501 C.ar    
  17 C17            4.5767   -10.7406     0.5634 C.ar    
  18 C18            4.1645    -9.4307     0.4459 C.ar    
  19 C19            6.2223    -6.5297     0.3059 C.2     
  20 N20            7.1590    -7.5172     0.4268 N.pl3   
  21 C21            1.1530     3.6004     0.0104 C.3     
  22 Cl22           6.4281   -12.7033     0.8043 Cl      
  23 Cl23           3.3982   -12.0144     0.6094 Cl      
  24 C24           -0.0573     4.0972    -0.7811 C.3     
  25 C25           -1.2953     3.3656    -0.3371 C.2     
  26 N26           -1.2372     2.0708     0.0191 N.am    
  27 O27           -2.3578     3.9499    -0.3050 O.2     
  28 N28            5.0217    -7.0545     0.2923 N.2     
  29 H29           -0.9256    -0.5570     0.0084 H       
  30 H30            1.2224    -1.7573    -0.0189 H       
  31 H31            3.0103    -2.4077     0.8490 H       
  32 H32            2.9945    -2.3971    -0.9309 H       
  33 H33            5.5145    -2.2170     0.7797 H       
  34 H34            4.3274    -4.4249     0.9466 H       
  35 H35            4.4095    -4.5642    -0.8261 H       
  36 H36            3.3094     1.9719    -0.0187 H       
  37 H37            5.1461    -2.5956    -2.0752 H       
  38 H38            7.9262   -10.2902     0.6811 H       
  39 H39            3.1120    -9.1979     0.3789 H       
  40 H40            8.1208    -7.3968     0.4617 H       
  41 H41            1.0858     3.9569     1.0383 H       
  42 H42            2.0666     3.9805    -0.4466 H       
  43 H43           -0.1875     5.1659    -0.6105 H       
  44 H44            0.1071     3.9189    -1.8437 H       
  45 H45           -2.0456     1.6095     0.2921 H       
@<TRIPOS>BOND
   1    1    2 ar
   2    1   10 ar
   3    1   26 1
   4    2    3 ar
   5    2   29 1
   6    3   12 ar
   7    3   30 1
   8    4    5 1
   9    4   12 1
  10    5    6 1
  11    5   31 1
  12    5   32 1
  13    6    7 1
  14    6   13 1
  15    6   33 1
  16    7    8 1
  17    7   34 1
  18    7   35 1
  19    8   19 1
  20    9   14 ar
  21    9   28 1
  22    9   18 ar
  23   10   11 ar
  24   10   21 1
  25   11   12 ar
  26   11   36 1
  27   13   37 1
  28   14   15 ar
  29   14   20 1
  30   15   16 ar
  31   15   38 1
  32   16   17 ar
  33   16   22 1
  34   17   18 ar
  35   17   23 1
  36   18   39 1
  37   19   20 1
  38   19   28 2
  39   20   40 1
  40   21   24 1
  41   21   41 1
  42   21   42 1
  43   24   25 1
  44   24   43 1
  45   24   44 1
  46   25   26 am
  47   25   27 2
  48   26   45 1

#	End of record

