#	Name: ASD01910379
#	Creating user name:	WinNT
#	Creation time:	15. 06. 2019 19:55

#	Modifying user name:	WinNT
#	Modification time:	15. 06. 2019 19:55

#	Program:	/corina/corina34_cracker 3.40 0067  02.08.2006

@<TRIPOS>MOLECULE
ASD01910379
  64   68    0    0    0
SMALL
NO_CHARGES


@<TRIPOS>ATOM
   1 C1            -0.0330     1.4270    -0.1410 C.ar    
   2 C2            -0.0110    -0.0047    -0.1229 C.1     
   3 C3             0.0071    -1.1785    -0.1081 C.1     
   4 C4             0.0292    -2.6102    -0.0900 C.ar    
   5 C5             0.7019    -3.3127    -1.0960 C.ar    
   6 C6             0.7230    -4.6781    -1.0779 C.ar    
   7 C7             0.0722    -5.3740    -0.0548 C.ar    
   8 C8            -0.6006    -4.6729     0.9504 C.ar    
   9 C9            -0.6172    -3.3073     0.9369 C.ar    
  10 C10            0.0949    -6.8500    -0.0362 C.2     
  11 O11           -0.9425    -7.4725     0.0843 O.2     
  12 N12            1.2657    -7.5075    -0.1526 N.am    
  13 C13           -0.7041     2.1318     0.8623 C.ar    
  14 C14           -0.7210     3.5105     0.8382 C.ar    
  15 C15           -0.0762     4.1963    -0.1762 C.ar    
  16 C16            0.5903     3.5054    -1.1730 C.ar    
  17 C17            0.6212     2.1266    -1.1588 C.ar    
  18 C18            1.3147    -8.9725    -0.0528 C.3     
  19 C19            2.3451    -9.3600     1.0125 C.3     
  20 C20            3.6885    -8.7074     0.6782 C.3     
  21 C21            3.5341    -7.1849     0.6867 C.3     
  22 C22            2.5164    -6.7732    -0.3879 C.3     
  23 N23            4.6877    -9.1036     1.6795 N.3     
  24 C24            6.0192    -8.5921     1.3259 C.3     
  25 C25            7.0131    -8.9574     2.4310 C.3     
  26 N26            7.0403   -10.4171     2.5988 N.3     
  27 C27            5.7088   -10.9286     2.9524 C.3     
  28 C28            4.7149   -10.5633     1.8474 C.3     
  29 C29            7.9869   -10.7924     3.5475 C.ar    
  30 C30            8.1848   -12.1353     3.8684 C.ar    
  31 C31            9.1326   -12.4654     4.8140 C.ar    
  32 N32            9.8468   -11.5300     5.4116 N.ar    
  33 C33            9.6893   -10.2489     5.1355 C.ar    
  34 C34            8.7664    -9.8360     4.1978 C.ar    
  35 H35            1.2041    -2.7752    -1.8868 H       
  36 H36            1.2422    -5.2204    -1.8543 H       
  37 H37           -1.1037    -5.2111     1.7400 H       
  38 H38           -1.1369    -2.7658     1.7135 H       
  39 H39           -1.2084     1.5979     1.6542 H       
  40 H40           -1.2391     4.0565     1.6127 H       
  41 H41           -0.0934     5.2760    -0.1903 H       
  42 H42            1.0910     4.0473    -1.9617 H       
  43 H43            1.1417     1.5888    -1.9373 H       
  44 H44            0.3337    -9.3523     0.2325 H       
  45 H45            1.6068    -9.3947    -1.0144 H       
  46 H46            2.0061    -9.0148     1.9892 H       
  47 H47            2.4612   -10.4436     1.0292 H       
  48 H48            4.0150    -9.0338    -0.3092 H       
  49 H49            3.1839    -6.8602     1.6665 H       
  50 H50            4.4965    -6.7204     0.4715 H       
  51 H51            2.9089    -7.0163    -1.3753 H       
  52 H52            2.3277    -5.7017    -0.3211 H       
  53 H53            6.3418    -9.0376     0.3849 H       
  54 H54            5.9759    -7.5082     1.2195 H       
  55 H55            8.0073    -8.6042     2.1572 H       
  56 H56            6.7053    -8.4895     3.3661 H       
  57 H57            5.7521   -12.0125     3.0588 H       
  58 H58            5.3862   -10.4831     3.8935 H       
  59 H59            3.7207   -10.9165     2.1211 H       
  60 H60            5.0227   -11.0312     0.9122 H       
  61 H61            7.6036   -12.9056     3.3835 H       
  62 H62            9.2924   -13.5026     5.0691 H       
  63 H63           10.2939    -9.5149     5.6476 H       
  64 H64            8.6428    -8.7862     3.9764 H       
@<TRIPOS>BOND
   1    1    2 1
   2    1   13 ar
   3    1   17 ar
   4    2    3 3
   5    3    4 1
   6    4    5 ar
   7    4    9 ar
   8    5    6 ar
   9    5   35 1
  10    6    7 ar
  11    6   36 1
  12    7    8 ar
  13    7   10 1
  14    8    9 ar
  15    8   37 1
  16    9   38 1
  17   10   11 2
  18   10   12 am
  19   12   18 1
  20   12   22 1
  21   13   14 ar
  22   13   39 1
  23   14   15 ar
  24   14   40 1
  25   15   16 ar
  26   15   41 1
  27   16   17 ar
  28   16   42 1
  29   17   43 1
  30   18   19 1
  31   18   44 1
  32   18   45 1
  33   19   20 1
  34   19   46 1
  35   19   47 1
  36   20   21 1
  37   20   23 1
  38   20   48 1
  39   21   22 1
  40   21   49 1
  41   21   50 1
  42   22   51 1
  43   22   52 1
  44   23   24 1
  45   23   28 1
  46   24   25 1
  47   24   53 1
  48   24   54 1
  49   25   26 1
  50   25   55 1
  51   25   56 1
  52   26   27 1
  53   26   29 1
  54   27   28 1
  55   27   57 1
  56   27   58 1
  57   28   59 1
  58   28   60 1
  59   29   30 ar
  60   29   34 ar
  61   30   31 ar
  62   30   61 1
  63   31   32 ar
  64   31   62 1
  65   32   33 ar
  66   33   34 ar
  67   33   63 1
  68   34   64 1

#	End of record

