#	Name: ASD03240377
#	Creating user name:	WinNT
#	Creation time:	15. 06. 2019 20:34

#	Modifying user name:	WinNT
#	Modification time:	15. 06. 2019 20:34

#	Program:	/corina/corina34_cracker 3.40 0067  02.08.2006

@<TRIPOS>MOLECULE
ASD03240377
  26   26    0    0    0
SMALL
NO_CHARGES


@<TRIPOS>ATOM
   1 C1            -0.6896     0.8701    -0.6516 C.3     
   2 N2            -0.6217    -0.5844    -0.8130 N.pl3   
   3 O3            -1.5768    -1.2762    -0.5083 O.2     
   4 O4             0.3898    -1.1019    -1.2519 O.2     
   5 S5             0.9387     1.5005    -0.1600 S.o2    
   6 O6             0.9107     2.9165    -0.0431 O.2     
   7 O7             1.4977     0.6916     0.8659 O.2     
   8 C8             1.9671     1.2003    -1.5589 C.ar    
   9 C9             1.7087     1.8400    -2.7568 C.ar    
  10 C10            2.5155     1.6044    -3.8543 C.ar    
  11 C11            3.5810     0.7295    -3.7538 C.ar    
  12 C12            3.8400     0.0905    -2.5557 C.ar    
  13 C13            3.0358     0.3294    -1.4570 C.ar    
  14 C14            3.3212    -0.3633    -0.1494 C.3     
  15 C15            0.5471     2.7939    -2.8663 C.3     
  16 H16           -0.9862     1.3270    -1.5958 H       
  17 H17           -1.4219     1.1166     0.1172 H       
  18 H18            2.3131     2.1037    -4.7903 H       
  19 H19            4.2109     0.5449    -4.6114 H       
  20 H20            4.6722    -0.5933    -2.4772 H       
  21 H21            2.5834    -1.1488     0.0143 H       
  22 H22            4.3184    -0.8023    -0.1808 H       
  23 H23            3.2682     0.3601     0.6642 H       
  24 H24            0.8940     3.8111    -2.6849 H       
  25 H25            0.1171     2.7294    -3.8658 H       
  26 H26           -0.2099     2.5309    -2.1275 H       
@<TRIPOS>BOND
   1    1    2 1
   2    1    5 1
   3    1   16 1
   4    1   17 1
   5    2    3 2
   6    2    4 2
   7    5    6 2
   8    5    7 2
   9    5    8 1
  10    8    9 ar
  11    8   13 ar
  12    9   10 ar
  13    9   15 1
  14   10   11 ar
  15   10   18 1
  16   11   12 ar
  17   11   19 1
  18   12   13 ar
  19   12   20 1
  20   13   14 1
  21   14   21 1
  22   14   22 1
  23   14   23 1
  24   15   24 1
  25   15   25 1
  26   15   26 1

#	End of record

