#	Name: ASD00841635
#	Creating user name:	WinNT
#	Creation time:	15. 06. 2019 18:42

#	Modifying user name:	WinNT
#	Modification time:	15. 06. 2019 18:42

#	Program:	/corina/corina34_cracker 3.40 0067  02.08.2006

@<TRIPOS>MOLECULE
ASD00841635
  87   92    0    0    0
SMALL
NO_CHARGES


@<TRIPOS>ATOM
   1 C1            -0.0051     1.3862     0.0370 C.ar    
   2 C2             0.0093    -0.0007     0.0190 C.ar    
   3 C3             1.2194    -0.6794    -0.0011 C.ar    
   4 C4             2.4062     0.0272    -0.0032 C.ar    
   5 C5             2.3891     1.4098     0.0152 C.ar    
   6 C6             1.1849     2.0884     0.0348 C.ar    
   7 C7             1.2387    -2.1861    -0.0202 C.3     
   8 C8             0.4941    -2.7108    -1.2293 C.2     
   9 N9             2.6177    -2.6805    -0.0123 N.am    
  10 C10            3.4634    -2.3342    -1.0029 C.2     
  11 N11            4.7590    -2.7005    -0.9417 N.am    
  12 O12            3.0576    -1.6914    -1.9518 O.2     
  13 C13            5.2905    -3.3763     0.2497 C.3     
  14 C14            6.5169    -2.6053     0.7481 C.3     
  15 C15            7.5240    -2.4627    -0.3953 C.3     
  16 C16            6.8889    -1.6715    -1.5411 C.3     
  17 C17            5.6654    -2.4369    -2.0677 C.3     
  18 N18            8.7158    -1.7527     0.0880 N.3     
  19 C19            9.7549    -1.7008    -0.9498 C.3     
  20 C20           10.9449    -0.8868    -0.4362 C.3     
  21 N21           11.4628    -1.5034     0.7931 N.3     
  22 C22           10.4237    -1.5553     1.8309 C.3     
  23 C23            9.2337    -2.3693     1.3174 C.3     
  24 C24           12.6546    -0.7934     1.2764 C.3     
  25 O25            0.7737    -2.5069    -2.3918 O.2     
  26 N26           -0.5343    -3.4452    -0.7729 N.am    
  27 C27            0.4678    -2.7404     1.1557 C.ar    
  28 C28           -0.5784    -3.4829     0.6224 C.ar    
  29 C29            0.6320    -2.6297     2.5181 C.ar    
  30 C30           -1.3013    -4.0069     2.8545 C.ar    
  31 C31           -1.4658    -4.1182     1.4880 C.ar    
  32 Cl32          -2.4121    -4.8020     3.9258 Cl      
  33 C33           -0.9922    -5.8306    -2.0669 C.ar    
  34 C34           -1.3198    -6.8766    -1.2240 C.ar    
  35 C35           -0.1739    -6.0504    -3.1595 C.ar    
  36 C36            0.3185    -7.3162    -3.4117 C.ar    
  37 C37           -0.0087    -8.3674    -2.5675 C.ar    
  38 C38           -0.8296    -8.1442    -1.4716 C.ar    
  39 O39            0.4741    -9.6137    -2.8136 O.3     
  40 H40           -1.9591    -6.7023    -0.3712 H       
  41 C41            0.0959   -10.6475    -1.9025 C.3     
  42 C42           -0.2536    -3.2642     3.3748 C.ar    
  43 F43           -0.0961    -3.1587     4.7124 F       
  44 O44           -1.1597    -0.6936     0.0215 O.3     
  45 C45           -3.5695    -0.8750     0.0428 C.3     
  46 C46           -2.3669     0.0708     0.0431 C.3     
  47 S47           -1.6245    -4.2164    -1.7522 S.o2    
  48 O48           -2.8043    -4.3911    -0.9797 O.2     
  49 O49           -1.6043    -3.5281    -2.9952 O.2     
  50 H50           -0.9457     1.9168     0.0481 H       
  51 H51            3.3483    -0.5006    -0.0188 H       
  52 H52            3.3182     1.9605     0.0143 H       
  53 H53            1.1742     3.1682     0.0491 H       
  54 H54            2.9222    -3.2571     0.7059 H       
  55 H55            4.5289    -3.3950     1.0294 H       
  56 H56            5.5790    -4.3957    -0.0066 H       
  57 H57            6.2110    -1.6162     1.0890 H       
  58 H58            6.9776    -3.1486     1.5731 H       
  59 H59            7.8107    -3.4519    -0.7522 H       
  60 H60            6.5796    -0.6912    -1.1787 H       
  61 H61            7.6145    -1.5502    -2.3454 H       
  62 H62            5.9872    -3.3785    -2.5128 H       
  63 H63            5.1512    -1.8336    -2.8157 H       
  64 H64           10.0822    -2.7130    -1.1877 H       
  65 H65            9.3510    -1.2290    -1.8456 H       
  66 H66           11.7289    -0.8714    -1.1934 H       
  67 H67           10.6236     0.1329    -0.2242 H       
  68 H68           10.8276    -2.0271     2.7267 H       
  69 H69           10.0964    -0.5431     2.0688 H       
  70 H70            8.4498    -2.3848     2.0745 H       
  71 H71            9.5551    -3.3890     1.1053 H       
  72 H72           12.3984     0.2449     1.4873 H       
  73 H73           13.0172    -1.2703     2.1870 H       
  74 H74           13.4324    -0.8280     0.5136 H       
  75 H75            1.4501    -2.0495     2.9187 H       
  76 H76           -2.2851    -4.6981     1.0895 H       
  77 H77            0.0802    -5.2318    -3.8166 H       
  78 H78            0.9573    -7.4875    -4.2655 H       
  79 H79           -1.0860    -8.9609    -0.8131 H       
  80 H80            0.4405   -10.3926    -0.9004 H       
  81 H81           -0.9893   -10.7493    -1.8987 H       
  82 H82            0.5481   -11.5893    -2.2136 H       
  83 H83           -4.4903    -0.2920     0.0593 H       
  84 H84           -3.5462    -1.4920    -0.8555 H       
  85 H85           -3.5288    -1.5149     0.9242 H       
  86 H86           -2.3902     0.6878     0.9414 H       
  87 H87           -2.4076     0.7107    -0.8383 H       
@<TRIPOS>BOND
   1    1    2 ar
   2    1    6 ar
   3    1   50 1
   4    2    3 ar
   5    2   44 1
   6    3    4 ar
   7    3    7 1
   8    4    5 ar
   9    4   51 1
  10    5    6 ar
  11    5   52 1
  12    6   53 1
  13    7    8 1
  14    7    9 1
  15    7   27 1
  16    8   25 2
  17    8   26 am
  18    9   10 am
  19    9   54 1
  20   10   11 am
  21   10   12 2
  22   11   13 1
  23   11   17 1
  24   13   14 1
  25   13   55 1
  26   13   56 1
  27   14   15 1
  28   14   57 1
  29   14   58 1
  30   15   16 1
  31   15   18 1
  32   15   59 1
  33   16   17 1
  34   16   60 1
  35   16   61 1
  36   17   62 1
  37   17   63 1
  38   18   19 1
  39   18   23 1
  40   19   20 1
  41   19   64 1
  42   19   65 1
  43   20   21 1
  44   20   66 1
  45   20   67 1
  46   21   22 1
  47   21   24 1
  48   22   23 1
  49   22   68 1
  50   22   69 1
  51   23   70 1
  52   23   71 1
  53   24   72 1
  54   24   73 1
  55   24   74 1
  56   26   47 am
  57   26   28 1
  58   27   28 ar
  59   27   29 ar
  60   28   31 ar
  61   29   42 ar
  62   29   75 1
  63   30   31 ar
  64   30   32 1
  65   30   42 ar
  66   31   76 1
  67   33   34 ar
  68   33   35 ar
  69   33   47 1
  70   34   40 1
  71   34   38 ar
  72   35   36 ar
  73   35   77 1
  74   36   37 ar
  75   36   78 1
  76   37   38 ar
  77   37   39 1
  78   38   79 1
  79   39   41 1
  80   41   80 1
  81   41   81 1
  82   41   82 1
  83   42   43 1
  84   44   46 1
  85   45   46 1
  86   45   83 1
  87   45   84 1
  88   45   85 1
  89   46   86 1
  90   46   87 1
  91   47   48 2
  92   47   49 2

#	End of record

