#	Name: ASD01811996
#	Creating user name:	WinNT
#	Creation time:	15. 06. 2019 19:27

#	Modifying user name:	WinNT
#	Modification time:	15. 06. 2019 19:27

#	Program:	/corina/corina34_cracker 3.40 0067  02.08.2006

@<TRIPOS>MOLECULE
ASD01811996
  38   40    0    0    0
SMALL
NO_CHARGES


@<TRIPOS>ATOM
   1 C1             0.2695     1.0928     0.7131 C.ar    
   2 C2             0.2455    -0.2816     0.5365 C.ar    
   3 C3             1.4040    -0.9560     0.2223 C.ar    
   4 C4             2.6153    -0.2629     0.0783 C.ar    
   5 C5             2.6364     1.1193     0.2574 C.ar    
   6 C6             1.4516     1.7866     0.5749 C.ar    
   7 C7             3.8132    -1.0466    -0.2610 C.2     
   8 C8             4.6516     0.6021    -1.7962 C.3     
   9 C9             4.7251     1.7170    -0.7883 C.2     
  10 N10            3.7855     1.8845     0.1395 N.am    
  11 S11            5.9644     2.7264    -0.8327 S.2     
  12 C12            3.9847    -2.3591     0.4044 C.ar    
  13 C13            4.7775    -3.3490    -0.1747 C.ar    
  14 N14            4.9300    -4.5163     0.4162 N.ar    
  15 C15            4.3476    -4.7961     1.5662 C.ar    
  16 C16            3.5458    -3.8670     2.2048 C.ar    
  17 C17            3.3584    -2.6236     1.6272 C.ar    
  18 Cl18          -1.2456    -1.1531     0.7121 Cl      
  19 C19            3.3319     0.6924    -2.5649 C.3     
  20 C20            3.2972     1.9945    -3.3675 C.3     
  21 N21            4.7225    -0.6778    -1.0924 N.2     
  22 C22            3.2149    -0.4980    -3.5190 C.3     
  23 H23           -0.6407     1.6213     0.9551 H       
  24 H24            1.3802    -2.0271     0.0861 H       
  25 H25            1.4620     2.8576     0.7135 H       
  26 H26            5.4861     0.6840    -2.4927 H       
  27 H27            3.9153     2.5983     0.7834 H       
  28 H28            5.2706    -3.1572    -1.1162 H       
  29 H29            4.4990    -5.7661     2.0164 H       
  30 H30            3.0745    -4.1081     3.1461 H       
  31 H31            2.7379    -1.8793     2.1040 H       
  32 H32            2.4997     0.6771    -1.8611 H       
  33 H33            4.1294     2.0097    -4.0713 H       
  34 H34            2.3570     2.0588    -3.9152 H       
  35 H35            3.3806     2.8426    -2.6879 H       
  36 H36            2.2469    -0.4689    -4.0192 H       
  37 H37            4.0099    -0.4470    -4.2628 H       
  38 H38            3.3044    -1.4262    -2.9545 H       
@<TRIPOS>BOND
   1    1    2 ar
   2    1    6 ar
   3    1   23 1
   4    2    3 ar
   5    2   18 1
   6    3    4 ar
   7    3   24 1
   8    4    5 ar
   9    4    7 1
  10    5    6 ar
  11    5   10 1
  12    6   25 1
  13    7   12 1
  14    7   21 2
  15    8    9 1
  16    8   19 1
  17    8   21 1
  18    8   26 1
  19    9   10 am
  20    9   11 2
  21   10   27 1
  22   12   13 ar
  23   12   17 ar
  24   13   14 ar
  25   13   28 1
  26   14   15 ar
  27   15   16 ar
  28   15   29 1
  29   16   17 ar
  30   16   30 1
  31   17   31 1
  32   19   20 1
  33   19   22 1
  34   19   32 1
  35   20   33 1
  36   20   34 1
  37   20   35 1
  38   22   36 1
  39   22   37 1
  40   22   38 1

#	End of record

