#	Name: ASD01811912
#	Creating user name:	WinNT
#	Creation time:	15. 06. 2019 19:27

#	Modifying user name:	WinNT
#	Modification time:	15. 06. 2019 19:27

#	Program:	/corina/corina34_cracker 3.40 0067  02.08.2006

@<TRIPOS>MOLECULE
ASD01811912
  70   74    0    0    0
SMALL
NO_CHARGES


@<TRIPOS>ATOM
   1 C1            -0.0168     1.3869     0.0097 C.ar    
   2 C2             0.0021    -0.0041     0.0020 C.ar    
   3 C3             1.1801    -0.6897    -0.0129 C.ar    
   4 C4             2.3948     0.0129    -0.0207 C.ar    
   5 C5             2.3717     1.4290    -0.0129 C.ar    
   6 C6             1.1455     2.1015     0.0024 C.ar    
   7 C7             3.6293    -0.6694    -0.0365 C.ar    
   8 C8             4.8031     0.0063    -0.0446 C.ar    
   9 C9             4.8359     1.4095    -0.0374 C.ar    
  10 C10            3.6406     2.1511    -0.0211 C.ar    
  11 C11            6.1026     2.1526    -0.0470 C.2     
  12 N12            6.0328     3.5041    -0.0399 N.am    
  13 C13            4.8302     4.1313    -0.0241 C.2     
  14 N14            3.6961     3.4935    -0.0158 N.2     
  15 O15            7.1745     1.5748    -0.0604 O.2     
  16 C16            3.6424    -2.1763    -0.0442 C.3     
  17 C17            3.5087    -2.6726    -1.4608 C.ar    
  18 C18            4.6402    -2.8888    -2.2258 C.ar    
  19 C19            4.5213    -3.3436    -3.5243 C.ar    
  20 C20            3.2631    -3.5839    -4.0619 C.ar    
  21 C21            2.1285    -3.3656    -3.2907 C.ar    
  22 C22            2.2549    -2.9161    -1.9910 C.ar    
  23 C23            7.2655     4.2957    -0.0490 C.3     
  24 C24            7.2938     5.1857    -1.2953 C.3     
  25 C25            8.5460     6.0656    -1.2562 C.3     
  26 O26            8.5443     6.8411    -0.0559 O.3     
  27 C27            8.5657     6.0622     1.1420 C.3     
  28 C28            7.3143     5.1822     1.1993 C.3     
  29 O29            7.3218     4.3670    -2.4662 O.3     
  30 N30            3.1391    -4.0435    -5.3750 N.pl3   
  31 C31            4.3368    -4.2726    -6.1870 C.3     
  32 C32            1.8115    -4.2963    -5.9403 C.3     
  33 C33            1.2905    -3.0222    -6.6083 C.3     
  34 N34           -0.0408    -3.2757    -7.1751 N.3     
  35 C35           -1.0226    -3.5411    -6.1151 C.3     
  36 C36           -0.4728    -2.1580    -8.0249 C.3     
  37 H37           -0.9630     1.9076     0.0169 H       
  38 H38           -0.9305    -0.5488     0.0083 H       
  39 H39            1.1786    -1.7697    -0.0183 H       
  40 H40            1.1188     3.1811     0.0081 H       
  41 H41            5.7317    -0.5451    -0.0563 H       
  42 H42            4.8132     5.2111    -0.0182 H       
  43 H43            4.5813    -2.5336     0.3789 H       
  44 H44            2.8098    -2.5499     0.5518 H       
  45 H45            5.6181    -2.7015    -1.8073 H       
  46 H46            5.4054    -3.5120    -4.1213 H       
  47 H47            1.1489    -3.5514    -3.7056 H       
  48 H48            1.3733    -2.7466    -1.3908 H       
  49 H49            8.1282     3.6294    -0.0570 H       
  50 H50            6.4054     5.8170    -1.3123 H       
  51 H51            9.4345     5.4346    -1.2801 H       
  52 H52            8.5495     6.7314    -2.1192 H       
  53 H53            9.4545     5.4312     1.1495 H       
  54 H54            8.5835     6.7256     2.0067 H       
  55 H55            6.4263     5.8134     1.2327 H       
  56 H56            7.3504     4.5552     2.0901 H       
  57 H57            7.3406     4.8658    -3.2945 H       
  58 H58            4.6757    -5.2999    -6.0528 H       
  59 H59            4.1016    -4.1020    -7.2376 H       
  60 H60            5.1241    -3.5865    -5.8749 H       
  61 H61            1.8776    -5.0936    -6.6806 H       
  62 H62            1.1287    -4.5947    -5.1448 H       
  63 H63            1.2244    -2.2248    -5.8681 H       
  64 H64            1.9733    -2.7237    -7.4038 H       
  65 H65           -1.0836    -2.6780    -5.4520 H       
  66 H66           -1.9993    -3.7254    -6.5623 H       
  67 H67           -0.7132    -4.4166    -5.5442 H       
  68 H68            0.2363    -2.0281    -8.8425 H       
  69 H69           -1.4612    -2.3717    -8.4316 H       
  70 H70           -0.5138    -1.2449    -7.4311 H       
@<TRIPOS>BOND
   1    1    2 ar
   2    1    6 ar
   3    1   37 1
   4    2    3 ar
   5    2   38 1
   6    3    4 ar
   7    3   39 1
   8    4    5 ar
   9    4    7 ar
  10    5    6 ar
  11    5   10 ar
  12    6   40 1
  13    7    8 ar
  14    7   16 1
  15    8    9 ar
  16    8   41 1
  17    9   10 ar
  18    9   11 1
  19   10   14 1
  20   11   12 am
  21   11   15 2
  22   12   13 1
  23   12   23 1
  24   13   14 2
  25   13   42 1
  26   16   17 1
  27   16   43 1
  28   16   44 1
  29   17   18 ar
  30   17   22 ar
  31   18   19 ar
  32   18   45 1
  33   19   20 ar
  34   19   46 1
  35   20   21 ar
  36   20   30 1
  37   21   22 ar
  38   21   47 1
  39   22   48 1
  40   23   24 1
  41   23   28 1
  42   23   49 1
  43   24   25 1
  44   24   29 1
  45   24   50 1
  46   25   26 1
  47   25   51 1
  48   25   52 1
  49   26   27 1
  50   27   28 1
  51   27   53 1
  52   27   54 1
  53   28   55 1
  54   28   56 1
  55   29   57 1
  56   30   31 1
  57   30   32 1
  58   31   58 1
  59   31   59 1
  60   31   60 1
  61   32   33 1
  62   32   61 1
  63   32   62 1
  64   33   34 1
  65   33   63 1
  66   33   64 1
  67   34   35 1
  68   34   36 1
  69   35   65 1
  70   35   66 1
  71   35   67 1
  72   36   68 1
  73   36   69 1
  74   36   70 1

#	End of record

