#	Name: ASD03080007
#	Creating user name:	WinNT
#	Creation time:	15. 06. 2019 20:26

#	Modifying user name:	WinNT
#	Modification time:	15. 06. 2019 20:26

#	Program:	/corina/corina34_cracker 3.40 0067  02.08.2006

@<TRIPOS>MOLECULE
ASD03080007
  32   34    0    0    0
SMALL
NO_CHARGES


@<TRIPOS>ATOM
   1 O1            -0.0144     1.2085     0.0087 O.3     
   2 N2             0.0021    -0.0041     0.0020 N.2     
   3 C3             1.2349    -0.4420    -0.0121 C.2     
   4 N4             2.0455     0.6368    -0.0141 N.2     
   5 C5             1.2410     1.6828    -0.0008 C.2     
   6 C6             1.6452     3.1049     0.0021 C.ar    
   7 C7             0.6758     4.1091     0.0162 C.ar    
   8 C8             1.0597     5.4340     0.0188 C.ar    
   9 C9             2.4024     5.7685     0.0068 C.ar    
  10 C10            3.3681     4.7781    -0.0077 C.ar    
  11 C11            2.9976     3.4490    -0.0036 C.ar    
  12 S12           -0.1623     6.7033     0.0366 S.o2    
  13 O13            0.4799     7.8166    -0.5696 O.2     
  14 O14           -1.3023     6.1006    -0.5604 O.2     
  15 C15           -0.4591     7.0211     1.7977 C.3     
  16 F16            0.7319     7.4342     2.4043 F       
  17 F17           -1.4245     8.0244     1.9343 F       
  18 F18           -0.9138     5.8497     2.4128 F       
  19 C19            3.0160    -2.1950    -0.0374 C.ar    
  20 C20            1.6630    -1.8633    -0.0231 C.ar    
  21 C21            0.7155    -2.8900    -0.0188 C.ar    
  22 C22            1.1658    -4.1993    -0.0290 C.ar    
  23 C23            2.5262    -4.4465    -0.0430 C.ar    
  24 N24            3.3972    -3.4557    -0.0462 N.ar    
  25 H25           -0.3724     3.8494     0.0248 H       
  26 H26            2.6977     6.8074     0.0085 H       
  27 H27            4.4144     5.0458    -0.0173 H       
  28 H28            3.7525     2.6767    -0.0097 H       
  29 H29            3.7590    -1.4112    -0.0453 H       
  30 H30           -0.3414    -2.6681    -0.0075 H       
  31 H31            0.4622    -5.0186    -0.0257 H       
  32 H32            2.8811    -5.4664    -0.0509 H       
@<TRIPOS>BOND
   1    1    2 1
   2    1    5 1
   3    2    3 2
   4    3    4 1
   5    3   20 1
   6    4    5 2
   7    5    6 1
   8    6    7 ar
   9    6   11 ar
  10    7    8 ar
  11    7   25 1
  12    8    9 ar
  13    8   12 1
  14    9   10 ar
  15    9   26 1
  16   10   11 ar
  17   10   27 1
  18   11   28 1
  19   12   13 2
  20   12   14 2
  21   12   15 1
  22   15   16 1
  23   15   17 1
  24   15   18 1
  25   19   20 ar
  26   19   24 ar
  27   19   29 1
  28   20   21 ar
  29   21   22 ar
  30   21   30 1
  31   22   23 ar
  32   22   31 1
  33   23   24 ar
  34   23   32 1

#	End of record

