#	Name: ASD01140136
#	Creating user name:	WinNT
#	Creation time:	15. 06. 2019 19:00

#	Modifying user name:	WinNT
#	Modification time:	15. 06. 2019 19:00

#	Program:	/corina/corina34_cracker 3.40 0067  02.08.2006

@<TRIPOS>MOLECULE
ASD01140136
  23   24    0    0    0
SMALL
NO_CHARGES


@<TRIPOS>ATOM
   1 C1            -0.0166     1.3759     0.0096 C.ar    
   2 C2             0.0021    -0.0041     0.0020 C.ar    
   3 C3             1.2187    -0.6825    -0.0132 C.ar    
   4 C4             2.4143     0.0379    -0.0207 C.ar    
   5 C5             2.3850     1.4194    -0.0130 C.ar    
   6 C6             1.1718     2.0879     0.0021 C.ar    
   7 C7             1.2436    -2.1658    -0.0209 C.ar    
   8 C8             2.0215    -2.8463    -0.9560 C.ar    
   9 C9             2.0426    -4.2253    -0.9607 C.ar    
  10 C10            1.2896    -4.9355    -0.0357 C.ar    
  11 C11            0.5138    -4.2606     0.8969 C.ar    
  12 C12            0.4935    -2.8816     0.9106 C.ar    
  13 F13            1.1474     3.4386     0.0091 F       
  14 F14            3.5975    -0.6140    -0.0351 F       
  15 O15            1.3116    -6.2942    -0.0434 O.3     
  16 H16           -0.9599     1.9019     0.0169 H       
  17 H17           -0.9254    -0.5573     0.0082 H       
  18 H18            3.3089     1.9787    -0.0185 H       
  19 H19            2.6070    -2.2943    -1.6764 H       
  20 H20            2.6452    -4.7531    -1.6851 H       
  21 H21           -0.0712    -4.8158     1.6151 H       
  22 H22           -0.1100    -2.3570     1.6365 H       
  23 H23            2.0001    -6.6796     0.5157 H       
@<TRIPOS>BOND
   1    1    2 ar
   2    1    6 ar
   3    1   16 1
   4    2    3 ar
   5    2   17 1
   6    3    4 ar
   7    3    7 1
   8    4    5 ar
   9    4   14 1
  10    5    6 ar
  11    5   18 1
  12    6   13 1
  13    7    8 ar
  14    7   12 ar
  15    8    9 ar
  16    8   19 1
  17    9   10 ar
  18    9   20 1
  19   10   11 ar
  20   10   15 1
  21   11   12 ar
  22   11   21 1
  23   12   22 1
  24   15   23 1

#	End of record

