#	Name: ASD02198860
#	Creating user name:	WinNT
#	Creation time:	15. 06. 2019 20:20

#	Modifying user name:	WinNT
#	Modification time:	15. 06. 2019 20:20

#	Program:	/corina/corina34_cracker 3.40 0067  02.08.2006

@<TRIPOS>MOLECULE
ASD02198860
  46   50    0    0    0
SMALL
NO_CHARGES


@<TRIPOS>ATOM
   1 F1             2.2534    -1.7121     2.4712 F       
   2 C2            -0.0433     1.5018    -0.1149 C.2     
   3 C3            -0.0730     0.1620     0.0976 C.2     
   4 N4             1.0713    -0.5396     0.2599 N.pl3   
   5 N5             2.2358    -0.0048     0.2259 N.2     
   6 C6             2.4073     1.2846     0.0276 C.2     
   7 C7             1.2215     2.1358    -0.1604 C.2     
   8 C8             0.9798    -1.9187     0.4765 C.ar    
   9 C9             1.5806    -2.4893     1.5946 C.ar    
  10 C10            1.4888    -3.8519     1.8072 C.ar    
  11 C11            0.7975    -4.6499     0.9055 C.ar    
  12 C12            0.1980    -4.0796    -0.2104 C.ar    
  13 C13            0.2842    -2.7187    -0.4215 C.ar    
  14 C14            3.7643     1.8669    -0.0051 C.2     
  15 N15            4.3061     2.6070    -1.0182 N.pl3   
  16 N16            5.6082     2.9582    -0.6407 N.2     
  17 C17            5.8522     2.4584     0.5445 C.2     
  18 C18            4.7201     1.7713     0.9825 C.2     
  19 C19            3.6729     2.9518    -2.2191 C.ar    
  20 C20            3.8068     4.2349    -2.7325 C.ar    
  21 C21            3.1818     4.5724    -3.9173 C.ar    
  22 C22            2.4233     3.6343    -4.5924 C.ar    
  23 C23            2.2872     2.3543    -4.0833 C.ar    
  24 C24            2.9149     2.0093    -2.9013 C.ar    
  25 O25            1.3244     3.3390    -0.3479 O.2     
  26 N26            0.7049    -6.0317     1.1210 N.pl3   
  27 C27            0.0557    -6.9238     0.3119 C.2     
  28 C28            0.1888    -8.1546     0.8497 C.2     
  29 C29            0.9464    -8.0209     2.0328 C.2     
  30 C30            1.2536    -6.7140     2.1724 C.2     
  31 F31           -0.3124    -9.3043     0.3475 F       
  32 F32            1.3030    -9.0192     2.8703 F       
  33 Cl33           1.3328     1.1796    -4.9336 Cl      
  34 H34           -0.9547     2.0654    -0.2495 H       
  35 H35           -1.0228    -0.3504     0.1379 H       
  36 H36            1.9549    -4.2958     2.6744 H       
  37 H37           -0.3394    -4.7013    -0.9111 H       
  38 H38           -0.1826    -2.2764    -1.2892 H       
  39 H39            6.7758     2.5644     1.0941 H       
  40 H40            4.6144     1.2515     1.9233 H       
  41 H41            4.3988     4.9687    -2.2058 H       
  42 H42            3.2855     5.5706    -4.3165 H       
  43 H43            1.9357     3.9007    -5.5185 H       
  44 H44            2.8090     1.0105    -2.5044 H       
  45 H45           -0.4722    -6.6845    -0.5994 H       
  46 H46            1.8273    -6.2808     2.9783 H       
@<TRIPOS>BOND
   1    1    9 1
   2    2    3 2
   3    2    7 1
   4    2   34 1
   5    3    4 1
   6    3   35 1
   7    4    5 1
   8    4    8 1
   9    5    6 2
  10    6    7 1
  11    6   14 1
  12    7   25 2
  13    8    9 ar
  14    8   13 ar
  15    9   10 ar
  16   10   11 ar
  17   10   36 1
  18   11   12 ar
  19   11   26 1
  20   12   13 ar
  21   12   37 1
  22   13   38 1
  23   14   15 1
  24   14   18 2
  25   15   16 1
  26   15   19 1
  27   16   17 2
  28   17   18 1
  29   17   39 1
  30   18   40 1
  31   19   20 ar
  32   19   24 ar
  33   20   21 ar
  34   20   41 1
  35   21   22 ar
  36   21   42 1
  37   22   23 ar
  38   22   43 1
  39   23   24 ar
  40   23   33 1
  41   24   44 1
  42   26   27 1
  43   26   30 1
  44   27   28 2
  45   27   45 1
  46   28   29 1
  47   28   31 1
  48   29   30 2
  49   29   32 1
  50   30   46 1

#	End of record

