#	Name: ASD00120077
#	Creating user name:	WinNT
#	Creation time:	15. 06. 2019 18:31

#	Modifying user name:	WinNT
#	Modification time:	15. 06. 2019 18:31

#	Program:	/corina/corina34_cracker 3.40 0067  02.08.2006

@<TRIPOS>MOLECULE
ASD00120077
  59   62    0    0    0
SMALL
NO_CHARGES


@<TRIPOS>ATOM
   1 C1            -0.7939     1.0839     0.2929 C.ar    
   2 C2            -1.5311     0.1861     1.0430 C.ar    
   3 C3            -2.5597    -0.5250     0.4568 C.ar    
   4 C4            -2.8534    -0.3375    -0.8879 C.ar    
   5 C5            -2.1109     0.5652    -1.6385 C.ar    
   6 C6            -1.0874     1.2772    -1.0446 C.ar    
   7 C7             0.3278     1.8581     0.9360 C.3     
   8 O8             0.9349     2.7125    -0.0354 O.3     
   9 N9            -3.8928    -1.0554    -1.4840 N.3     
  10 C10           -4.9528    -0.1539    -1.9549 C.3     
  11 C11           -6.1483    -0.9836    -2.4350 C.3     
  12 N12           -5.6723    -1.9569    -3.4297 N.am    
  13 C13           -4.5216    -2.8035    -3.0795 C.3     
  14 C14           -3.3901    -1.9022    -2.5741 C.3     
  15 S15           -6.4126    -2.0964    -4.9044 S.o2    
  16 O16           -6.1243    -3.4055    -5.3759 O.2     
  17 O17           -7.7351    -1.6040    -4.7377 O.2     
  18 C18           -5.6017    -0.9822    -6.0025 C.2     
  19 C19           -5.9927     0.2835    -6.1583 C.2     
  20 C20           -4.5070    -1.3525    -6.7645 C.2     
  21 C21           -4.0125    -0.3890    -7.5433 C.2     
  22 S22           -4.9512     1.0828    -7.3286 S.3     
  23 C23           -5.3925     0.7596    -0.8091 C.3     
  24 C24           -6.4131     1.7456    -1.3161 C.ar    
  25 C25           -7.7618     1.4672    -1.1955 C.ar    
  26 C26           -8.6987     2.3709    -1.6597 C.ar    
  27 C27           -8.2861     3.5555    -2.2458 C.ar    
  28 C28           -6.9350     3.8333    -2.3661 C.ar    
  29 C29           -6.0000     2.9305    -1.8964 C.ar    
  30 F30           -9.2010     4.4395    -2.7004 F       
  31 C31           -0.2286     2.7043     2.0828 C.3     
  32 F32           -0.7120     1.8633     3.0909 F       
  33 F33            0.7875     3.5153     2.5995 F       
  34 F34           -1.2700     3.5080     1.6067 F       
  35 C35            1.3729     0.8831     1.4819 C.3     
  36 F36            1.7992     0.0336     0.4555 F       
  37 F37            2.4665     1.6011     1.9775 F       
  38 F38            0.8085     0.1232     2.5120 F       
  39 H39           -1.3020     0.0405     2.0883 H       
  40 H40           -3.1348    -1.2264     1.0431 H       
  41 H41           -2.3367     0.7134    -2.6841 H       
  42 H42           -0.5099     1.9795    -1.6275 H       
  43 H43            0.3293     3.3580    -0.4248 H       
  44 H44           -4.5757     0.4515    -2.7792 H       
  45 H45           -6.5913    -1.5106    -1.5900 H       
  46 H46           -6.8900    -0.3275    -2.8906 H       
  47 H47           -4.8083    -3.5054    -2.2964 H       
  48 H48           -4.1878    -3.3506    -3.9612 H       
  49 H49           -3.0349    -1.2724    -3.3897 H       
  50 H50           -2.5701    -2.5192    -2.2068 H       
  51 H51           -6.8223     0.7466    -5.6446 H       
  52 H52           -4.0849    -2.3460    -6.7307 H       
  53 H53           -3.1638    -0.4956    -8.2027 H       
  54 H54           -5.8322     0.1584    -0.0133 H       
  55 H55           -4.5278     1.2985    -0.4218 H       
  56 H56           -8.0835     0.5430    -0.7387 H       
  57 H57           -9.7523     2.1530    -1.5657 H       
  58 H58           -6.6119     4.7570    -2.8231 H       
  59 H59           -4.9461     3.1469    -1.9901 H       
@<TRIPOS>BOND
   1    1    2 ar
   2    1    7 1
   3    1    6 ar
   4    2    3 ar
   5    2   39 1
   6    3    4 ar
   7    3   40 1
   8    4    5 ar
   9    4    9 1
  10    5    6 ar
  11    5   41 1
  12    6   42 1
  13    7    8 1
  14    7   31 1
  15    7   35 1
  16    8   43 1
  17    9   10 1
  18    9   14 1
  19   10   11 1
  20   10   23 1
  21   10   44 1
  22   11   12 1
  23   11   45 1
  24   11   46 1
  25   12   13 1
  26   12   15 am
  27   13   14 1
  28   13   47 1
  29   13   48 1
  30   14   49 1
  31   14   50 1
  32   15   16 2
  33   15   17 2
  34   15   18 1
  35   18   20 1
  36   18   19 2
  37   19   22 1
  38   19   51 1
  39   20   21 2
  40   20   52 1
  41   21   22 1
  42   21   53 1
  43   23   24 1
  44   23   54 1
  45   23   55 1
  46   24   25 ar
  47   24   29 ar
  48   25   26 ar
  49   25   56 1
  50   26   27 ar
  51   26   57 1
  52   27   28 ar
  53   27   30 1
  54   28   29 ar
  55   28   58 1
  56   29   59 1
  57   31   32 1
  58   31   33 1
  59   31   34 1
  60   35   36 1
  61   35   37 1
  62   35   38 1

#	End of record

