#	Name: ASD03331642
#	Creating user name:	WinNT
#	Creation time:	15. 06. 2019 20:39

#	Modifying user name:	WinNT
#	Modification time:	15. 06. 2019 20:39

#	Program:	/corina/corina34_cracker 3.40 0067  02.08.2006

@<TRIPOS>MOLECULE
ASD03331642
  67   71    0    0    0
SMALL
NO_CHARGES


@<TRIPOS>ATOM
   1 C1            -0.0164     1.3611     0.0095 C.ar    
   2 C2             0.0021    -0.0041     0.0020 C.ar    
   3 C3             1.2084    -0.6953    -0.0128 C.ar    
   4 C4             2.4059    -0.0162    -0.0205 C.ar    
   5 C5             1.1895     2.0743     0.0018 C.ar    
   6 C6             1.5024     3.4552     0.0058 C.2     
   7 C7             2.4126     1.3760    -0.0136 C.ar    
   8 N8             3.4201     2.3120    -0.0183 N.pl3   
   9 C9             2.8559     3.5728    -0.0067 C.2     
  10 C10            0.5118     4.5907     0.0208 C.3     
  11 Cl11          -1.4939    -0.8848     0.0116 Cl      
  12 C12            3.6015     4.8404    -0.0080 C.2     
  13 N13            4.9491     4.8296    -0.0211 N.am    
  14 O14            3.0018     5.8988     0.0028 O.2     
  15 C15            8.7590     8.9942    -0.8658 C.ar    
  16 C16            8.9726    11.2718    -0.1582 C.ar    
  17 C17            8.2721    10.0816    -0.1638 C.ar    
  18 C18            9.9483     9.0944    -1.5643 C.ar    
  19 C19           10.6541    10.2815    -1.5625 C.ar    
  20 C20           10.1679    11.3757    -0.8584 C.ar    
  21 N21           10.8789    12.5779    -0.8548 N.3     
  22 C22           11.1763    13.0094     0.5170 C.3     
  23 C23           12.1057    12.4661    -1.6540 C.3     
  24 C24           12.7817    13.8359    -1.7478 C.3     
  25 C25           13.1122    14.3341    -0.3382 C.3     
  26 C26           11.8245    14.3954     0.4880 C.3     
  27 C27            0.1900     4.9678     1.4682 C.3     
  28 C28            7.8588     7.1851     0.5715 C.3     
  29 C29            7.0831     5.8663     0.5728 C.3     
  30 C30            5.6918     6.0924    -0.0223 C.3     
  31 C31            5.8281     6.6025    -1.4583 C.3     
  32 C32            6.6038     7.9213    -1.4596 C.3     
  33 C33            7.9951     7.6953    -0.8645 C.3     
  34 H34           -0.9581     1.8898     0.0169 H       
  35 H35            1.2059    -1.7752    -0.0178 H       
  36 H36            3.3377    -0.5621    -0.0316 H       
  37 H37            4.3706     2.1186    -0.0281 H       
  38 H38            0.9388     5.4521    -0.4928 H       
  39 H39           -0.4025     4.2820    -0.4861 H       
  40 H40            5.4273     3.9857    -0.0297 H       
  41 H41            8.5916    12.1208     0.3900 H       
  42 H42            7.3428    10.0001     0.3804 H       
  43 H43           10.3258     8.2433    -2.1115 H       
  44 H44           11.5832    10.3588    -2.1077 H       
  45 H45           10.2517    13.0528     1.0925 H       
  46 H46           11.8598    12.2985     0.9812 H       
  47 H47           12.7849    11.7577    -1.1797 H       
  48 H48           11.8562    12.1149    -2.6553 H       
  49 H49           13.7004    13.7494    -2.3280 H       
  50 H50           12.1083    14.5414    -2.2346 H       
  51 H51           13.8160    13.6491     0.1346 H       
  52 H52           13.5545    15.3286    -0.3977 H       
  53 H53           11.1360    15.1097     0.0364 H       
  54 H54           12.0593    14.7087     1.5052 H       
  55 H55           -0.5265     5.7892     1.4791 H       
  56 H56           -0.2370     4.1064     1.9818 H       
  57 H57            1.1043     5.2765     1.9751 H       
  58 H58            7.3231     7.9223     1.1697 H       
  59 H59            8.8499     7.0241     0.9955 H       
  60 H60            7.6188     5.1292    -0.0253 H       
  61 H61            6.9860     5.5029     1.5959 H       
  62 H62            5.1562     6.8295     0.5758 H       
  63 H63            6.3638     5.8653    -2.0565 H       
  64 H64            4.8370     6.7635    -1.8823 H       
  65 H65            6.7009     8.2847    -2.4826 H       
  66 H66            6.0681     8.6584    -0.8615 H       
  67 H67            8.5307     6.9581    -1.4626 H       
@<TRIPOS>BOND
   1    1    2 ar
   2    1    5 ar
   3    1   34 1
   4    2    3 ar
   5    2   11 1
   6    3    4 ar
   7    3   35 1
   8    4    7 ar
   9    4   36 1
  10    5    7 ar
  11    5    6 1
  12    6    9 2
  13    6   10 1
  14    7    8 1
  15    8    9 1
  16    8   37 1
  17    9   12 1
  18   10   27 1
  19   10   38 1
  20   10   39 1
  21   12   13 am
  22   12   14 2
  23   13   30 1
  24   13   40 1
  25   15   18 ar
  26   15   17 ar
  27   15   33 1
  28   16   17 ar
  29   16   20 ar
  30   16   41 1
  31   17   42 1
  32   18   19 ar
  33   18   43 1
  34   19   20 ar
  35   19   44 1
  36   20   21 1
  37   21   23 1
  38   21   22 1
  39   22   26 1
  40   22   45 1
  41   22   46 1
  42   23   24 1
  43   23   47 1
  44   23   48 1
  45   24   25 1
  46   24   49 1
  47   24   50 1
  48   25   26 1
  49   25   51 1
  50   25   52 1
  51   26   53 1
  52   26   54 1
  53   27   55 1
  54   27   56 1
  55   27   57 1
  56   28   29 1
  57   28   33 1
  58   28   58 1
  59   28   59 1
  60   29   30 1
  61   29   60 1
  62   29   61 1
  63   30   31 1
  64   30   62 1
  65   31   32 1
  66   31   63 1
  67   31   64 1
  68   32   33 1
  69   32   65 1
  70   32   66 1
  71   33   67 1

#	End of record

