#	Name: ASD01190037
#	Creating user name:	WinNT
#	Creation time:	15. 06. 2019 19:07

#	Modifying user name:	WinNT
#	Modification time:	15. 06. 2019 19:07

#	Program:	/corina/corina34_cracker 3.40 0067  02.08.2006

@<TRIPOS>MOLECULE
ASD01190037
  48   52    0    0    0
SMALL
NO_CHARGES


@<TRIPOS>ATOM
   1 C1            -0.0187     1.5258     0.0104 C.3     
   2 C2             0.5319     0.1148    -0.2060 C.3     
   3 N3             3.1005     3.1875     1.0433 N.pl3   
   4 C4             2.3802     2.0948     0.6439 C.2     
   5 C5             1.0967     2.4379     0.4520 C.2     
   6 C6             0.9860     3.8672     0.7531 C.ar    
   7 C7            -0.0679     4.7831     0.7395 C.ar    
   8 C8             0.1609     6.0855     1.0832 C.ar    
   9 C9             1.4333     6.5060     1.4462 C.ar    
  10 C10            2.4872     5.6193     1.4660 C.ar    
  11 C11            2.2770     4.2883     1.1201 C.ar    
  12 C12            4.5331     3.1851     1.3497 C.3     
  13 N13           -2.4772     3.4217    -4.6772 N.pl3   
  14 N14           -3.7894     3.3689    -4.1840 N.2     
  15 N15           -3.7746     2.9366    -2.9726 N.2     
  16 C16           -2.5103     2.6793    -2.5813 C.ar    
  17 C17           -1.6601     2.9832    -3.6593 C.ar    
  18 C18           -1.9568     2.2032    -1.3859 C.ar    
  19 C19           -0.6066     2.0388    -1.2788 C.ar    
  20 C20            0.2321     2.3394    -2.3441 C.ar    
  21 C21           -0.2872     2.8093    -3.5299 C.ar    
  22 C22           -2.0772     3.8337    -5.9560 C.ar    
  23 C23           -2.8784     3.5604    -7.0566 C.ar    
  24 C24           -2.4826     3.9671    -8.3156 C.ar    
  25 C25           -1.2875     4.6471    -8.4808 C.ar    
  26 C26           -0.4871     4.9206    -7.3843 C.ar    
  27 C27           -0.8822     4.5206    -6.1229 C.ar    
  28 F28           -0.9018     5.0437    -9.7133 F       
  29 F29            1.0777    -0.3616     0.9908 F       
  30 F30           -0.5036    -0.7320    -0.6159 F       
  31 F31            1.5249     0.1476    -1.1909 F       
  32 O32           -1.0330     1.4922     1.0164 O.3     
  33 H33            2.7846     1.1032     0.5034 H       
  34 H34           -1.0603     4.4633     0.4579 H       
  35 H35           -0.6545     6.7936     1.0722 H       
  36 H36            1.5984     7.5388     1.7153 H       
  37 H37            3.4734     5.9562     1.7494 H       
  38 H38            5.0986     3.4051     0.4442 H       
  39 H39            4.7447     3.9434     2.1035 H       
  40 H40            4.8218     2.2049     1.7292 H       
  41 H41           -2.5981     1.9662    -0.5499 H       
  42 H42            1.2987     2.2040    -2.2418 H       
  43 H43            0.3692     3.0412    -4.3555 H       
  44 H44           -3.8102     3.0298    -6.9282 H       
  45 H45           -3.1053     3.7544    -9.1720 H       
  46 H46            0.4446     5.4510    -7.5151 H       
  47 H47           -0.2600     4.7383    -5.2674 H       
  48 H48           -1.4276     2.3544     1.2060 H       
@<TRIPOS>BOND
   1    1    2 1
   2    1    5 1
   3    1   19 1
   4    1   32 1
   5    2   29 1
   6    2   30 1
   7    2   31 1
   8    3    4 1
   9    3   11 1
  10    3   12 1
  11    4    5 2
  12    4   33 1
  13    5    6 1
  14    6    7 ar
  15    6   11 ar
  16    7    8 ar
  17    7   34 1
  18    8    9 ar
  19    8   35 1
  20    9   10 ar
  21    9   36 1
  22   10   11 ar
  23   10   37 1
  24   12   38 1
  25   12   39 1
  26   12   40 1
  27   13   14 1
  28   13   17 1
  29   13   22 1
  30   14   15 2
  31   15   16 1
  32   16   17 ar
  33   16   18 ar
  34   17   21 ar
  35   18   19 ar
  36   18   41 1
  37   19   20 ar
  38   20   21 ar
  39   20   42 1
  40   21   43 1
  41   22   23 ar
  42   22   27 ar
  43   23   24 ar
  44   23   44 1
  45   24   25 ar
  46   24   45 1
  47   25   26 ar
  48   25   28 1
  49   26   27 ar
  50   26   46 1
  51   27   47 1
  52   32   48 1

#	End of record

