#	Name: ASD03092507
#	Creating user name:	WinNT
#	Creation time:	15. 06. 2019 20:32

#	Modifying user name:	WinNT
#	Modification time:	15. 06. 2019 20:32

#	Program:	/corina/corina34_cracker 3.40 0067  02.08.2006

@<TRIPOS>MOLECULE
ASD03092507
  48   51    0    0    0
SMALL
NO_CHARGES


@<TRIPOS>ATOM
   1 C1            -0.0129     1.4149    -0.1232 C.3     
   2 O2             0.0047    -0.0140    -0.1155 O.3     
   3 C3            -1.1984    -0.6456    -0.0859 C.ar    
   4 C4            -2.3698     0.0965    -0.0707 C.ar    
   5 C5            -3.5931    -0.5409    -0.0407 C.ar    
   6 C6            -3.6538    -1.9337    -0.0257 C.ar    
   7 C7            -2.4760    -2.6811    -0.0414 C.ar    
   8 C8            -1.2529    -2.0380    -0.0768 C.ar    
   9 O9            -0.1031    -2.7639    -0.0974 O.3     
  10 C10           -0.2339    -4.1868    -0.0865 C.3     
  11 C11           -4.9674    -2.6190     0.0075 C.ar    
  12 C12           -6.1360    -1.8483    -0.0895 C.ar    
  13 C13           -7.3720    -2.4784    -0.0597 C.ar    
  14 C14           -8.6304    -1.7084    -0.1592 C.2     
  15 O15           -9.6949    -2.2904    -0.2314 O.2     
  16 N16           -8.5968    -0.3611    -0.1698 N.am    
  17 C17           -9.7690     0.3632    -0.3741 C.ar    
  18 C18           -9.7476     1.7491    -0.2753 C.ar    
  19 C19          -10.9190     2.4583    -0.4809 C.ar    
  20 C20          -12.0758     1.7543    -0.7795 C.ar    
  21 C21          -12.0257     0.3730    -0.8626 C.ar    
  22 F22          -13.1489    -0.3193    -1.1531 F       
  23 N23          -10.8920    -0.2753    -0.6661 N.ar    
  24 C24           -7.3801    -3.9354     0.0737 C.ar    
  25 C25           -8.5767    -4.6594     0.1125 C.ar    
  26 C26           -8.5389    -6.0166     0.2374 C.ar    
  27 C27           -7.3235    -6.6917     0.3273 C.ar    
  28 C28           -6.1413    -6.0183     0.2932 C.ar    
  29 C29           -6.1402    -4.6169     0.1642 C.ar    
  30 N30           -4.9972    -3.9305     0.1217 N.ar    
  31 H31            1.0100     1.7907    -0.1474 H       
  32 H32           -0.5502     1.7669    -1.0039 H       
  33 H33           -0.5118     1.7771     0.7756 H       
  34 H34           -2.3244     1.1755    -0.0820 H       
  35 H35           -4.5040     0.0393    -0.0286 H       
  36 H36           -2.5198    -3.7601    -0.0294 H       
  37 H37           -0.7595    -4.4964     0.8168 H       
  38 H38           -0.7979    -4.5066    -0.9627 H       
  39 H39            0.7560    -4.6429    -0.1052 H       
  40 H40           -6.0741    -0.7744    -0.1862 H       
  41 H41           -7.7565     0.1043    -0.0351 H       
  42 H42           -8.8291     2.2664    -0.0406 H       
  43 H43          -10.9315     3.5359    -0.4100 H       
  44 H44          -13.0059     2.2777    -0.9451 H       
  45 H45           -9.5246    -4.1463     0.0443 H       
  46 H46           -9.4627    -6.5753     0.2673 H       
  47 H47           -7.3194    -7.7672     0.4260 H       
  48 H48           -5.2081    -6.5571     0.3648 H       
@<TRIPOS>BOND
   1    1    2 1
   2    1   31 1
   3    1   32 1
   4    1   33 1
   5    2    3 1
   6    3    8 ar
   7    3    4 ar
   8    4    5 ar
   9    4   34 1
  10    5    6 ar
  11    5   35 1
  12    6    7 ar
  13    6   11 1
  14    7    8 ar
  15    7   36 1
  16    8    9 1
  17    9   10 1
  18   10   37 1
  19   10   38 1
  20   10   39 1
  21   11   30 ar
  22   11   12 ar
  23   12   13 ar
  24   12   40 1
  25   13   14 1
  26   13   24 ar
  27   14   15 2
  28   14   16 am
  29   16   17 1
  30   16   41 1
  31   17   23 ar
  32   17   18 ar
  33   18   19 ar
  34   18   42 1
  35   19   20 ar
  36   19   43 1
  37   20   21 ar
  38   20   44 1
  39   21   22 1
  40   21   23 ar
  41   24   29 ar
  42   24   25 ar
  43   25   26 ar
  44   25   45 1
  45   26   27 ar
  46   26   46 1
  47   27   28 ar
  48   27   47 1
  49   28   29 ar
  50   28   48 1
  51   29   30 ar

#	End of record

