#	Name: ASD07932216
#	Creating user name:	WinNT
#	Creation time:	15. 06. 2019 21:14

#	Modifying user name:	WinNT
#	Modification time:	15. 06. 2019 21:14

#	Program:	/corina/corina34_cracker 3.40 0067  02.08.2006

@<TRIPOS>MOLECULE
ASD07932216
  74   76    0    0    0
SMALL
NO_CHARGES


@<TRIPOS>ATOM
   1 Cl1            0.0000     0.0000     0.0000 Cl      
   2 H2             0.0000     1.3700     0.0000 H       
   3 Cl3            5.0000     6.3700     5.0000 Cl      
   4 H4             5.0000     7.7400     5.0000 H       
   5 C5            10.9497    20.0821    13.0863 C.ar    
   6 C6            10.9800    18.6885    13.0829 C.ar    
   7 C7            12.1604    18.0146    13.0004 C.ar    
   8 C8            13.3648    18.7310    12.9177 C.ar    
   9 C9            13.3373    20.1503    12.9209 C.ar    
  10 C10           12.0964    20.8097    13.0076 C.ar    
  11 C11           14.6044    18.0696    12.8317 C.ar    
  12 C12           15.7370    18.8275    12.7544 C.ar    
  13 C13           15.6417    20.2270    12.7622 C.ar    
  14 N14           14.4760    20.8384    12.8431 N.ar    
  15 C15           16.8803    21.0378    12.6776 C.2     
  16 N16           16.8066    22.3835    12.6839 N.am    
  17 O17           17.9617    20.4889    12.6026 O.2     
  18 C18           18.0304    23.1845    12.6003 C.3     
  19 C19           17.7853    24.5574    13.2296 C.3     
  20 C20           19.0634    25.3940    13.1423 C.3     
  21 C21           19.4592    25.5689    11.6747 C.3     
  22 C22           19.7043    24.1960    11.0455 C.3     
  23 C23           18.4262    23.3594    11.1328 C.3     
  24 O24           17.4156    24.3941    14.6002 O.3     
  25 C25           14.6791    16.5644    12.8256 C.3     
  26 N26           14.4714    16.0584    14.1890 N.3     
  27 C27           14.1717    14.6208    14.1768 C.3     
  28 C28           13.8192    14.1599    15.5928 C.3     
  29 C29           14.9987    14.4464    16.5262 C.3     
  30 C30           15.3214    15.9426    16.4835 C.3     
  31 C31           15.6304    16.3519    15.0416 C.3     
  32 C32           14.6351    14.0496    17.9338 C.ar    
  33 C33           16.1735    13.6771    16.0847 C.1     
  34 C34           15.5491    14.2171    18.9569 C.ar    
  35 C35           15.2155    13.8530    20.2483 C.ar    
  36 C36           13.9679    13.3219    20.5162 C.ar    
  37 C37           13.0533    13.1553    19.4929 C.ar    
  38 C38           13.3852    13.5233    18.2026 C.ar    
  39 N39           17.0801    13.0834    15.7441 N.1     
  40 C40           16.9094    14.7961    18.6648 C.3     
  41 H41           10.0000    20.5926    13.1480 H       
  42 H42           10.0545    18.1356    13.1468 H       
  43 H43           12.1699    16.9346    12.9991 H       
  44 H44           12.0551    21.8889    13.0118 H       
  45 H45           16.7039    18.3510    12.6877 H       
  46 H46           15.9433    22.8217    12.7438 H       
  47 H47           18.8336    22.6778    13.1354 H       
  48 H48           16.9821    25.0641    12.6945 H       
  49 H49           18.8888    26.3721    13.5905 H       
  50 H50           19.8665    24.8872    13.6773 H       
  51 H51           18.6560    26.0756    11.1397 H       
  52 H52           20.3697    26.1648    11.6125 H       
  53 H53           19.9863    24.3206    10.0000 H       
  54 H54           20.5075    23.6892    11.5805 H       
  55 H55           18.6008    22.3813    10.6845 H       
  56 H56           17.6231    23.8661    10.5978 H       
  57 H57           17.2446    25.2256    15.0632 H       
  58 H58           13.9069    16.1649    12.1682 H       
  59 H59           15.6595    16.2507    12.4671 H       
  60 H60           13.3285    14.4313    13.5126 H       
  61 H61           15.0437    14.0711    13.8224 H       
  62 H62           12.9390    14.6993    15.9426 H       
  63 H63           13.6120    13.0897    15.5862 H       
  64 H64           14.4648    16.5102    16.8472 H       
  65 H65           16.1875    16.1462    17.1131 H       
  66 H66           16.4955    15.7941    14.6832 H       
  67 H67           15.8466    17.4197    15.0056 H       
  68 H68           15.9300    13.9832    21.0477 H       
  69 H69           13.7076    13.0369    21.5248 H       
  70 H70           12.0785    12.7400    19.7021 H       
  71 H71           12.6708    13.3931    17.4032 H       
  72 H72           16.8720    15.8807    18.7661 H       
  73 H73           17.6358    14.3903    19.3689 H       
  74 H74           17.2043    14.5361    17.6482 H       
@<TRIPOS>BOND
   1    1    2 1
   2    3    4 1
   3    5    6 ar
   4    5   10 ar
   5    5   41 1
   6    6    7 ar
   7    6   42 1
   8    7    8 ar
   9    7   43 1
  10    8    9 ar
  11    8   11 ar
  12    9   10 ar
  13    9   14 ar
  14   10   44 1
  15   11   12 ar
  16   11   25 1
  17   12   13 ar
  18   12   45 1
  19   13   14 ar
  20   13   15 1
  21   15   16 am
  22   15   17 2
  23   16   18 1
  24   16   46 1
  25   18   19 1
  26   18   23 1
  27   18   47 1
  28   19   20 1
  29   19   24 1
  30   19   48 1
  31   20   21 1
  32   20   49 1
  33   20   50 1
  34   21   22 1
  35   21   51 1
  36   21   52 1
  37   22   23 1
  38   22   53 1
  39   22   54 1
  40   23   55 1
  41   23   56 1
  42   24   57 1
  43   25   26 1
  44   25   58 1
  45   25   59 1
  46   26   27 1
  47   26   31 1
  48   27   28 1
  49   27   60 1
  50   27   61 1
  51   28   29 1
  52   28   62 1
  53   28   63 1
  54   29   30 1
  55   29   32 1
  56   29   33 1
  57   30   31 1
  58   30   64 1
  59   30   65 1
  60   31   66 1
  61   31   67 1
  62   32   34 ar
  63   32   38 ar
  64   33   39 3
  65   34   35 ar
  66   34   40 1
  67   35   36 ar
  68   35   68 1
  69   36   37 ar
  70   36   69 1
  71   37   38 ar
  72   37   70 1
  73   38   71 1
  74   40   72 1
  75   40   73 1
  76   40   74 1

#	End of record

