#	Name: ASD05590003
#	Creating user name:	WinNT
#	Creation time:	15. 06. 2019 21:01

#	Modifying user name:	WinNT
#	Modification time:	15. 06. 2019 21:01

#	Program:	/corina/corina34_cracker 3.40 0067  02.08.2006

@<TRIPOS>MOLECULE
ASD05590003
  29   29    0    0    0
SMALL
NO_CHARGES


@<TRIPOS>ATOM
   1 C1            -0.0187     1.5258     0.0104 C.3     
   2 C2             0.0021    -0.0041     0.0020 C.3     
   3 C3            -1.4333    -0.5336     0.0129 C.3     
   4 O4             1.3220     2.0204     0.0003 O.3     
   5 C5            -1.4129    -2.0405     0.0046 C.ar    
   6 C6            -1.3921    -2.7380     1.1979 C.ar    
   7 C7            -1.3733    -4.1202     1.1903 C.ar    
   8 C8            -1.3757    -4.8049    -0.0106 C.ar    
   9 C9            -1.3975    -4.1074    -1.2039 C.ar    
  10 C10           -1.4206    -2.7252    -1.1962 C.ar    
  11 C11           -1.3543    -6.3117    -0.0189 C.3     
  12 C12           -2.7893    -6.8423    -0.0070 C.3     
  13 S13           -2.7634    -8.6561    -0.0170 S.3     
  14 H14           -0.5459     1.8868    -0.8726 H       
  15 H15           -0.5289     1.8773     0.9072 H       
  16 H16            0.5123    -0.3556    -0.8948 H       
  17 H17            0.5293    -0.3651     0.8851 H       
  18 H18           -1.9435    -0.1821     0.9097 H       
  19 H19           -1.9605    -0.1726    -0.8702 H       
  20 H20            1.3852     2.9853     0.0049 H       
  21 H21           -1.3901    -2.2031     2.1361 H       
  22 H22           -1.3563    -4.6652     2.1225 H       
  23 H23           -1.3991    -4.6423    -2.1421 H       
  24 H24           -1.4413    -2.1803    -2.1285 H       
  25 H25           -0.8445    -6.6629    -0.9161 H       
  26 H26           -0.8262    -6.6724     0.8638 H       
  27 H27           -3.2990    -6.4911     0.8902 H       
  28 H28           -3.3174    -6.4816    -0.8896 H       
  29 H29           -4.0694    -8.9774    -0.0052 H       
@<TRIPOS>BOND
   1    1    2 1
   2    1    4 1
   3    1   14 1
   4    1   15 1
   5    2    3 1
   6    2   16 1
   7    2   17 1
   8    3    5 1
   9    3   18 1
  10    3   19 1
  11    4   20 1
  12    5    6 ar
  13    5   10 ar
  14    6    7 ar
  15    6   21 1
  16    7    8 ar
  17    7   22 1
  18    8    9 ar
  19    8   11 1
  20    9   10 ar
  21    9   23 1
  22   10   24 1
  23   11   12 1
  24   11   25 1
  25   11   26 1
  26   12   13 1
  27   12   27 1
  28   12   28 1
  29   13   29 1

#	End of record

