#	Name: ASD08390065
#	Creating user name:	WinNT
#	Creation time:	15. 06. 2019 21:19

#	Modifying user name:	WinNT
#	Modification time:	15. 06. 2019 21:19

#	Program:	/corina/corina34_cracker 3.40 0067  02.08.2006

@<TRIPOS>MOLECULE
ASD08390065
  49   51    0    0    0
SMALL
NO_CHARGES


@<TRIPOS>ATOM
   1 C1             1.5557     0.9315    -1.0800 C.3     
   2 C2             2.7596     0.0916    -1.5509 C.3     
   3 N3             2.1527     1.8625    -0.1078 N.pl3   
   4 C4             3.4961     1.6005    -0.0290 C.2     
   5 N5             3.8945     0.6399    -0.7957 N.2     
   6 C6             4.4116     2.3533     0.8587 C.ar    
   7 C7             0.9493     1.6858    -2.2351 C.ar    
   8 C8             4.1035     3.6600     1.2361 C.ar    
   9 C9             4.9605     4.3564     2.0635 C.ar    
  10 C10            6.1236     3.7611     2.5181 C.ar    
  11 C11            6.4349     2.4653     2.1467 C.ar    
  12 C12            5.5824     1.7564     1.3252 C.ar    
  13 C13           -0.1897     1.2045    -2.8531 C.ar    
  14 C14           -0.7460     1.8963    -3.9127 C.ar    
  15 C15           -0.1635     3.0698    -4.3540 C.ar    
  16 C16            0.9749     3.5516    -3.7354 C.ar    
  17 C17            1.5287     2.8620    -2.6730 C.ar    
  18 C18            1.4341     2.8930     0.6459 C.3     
  19 C19            2.5503    -1.3847    -1.2079 C.3     
  20 C20            2.0172     3.0006     2.0313 C.2     
  21 O21            2.7600     2.1409     2.4426 O.2     
  22 O22            1.7115     4.0515     2.8084 O.3     
  23 C23            2.3096     4.0894     4.1310 C.3     
  24 C24            1.5711     4.2377    -0.0710 C.3     
  25 C25            2.9755     0.2626    -3.0326 C.2     
  26 O26            2.4651    -0.5084    -3.8104 O.2     
  27 O27            3.7348     1.2713    -3.4881 O.3     
  28 H28            0.8101     0.2987    -0.5986 H       
  29 H29            3.1961     4.1260     0.8813 H       
  30 H30            4.7230     5.3684     2.3565 H       
  31 H31            6.7915     4.3102     3.1652 H       
  32 H32            7.3445     2.0059     2.5045 H       
  33 H33            5.8263     0.7447     1.0362 H       
  34 H34           -0.6447     0.2877    -2.5084 H       
  35 H35           -1.6354     1.5199    -4.3961 H       
  36 H36           -0.5978     3.6099    -5.1823 H       
  37 H37            1.4301     4.4682    -4.0804 H       
  38 H38            2.4181     3.2384    -2.1897 H       
  39 H39            0.3801     2.6239     0.7152 H       
  40 H40            1.6497    -1.7486    -1.7025 H       
  41 H41            3.4101    -1.9621    -1.5478 H       
  42 H42            2.4422    -1.4952    -0.1289 H       
  43 H43            3.3956     4.0997     4.0385 H       
  44 H44            1.9808     4.9882     4.6527 H       
  45 H45            2.0012     3.2088     4.6946 H       
  46 H46            0.8896     4.2673    -0.9211 H       
  47 H47            1.3255     5.0443     0.6198 H       
  48 H48            2.5957     4.3595    -0.4222 H       
  49 H49            3.8443     1.3403    -4.4465 H       
@<TRIPOS>BOND
   1    1    2 1
   2    1    3 1
   3    1    7 1
   4    1   28 1
   5    2   19 1
   6    2   25 1
   7    2    5 1
   8    3    4 1
   9    3   18 1
  10    4    5 2
  11    4    6 1
  12    6    8 ar
  13    6   12 ar
  14    7   13 ar
  15    7   17 ar
  16    8    9 ar
  17    8   29 1
  18    9   10 ar
  19    9   30 1
  20   10   11 ar
  21   10   31 1
  22   11   12 ar
  23   11   32 1
  24   12   33 1
  25   13   14 ar
  26   13   34 1
  27   14   15 ar
  28   14   35 1
  29   15   16 ar
  30   15   36 1
  31   16   17 ar
  32   16   37 1
  33   17   38 1
  34   18   20 1
  35   18   24 1
  36   18   39 1
  37   19   40 1
  38   19   41 1
  39   19   42 1
  40   20   21 2
  41   20   22 1
  42   22   23 1
  43   23   43 1
  44   23   44 1
  45   23   45 1
  46   24   46 1
  47   24   47 1
  48   24   48 1
  49   25   26 2
  50   25   27 1
  51   27   49 1

#	End of record

