#	Name: ASD01120231
#	Creating user name:	WinNT
#	Creation time:	15. 06. 2019 18:59

#	Modifying user name:	WinNT
#	Modification time:	15. 06. 2019 18:59

#	Program:	/corina/corina34_cracker 3.40 0067  02.08.2006

@<TRIPOS>MOLECULE
ASD01120231
  55   56    0    0    0
SMALL
NO_CHARGES


@<TRIPOS>ATOM
   1 C1            -0.0167     1.3791     0.0096 C.ar    
   2 C2             0.0021    -0.0041     0.0020 C.ar    
   3 C3            -1.1857    -0.7112     0.0100 C.ar    
   4 C4            -2.3919    -0.0365     0.0257 C.ar    
   5 C5            -2.4113     1.3460     0.0333 C.ar    
   6 C6            -1.2245     2.0540     0.0306 C.ar    
   7 S7            -3.9495     2.2052     0.0532 S.o2    
   8 N8            -4.3617     2.4358     1.6404 N.am    
   9 C9            -3.6007     3.2226     2.4268 C.2     
  10 N10           -3.9362     3.4102     3.7186 N.am    
  11 O11           -3.6957     3.4949    -0.4869 O.2     
  12 O12           -4.9146     1.3128    -0.4865 O.2     
  13 O13           -2.6116     3.7631     1.9709 O.2     
  14 C14           -1.5339    11.4298    12.2804 C.ar    
  15 C15           -2.6235    12.1900    12.6658 C.ar    
  16 C16           -3.6258    11.6231    13.4305 C.ar    
  17 C17           -3.5395    10.2968    13.8101 C.ar    
  18 C18           -2.4508     9.5364    13.4251 C.ar    
  19 C19           -1.4507    10.1007    12.6562 C.ar    
  20 S20           -2.3418     7.8458    13.9095 S.o2    
  21 N21           -3.0754     6.9487    12.7265 N.am    
  22 C22           -2.5496     6.9104    11.4861 C.2     
  23 N23           -3.1467     6.1803    10.5234 N.am    
  24 O24           -0.9624     7.5062    13.8733 O.2     
  25 O25           -3.1456     7.7092    15.0733 O.2     
  26 O26           -1.5367     7.5346    11.2357 O.2     
  27 C27           -2.8421     5.2021     6.8742 C.3     
  28 C28           -3.7059     4.3089     5.9815 C.3     
  29 Cl29          -0.2751    12.1409    11.3195 Cl      
  30 Cl30           1.4746     2.2678     0.0002 Cl      
  31 C31           -3.1091     4.2655     4.5734 C.3     
  32 C32           -3.4390     5.2455     8.2824 C.3     
  33 C33           -2.5752     6.1387     9.1751 C.3     
  34 H34            0.9445    -0.5314    -0.0105 H       
  35 H35           -1.1712    -1.7911     0.0037 H       
  36 H36           -3.3197    -0.5894     0.0316 H       
  37 H37           -1.2398     3.1339     0.0365 H       
  38 H38           -5.1507     2.0046     2.0041 H       
  39 H39           -4.7253     2.9790     4.0823 H       
  40 H40           -2.6908    13.2264    12.3696 H       
  41 H41           -4.4763    12.2166    13.7317 H       
  42 H42           -4.3227     9.8544    14.4078 H       
  43 H43           -0.6003     9.5066    12.3557 H       
  44 H44           -3.8835     6.4508    12.9264 H       
  45 H45           -3.9548     5.6824    10.7232 H       
  46 H46           -1.8303     4.7994     6.9208 H       
  47 H47           -2.8133     6.2101     6.4606 H       
  48 H48           -3.7347     3.3009     6.3952 H       
  49 H49           -4.7178     4.7116     5.9350 H       
  50 H50           -2.0973     3.8628     4.6199 H       
  51 H51           -3.0803     5.2735     4.1597 H       
  52 H52           -4.4508     5.6482     8.2358 H       
  53 H53           -3.4677     4.2375     8.6960 H       
  54 H54           -2.5464     7.1467     8.7614 H       
  55 H55           -1.5633     5.7360     9.2216 H       
@<TRIPOS>BOND
   1    1    2 ar
   2    1   30 1
   3    1    6 ar
   4    2    3 ar
   5    2   34 1
   6    3    4 ar
   7    3   35 1
   8    4    5 ar
   9    4   36 1
  10    5    6 ar
  11    5    7 1
  12    6   37 1
  13    7    8 am
  14    7   11 2
  15    7   12 2
  16    8    9 am
  17    8   38 1
  18    9   10 am
  19    9   13 2
  20   10   31 1
  21   10   39 1
  22   14   15 ar
  23   14   29 1
  24   14   19 ar
  25   15   16 ar
  26   15   40 1
  27   16   17 ar
  28   16   41 1
  29   17   18 ar
  30   17   42 1
  31   18   19 ar
  32   18   20 1
  33   19   43 1
  34   20   21 am
  35   20   24 2
  36   20   25 2
  37   21   22 am
  38   21   44 1
  39   22   23 am
  40   22   26 2
  41   23   33 1
  42   23   45 1
  43   27   28 1
  44   27   32 1
  45   27   46 1
  46   27   47 1
  47   28   31 1
  48   28   48 1
  49   28   49 1
  50   31   50 1
  51   31   51 1
  52   32   33 1
  53   32   52 1
  54   32   53 1
  55   33   54 1
  56   33   55 1

#	End of record

