#	Name: ASD03180071
#	Creating user name:	WinNT
#	Creation time:	15. 06. 2019 20:33

#	Modifying user name:	WinNT
#	Modification time:	15. 06. 2019 20:33

#	Program:	/corina/corina34_cracker 3.40 0067  02.08.2006

@<TRIPOS>MOLECULE
ASD03180071
  36   38    0    0    0
SMALL
NO_CHARGES


@<TRIPOS>ATOM
   1 C1             0.4088     1.0221    -1.5083 C.ar    
   2 C2             0.0936    -0.0507    -0.6878 C.ar    
   3 C3             0.9393    -0.3992     0.3553 C.ar    
   4 C4             2.0957     0.3218     0.5774 C.ar    
   5 C5             2.4124     1.3961    -0.2441 C.ar    
   6 C6             1.5654     1.7442    -1.2879 C.ar    
   7 N7             3.5843     2.1280    -0.0193 N.pl3   
   8 N8             4.6095     4.2793    -0.0404 N.2     
   9 C9             4.4002     5.5903    -0.1576 C.2     
  10 C10            3.5675     3.5104    -0.1168 C.2     
  11 S11            2.1285     4.4944    -0.3645 S.3     
  12 C12            3.1174     5.9525    -0.3426 C.2     
  13 C13            5.4998     6.5772    -0.0887 C.2     
  14 S14            5.3358     8.3259    -0.2294 S.3     
  15 C15            7.0238     8.5102    -0.0321 C.2     
  16 N16            7.5873     7.3589     0.1172 N.2     
  17 C17            6.8078     6.2992     0.0991 C.2     
  18 C18            7.7509     9.8302    -0.0325 C.3     
  19 C19            7.3302     4.8958     0.2683 C.3     
  20 O20           -1.0453    -0.7611    -0.9057 O.3     
  21 C21            3.0136    -0.0564     1.7112 C.3     
  22 H22           -0.2480     1.2902    -2.3227 H       
  23 H23            0.6929    -1.2346     0.9939 H       
  24 H24            1.8107     2.5796    -1.9269 H       
  25 H25            4.4082     1.6676     0.2047 H       
  26 H26            2.7559     6.9637    -0.4574 H       
  27 H27            7.7996    10.2185     0.9848 H       
  28 H28            8.7612     9.6884    -0.4161 H       
  29 H29            7.2176    10.5386    -0.6666 H       
  30 H30            7.5863     4.4834    -0.7076 H       
  31 H31            8.2182     4.9124     0.9001 H       
  32 H32            6.5639     4.2766     0.7346 H       
  33 H33           -0.9332    -1.5090    -1.5083 H       
  34 H34            3.7491    -0.7790     1.3576 H       
  35 H35            3.5255     0.8339     2.0766 H       
  36 H36            2.4302    -0.4976     2.5193 H       
@<TRIPOS>BOND
   1    1    2 ar
   2    1    6 ar
   3    1   22 1
   4    2    3 ar
   5    2   20 1
   6    3    4 ar
   7    3   23 1
   8    4    5 ar
   9    4   21 1
  10    5    6 ar
  11    5    7 1
  12    6   24 1
  13    7   10 1
  14    7   25 1
  15    8   10 2
  16    8    9 1
  17    9   12 2
  18    9   13 1
  19   10   11 1
  20   11   12 1
  21   12   26 1
  22   13   14 1
  23   13   17 2
  24   14   15 1
  25   15   16 2
  26   15   18 1
  27   16   17 1
  28   17   19 1
  29   18   27 1
  30   18   28 1
  31   18   29 1
  32   19   30 1
  33   19   31 1
  34   19   32 1
  35   20   33 1
  36   21   34 1
  37   21   35 1
  38   21   36 1

#	End of record

