#	Name: ASD00069217
#	Creating user name:	WinNT
#	Creation time:	15. 06. 2019 18:29

#	Modifying user name:	WinNT
#	Modification time:	15. 06. 2019 18:29

#	Program:	/corina/corina34_cracker 3.40 0067  02.08.2006

@<TRIPOS>MOLECULE
ASD00069217
  94   99    0    0    0
SMALL
NO_CHARGES


@<TRIPOS>ATOM
   1 N1            -0.0007     1.4706     0.0070 N.3     
   2 C2            -0.0022     0.0021     0.0040 C.3     
   3 C3             0.6652    -0.5074    -1.2755 C.3     
   4 C4             2.1011     0.0202    -1.3412 C.3     
   5 C5             2.0773     1.5503    -1.2877 C.3     
   6 C6             1.3689     2.0002    -0.0079 C.3     
   7 C7            -0.1059    -0.0183    -2.4743 C.2     
   8 O8            -1.0925     0.6702    -2.3211 O.2     
   9 N9             0.3008    -0.3460    -3.7167 N.am    
  10 C10            1.3249     3.5288     0.0400 C.3     
  11 C11           -0.4488     0.1295    -4.8822 C.3     
  12 C12            0.4788     0.1840    -6.0977 C.3     
  13 C13           -0.3041     0.6806    -7.3148 C.3     
  14 C14           -1.4634    -0.2761    -7.6005 C.3     
  15 C15           -2.3910    -0.3306    -6.3850 C.3     
  16 C16           -1.6081    -0.8272    -5.1679 C.3     
  17 C17           -2.4128     3.2849     1.9262 C.ar    
  18 N18           -1.7260     2.8067     0.8991 N.ar    
  19 C19           -0.7129     1.9658     1.0879 C.ar    
  20 C20           -0.3773     1.5889     2.3871 C.ar    
  21 C21           -1.1222     2.1122     3.4417 C.ar    
  22 N22           -2.1244     2.9505     3.1738 N.ar    
  23 N23           -3.4565     4.1622     1.6884 N.pl3   
  24 C24           -4.2289     4.7028     2.8097 C.3     
  25 C25            0.1529     0.8265     6.5484 C.2     
  26 N26            0.1712     0.9155     5.2379 N.2     
  27 C27           -0.8054     1.7425     4.8419 C.2     
  28 C28           -1.4625     2.1886     5.9674 C.2     
  29 N29           -0.8580     1.6120     7.0291 N.pl3   
  30 C30            1.0679     0.0091     7.3663 C.2     
  31 N31            2.0251    -0.7302     6.7714 N.am    
  32 O32            0.9589     0.0020     8.5775 O.2     
  33 C33            2.9680    -1.4125     7.5502 C.ar    
  34 C34            3.4690    -2.6417     7.1236 C.ar    
  35 C35            4.4037    -3.3130     7.9006 C.ar    
  36 C36            4.8347    -2.7607     9.0945 C.ar    
  37 C37            4.3369    -1.5415     9.5161 C.ar    
  38 C38            3.4104    -0.8644     8.7454 C.ar    
  39 F39            4.8918    -4.5045     7.4919 F       
  40 N40            3.0304    -3.1980     5.9152 N.3     
  41 C41            4.1518    -3.3909     4.9869 C.3     
  42 C42            3.6188    -3.8614     3.6317 C.3     
  43 C43            2.8541    -5.1749     3.8177 C.3     
  44 C44            1.7217    -4.9589     4.8255 C.3     
  45 C45            2.3097    -4.4565     6.1461 C.3     
  46 C46            2.2670    -5.6190     2.4764 C.3     
  47 N47            1.6365    -6.9369     2.6302 N.3     
  48 H48            0.5480    -0.3634     0.8710 H       
  49 H49           -1.0294    -0.3600     0.0468 H       
  50 H50            0.6779    -1.5973    -1.2701 H       
  51 H51            2.6698    -0.3650    -0.4949 H       
  52 H52            2.5662    -0.3045    -2.2720 H       
  53 H53            3.0988     1.9305    -1.2911 H       
  54 H54            1.5417     1.9365    -2.1550 H       
  55 H55            1.9127     1.6253     0.8591 H       
  56 H56            1.0899    -0.8967    -3.8393 H       
  57 H57            0.8213     3.8494     0.9520 H       
  58 H58            2.3415     3.9220     0.0289 H       
  59 H59            0.7808     3.9040    -0.8267 H       
  60 H60           -0.8415     1.1259    -4.6798 H       
  61 H61            1.3047     0.8656    -5.8941 H       
  62 H62            0.8715    -0.8125    -6.3001 H       
  63 H63           -0.6968     1.6770    -7.1124 H       
  64 H64            0.3568     0.7194    -8.1808 H       
  65 H65           -2.0212     0.0777    -8.4676 H       
  66 H66           -1.0708    -1.2726    -7.8029 H       
  67 H67           -2.7837     0.6658    -6.1826 H       
  68 H68           -3.2170    -1.0122    -6.5885 H       
  69 H69           -1.2155    -1.8237    -5.3702 H       
  70 H70           -2.2690    -0.8661    -4.3019 H       
  71 H71            0.4400     0.9074     2.5717 H       
  72 H72           -3.6765     4.4191     0.7793 H       
  73 H73           -5.0025     5.3701     2.4298 H       
  74 H74           -4.6932     3.8840     3.3593 H       
  75 H75           -3.5657     5.2565     3.4743 H       
  76 H76           -2.3008     2.8690     5.9956 H       
  77 H77           -1.0972     1.7329     7.9614 H       
  78 H78            2.0608    -0.7896     5.8039 H       
  79 H79            5.5615    -3.2836     9.6985 H       
  80 H80            4.6761    -1.1150    10.4485 H       
  81 H81            3.0276     0.0899     9.0759 H       
  82 H82            4.6846    -2.4485     4.8603 H       
  83 H83            4.8320    -4.1411     5.3900 H       
  84 H84            2.9492    -3.1054     3.2216 H       
  85 H85            4.4526    -4.0195     2.9477 H       
  86 H86            3.5327    -5.9418     4.1911 H       
  87 H87            1.0223    -4.2201     4.4342 H       
  88 H88            1.2002    -5.9010     4.9944 H       
  89 H89            2.9986    -5.2018     6.5438 H       
  90 H90            1.5046    -4.2880     6.8613 H       
  91 H91            1.5206    -4.8952     2.1490 H       
  92 H92            3.0628    -5.6813     1.7342 H       
  93 H93            0.9387    -6.9211     3.3588 H       
  94 H94            1.2409    -7.2525     1.7573 H       
@<TRIPOS>BOND
   1    1    2 1
   2    1    6 1
   3    1   19 1
   4    2    3 1
   5    2   48 1
   6    2   49 1
   7    3    4 1
   8    3    7 1
   9    3   50 1
  10    4    5 1
  11    4   51 1
  12    4   52 1
  13    5    6 1
  14    5   53 1
  15    5   54 1
  16    6   10 1
  17    6   55 1
  18    7    8 2
  19    7    9 am
  20    9   11 1
  21    9   56 1
  22   10   57 1
  23   10   58 1
  24   10   59 1
  25   11   12 1
  26   11   16 1
  27   11   60 1
  28   12   13 1
  29   12   61 1
  30   12   62 1
  31   13   14 1
  32   13   63 1
  33   13   64 1
  34   14   15 1
  35   14   65 1
  36   14   66 1
  37   15   16 1
  38   15   67 1
  39   15   68 1
  40   16   69 1
  41   16   70 1
  42   17   18 ar
  43   17   22 ar
  44   17   23 1
  45   18   19 ar
  46   19   20 ar
  47   20   21 ar
  48   20   71 1
  49   21   22 ar
  50   21   27 1
  51   23   24 1
  52   23   72 1
  53   24   73 1
  54   24   74 1
  55   24   75 1
  56   25   26 2
  57   25   29 1
  58   25   30 1
  59   26   27 1
  60   27   28 2
  61   28   29 1
  62   28   76 1
  63   29   77 1
  64   30   31 am
  65   30   32 2
  66   31   33 1
  67   31   78 1
  68   33   34 ar
  69   33   38 ar
  70   34   35 ar
  71   34   40 1
  72   35   36 ar
  73   35   39 1
  74   36   37 ar
  75   36   79 1
  76   37   38 ar
  77   37   80 1
  78   38   81 1
  79   40   41 1
  80   40   45 1
  81   41   42 1
  82   41   82 1
  83   41   83 1
  84   42   43 1
  85   42   84 1
  86   42   85 1
  87   43   44 1
  88   43   46 1
  89   43   86 1
  90   44   45 1
  91   44   87 1
  92   44   88 1
  93   45   89 1
  94   45   90 1
  95   46   47 1
  96   46   91 1
  97   46   92 1
  98   47   93 1
  99   47   94 1

#	End of record

