#	Name: ASD01008013
#	Creating user name:	WinNT
#	Creation time:	15. 06. 2019 18:56

#	Modifying user name:	WinNT
#	Modification time:	15. 06. 2019 18:56

#	Program:	/corina/corina34_cracker 3.40 0067  02.08.2006

@<TRIPOS>MOLECULE
ASD01008013
  44   46    0    0    0
SMALL
NO_CHARGES


@<TRIPOS>ATOM
   1 C1            -0.3294     1.5898     0.1055 C.2     
   2 N2            -0.1932     0.3889    -0.4923 N.am    
   3 C3             1.1298    -0.2569    -0.4697 C.3     
   4 C4             2.2491     0.4845     0.2307 C.2     
   5 C5             1.9735     1.6565     0.7749 C.2     
   6 N6             0.7001     2.1976     0.7105 N.am    
   7 S7            -1.8573     2.3619     0.0849 S.2     
   8 C8             3.0658     2.4193     1.4792 C.3     
   9 C9             0.4669     3.5015     1.3362 C.3     
  10 C10            0.9779    -1.6013     0.1940 C.ar    
  11 C11            1.2274    -2.7565    -0.5217 C.ar    
  12 C12            1.0874    -3.9936     0.0899 C.ar    
  13 C13            0.6971    -4.0676     1.4193 C.ar    
  14 C14            0.4489    -2.9098     2.1304 C.ar    
  15 C15            0.5946    -1.6774     1.5201 C.ar    
  16 O16            1.3318    -5.1314    -0.6120 O.3     
  17 C17            3.6370    -0.0978     0.3054 C.3     
  18 O18            3.5731    -1.4113     0.8646 O.3     
  19 C19            4.2268    -0.1696    -1.0796 C.ar    
  20 C20            5.0905     0.8185    -1.5144 C.ar    
  21 C21            5.6325     0.7533    -2.7859 C.ar    
  22 C22            5.3082    -0.3040    -3.6229 C.ar    
  23 C23            4.4434    -1.2913    -3.1847 C.ar    
  24 C24            3.9081    -1.2262    -1.9117 C.ar    
  25 F25            5.8357    -0.3696    -4.8649 F       
  26 F26            6.4762     1.7187    -3.2117 F       
  27 H27           -0.9479    -0.0389    -0.9262 H       
  28 H28            1.4362    -0.4294    -1.5015 H       
  29 H29            3.6341     2.9966     0.7500 H       
  30 H30            2.6232     3.0942     2.2118 H       
  31 H31            3.7300     1.7187     1.9853 H       
  32 H32           -0.5760     3.7882     1.2007 H       
  33 H33            0.6911     3.4389     2.4011 H       
  34 H34            1.1120     4.2477     0.8724 H       
  35 H35            1.5307    -2.6963    -1.5564 H       
  36 H36            0.5871    -5.0296     1.8976 H       
  37 H37            0.1447    -2.9668     3.1651 H       
  38 H38            0.4047    -0.7731     2.0791 H       
  39 H39            2.2493    -5.4330    -0.5653 H       
  40 H40            4.2631     0.5349     0.9345 H       
  41 H41            3.1645    -2.0669     0.2829 H       
  42 H42            5.3420     1.6415    -0.8618 H       
  43 H43            4.1899    -2.1149    -3.8357 H       
  44 H44            3.2366    -1.9994    -1.5686 H       
@<TRIPOS>BOND
   1    1    2 am
   2    1    6 am
   3    1    7 2
   4    2    3 1
   5    2   27 1
   6    3    4 1
   7    3   10 1
   8    3   28 1
   9    4    5 2
  10    4   17 1
  11    5    6 1
  12    5    8 1
  13    6    9 1
  14    8   29 1
  15    8   30 1
  16    8   31 1
  17    9   32 1
  18    9   33 1
  19    9   34 1
  20   10   11 ar
  21   10   15 ar
  22   11   12 ar
  23   11   35 1
  24   12   13 ar
  25   12   16 1
  26   13   14 ar
  27   13   36 1
  28   14   15 ar
  29   14   37 1
  30   15   38 1
  31   16   39 1
  32   17   18 1
  33   17   19 1
  34   17   40 1
  35   18   41 1
  36   19   20 ar
  37   19   24 ar
  38   20   21 ar
  39   20   42 1
  40   21   22 ar
  41   21   26 1
  42   22   23 ar
  43   22   25 1
  44   23   24 ar
  45   23   43 1
  46   24   44 1

#	End of record

