#	Name: ASD03220001
#	Creating user name:	WinNT
#	Creation time:	15. 06. 2019 20:34

#	Modifying user name:	WinNT
#	Modification time:	15. 06. 2019 20:34

#	Program:	/corina/corina34_cracker 3.40 0067  02.08.2006

@<TRIPOS>MOLECULE
ASD03220001
  77   81    0    0    0
SMALL
NO_CHARGES


@<TRIPOS>ATOM
   1 C1             0.0691    -0.3350    -8.3388 C.ar    
   2 C2             0.2943    -1.1420    -7.1951 C.ar    
   3 N3            -0.6968    -1.8859    -6.6975 N.ar    
   4 C4            -1.8974    -1.8881    -7.2521 C.ar    
   5 C5            -2.1818    -1.1080    -8.3886 C.ar    
   6 C6            -1.2064    -0.3339    -8.9399 C.ar    
   7 C7             1.1168     0.4424    -8.8559 C.ar    
   8 C8             2.3382     0.4139    -8.2543 C.ar    
   9 C9             2.5633    -0.3791    -7.1295 C.ar    
  10 C10            1.5689    -1.1452    -6.6006 C.ar    
  11 C11           -2.9588    -2.7247    -6.6687 C.2     
  12 C12           -2.7027    -3.4754    -5.5840 C.2     
  13 Cl13           4.1344    -0.3889    -6.3912 Cl      
  14 C14           -3.7651    -4.3128    -5.0000 C.ar    
  15 C15           -5.0403    -4.3289    -5.5714 C.ar    
  16 C16           -6.0298    -5.1153    -5.0191 C.ar    
  17 C17           -5.7623    -5.8869    -3.9022 C.ar    
  18 C18           -4.5019    -5.8757    -3.3305 C.ar    
  19 C19           -3.5009    -5.0994    -3.8751 C.ar    
  20 C20           -4.2210    -6.7193    -2.1137 C.3     
  21 C21           -5.1490    -6.2951    -0.9737 C.3     
  22 C22           -4.8474    -4.8470    -0.5825 C.3     
  23 C23           -5.8083    -4.4063     0.4915 C.ar    
  24 C24           -5.3804    -4.3033     1.8017 C.ar    
  25 C25           -6.2619    -3.8990     2.7870 C.ar    
  26 C26           -7.5709    -3.5973     2.4618 C.ar    
  27 C27           -7.9987    -3.6995     1.1511 C.ar    
  28 C28           -7.1163    -4.0995     0.1653 C.ar    
  29 S29           -4.5087    -8.4661    -2.5095 S.3     
  30 C30           -3.9358    -9.3225    -1.0165 C.3     
  31 C31           -4.2008   -10.8229    -1.1559 C.3     
  32 C32           -5.6566   -11.2145    -1.4170 C.3     
  33 C33           -3.1117   -11.6748    -1.8110 C.3     
  34 C34           -3.3561   -11.7716    -0.3030 C.3     
  35 C35           -6.4887   -10.8937    -0.2022 C.2     
  36 O36           -7.8226   -11.0376    -0.2452 O.3     
  37 O37           -5.9552   -10.5071     0.8106 O.2     
  38 C38           -3.9531    -4.6322     2.1563 C.3     
  39 O39           -3.7899    -4.5770     3.5748 O.3     
  40 C40           -3.6151    -6.0389     1.6584 C.3     
  41 C41           -3.0168    -3.6186     1.4953 C.3     
  42 H42           -3.1698    -1.1263    -8.8245 H       
  43 H43           -1.4068     0.2713    -9.8116 H       
  44 H44            0.9553     1.0601    -9.7270 H       
  45 H45            3.1432     1.0129    -8.6539 H       
  46 H46            1.7589    -1.7537    -5.7288 H       
  47 H47           -3.9434    -2.7351    -7.1125 H       
  48 H48           -1.7181    -3.4649    -5.1402 H       
  49 H49           -5.2506    -3.7269    -6.4431 H       
  50 H50           -7.0159    -5.1285    -5.4594 H       
  51 H51           -6.5411    -6.5006    -3.4741 H       
  52 H52           -2.5177    -5.0919    -3.4282 H       
  53 H53           -3.1838    -6.5821    -1.8081 H       
  54 H54           -6.1858    -6.3748    -1.3004 H       
  55 H55           -4.9882    -6.9449    -0.1134 H       
  56 H56           -3.8263    -4.7771    -0.2076 H       
  57 H57           -4.9586    -4.2041    -1.4557 H       
  58 H58           -5.9277    -3.8192     3.8109 H       
  59 H59           -8.2597    -3.2821     3.2316 H       
  60 H60           -9.0217    -3.4641     0.8970 H       
  61 H61           -7.4505    -4.1793    -0.8586 H       
  62 H62           -2.8669    -9.1527    -0.8879 H       
  63 H63           -4.4718    -8.9379    -0.1488 H       
  64 H64           -6.0347   -10.6570    -2.2739 H       
  65 H65           -5.7138   -12.2830    -1.6247 H       
  66 H66           -3.4324   -12.5144    -2.4277 H       
  67 H67           -2.2065   -11.1662    -2.1428 H       
  68 H68           -2.6114   -11.3270     0.3571 H       
  69 H69           -3.8374   -12.6750     0.0718 H       
  70 H70           -8.3138   -10.8196     0.5586 H       
  71 H71           -2.8932    -4.7783     3.8757 H       
  72 H72           -3.7231    -6.0763     0.5744 H       
  73 H73           -2.5881    -6.2834     1.9299 H       
  74 H74           -4.2932    -6.7590     2.1162 H       
  75 H75           -3.1850    -2.6325     1.9283 H       
  76 H76           -1.9819    -3.9171     1.6624 H       
  77 H77           -3.2166    -3.5840     0.4243 H       
@<TRIPOS>BOND
   1    1    2 ar
   2    1    7 ar
   3    1    6 ar
   4    2    3 ar
   5    2   10 ar
   6    3    4 ar
   7    4    5 ar
   8    4   11 1
   9    5    6 ar
  10    5   42 1
  11    6   43 1
  12    7    8 ar
  13    7   44 1
  14    8    9 ar
  15    8   45 1
  16    9   10 ar
  17    9   13 1
  18   10   46 1
  19   11   12 2
  20   11   47 1
  21   12   14 1
  22   12   48 1
  23   14   15 ar
  24   14   19 ar
  25   15   16 ar
  26   15   49 1
  27   16   17 ar
  28   16   50 1
  29   17   18 ar
  30   17   51 1
  31   18   19 ar
  32   18   20 1
  33   19   52 1
  34   20   21 1
  35   20   29 1
  36   20   53 1
  37   21   22 1
  38   21   54 1
  39   21   55 1
  40   22   23 1
  41   22   56 1
  42   22   57 1
  43   23   24 ar
  44   23   28 ar
  45   24   25 ar
  46   24   38 1
  47   25   26 ar
  48   25   58 1
  49   26   27 ar
  50   26   59 1
  51   27   28 ar
  52   27   60 1
  53   28   61 1
  54   29   30 1
  55   30   31 1
  56   30   62 1
  57   30   63 1
  58   31   32 1
  59   31   33 1
  60   31   34 1
  61   32   35 1
  62   32   64 1
  63   32   65 1
  64   33   34 1
  65   33   66 1
  66   33   67 1
  67   34   68 1
  68   34   69 1
  69   35   36 1
  70   35   37 2
  71   36   70 1
  72   38   39 1
  73   38   40 1
  74   38   41 1
  75   39   71 1
  76   40   72 1
  77   40   73 1
  78   40   74 1
  79   41   75 1
  80   41   76 1
  81   41   77 1

#	End of record

