#	Name: ASD01420039
#	Creating user name:	WinNT
#	Creation time:	15. 06. 2019 19:20

#	Modifying user name:	WinNT
#	Modification time:	15. 06. 2019 19:20

#	Program:	/corina/corina34_cracker 3.40 0067  02.08.2006

@<TRIPOS>MOLECULE
ASD01420039
  33   34    0    0    0
SMALL
NO_CHARGES


@<TRIPOS>ATOM
   1 N1            -0.1239     1.4331     0.0667 N.3     
   2 C2            -0.9272     1.2471     1.2825 C.3     
   3 C3             0.5969     0.2014    -0.2817 C.3     
   4 C4            -0.9600     1.8882    -1.0522 C.3     
   5 C5            -1.2959     3.3695    -0.8683 C.3     
   6 O6            -0.0982     4.1439    -0.9561 O.3     
   7 C7             2.1443     8.2920    -0.8678 C.3     
   8 N8             2.9912     7.2622    -1.5114 N.3     
   9 C9             2.3604     5.9836    -1.1123 C.3     
  10 C10            0.8998     6.3017    -0.8874 C.ar    
  11 C11           -0.2219     5.4898    -0.8133 C.ar    
  12 C12           -1.4704     6.0530    -0.5938 C.ar    
  13 C13           -1.5937     7.4216    -0.4495 C.ar    
  14 C14           -0.4744     8.2295    -0.5237 C.ar    
  15 C15            0.7713     7.6716    -0.7422 C.ar    
  16 H16           -0.2836     0.9100     2.0951 H       
  17 H17           -1.3945     2.1926     1.5574 H       
  18 H18           -1.6994     0.5005     1.0970 H       
  19 H19           -0.1203    -0.5867    -0.5113 H       
  20 H20            1.2277     0.3833    -1.1518 H       
  21 H21            1.2180    -0.1064     0.5595 H       
  22 H22           -0.4193     1.7517    -1.9887 H       
  23 H23           -1.8818     1.3069    -1.0768 H       
  24 H24           -1.9900     3.6841    -1.6476 H       
  25 H25           -1.7547     3.5194     0.1090 H       
  26 H26            2.5370     8.5400     0.1183 H       
  27 H27            2.0983     9.1851    -1.4910 H       
  28 H28            2.9898     7.3684    -2.5148 H       
  29 H29            2.4671     5.2466    -1.9083 H       
  30 H30            2.8111     5.6126    -0.1918 H       
  31 H31           -2.3453     5.4224    -0.5361 H       
  32 H32           -2.5656     7.8607    -0.2789 H       
  33 H33           -0.5734     9.2990    -0.4110 H       
@<TRIPOS>BOND
   1    1    2 1
   2    1    3 1
   3    1    4 1
   4    2   16 1
   5    2   17 1
   6    2   18 1
   7    3   19 1
   8    3   20 1
   9    3   21 1
  10    4    5 1
  11    4   22 1
  12    4   23 1
  13    5    6 1
  14    5   24 1
  15    5   25 1
  16    6   11 1
  17    7    8 1
  18    7   15 1
  19    7   26 1
  20    7   27 1
  21    8    9 1
  22    8   28 1
  23    9   10 1
  24    9   29 1
  25    9   30 1
  26   10   11 ar
  27   10   15 ar
  28   11   12 ar
  29   12   13 ar
  30   12   31 1
  31   13   14 ar
  32   13   32 1
  33   14   15 ar
  34   14   33 1

#	End of record

