#	Name: ASD01148374
#	Creating user name:	WinNT
#	Creation time:	15. 06. 2019 19:02

#	Modifying user name:	WinNT
#	Modification time:	15. 06. 2019 19:02

#	Program:	/corina/corina34_cracker 3.40 0067  02.08.2006

@<TRIPOS>MOLECULE
ASD01148374
  51   54    0    0    0
SMALL
NO_CHARGES


@<TRIPOS>ATOM
   1 C1            -0.4095     1.8318    -0.0438 C.ar    
   2 C2            -0.4705     0.4511     0.0163 C.ar    
   3 C3             0.6956    -0.2896     0.0955 C.ar    
   4 C4             1.9203     0.3503     0.1146 C.ar    
   5 C5             1.9806     1.7303     0.0545 C.ar    
   6 C6             0.8162     2.4707    -0.0247 C.ar    
   7 C7             3.3165     2.4275     0.0758 C.3     
   8 O8             4.3315     1.6175    -0.5513 O.3     
   9 C9             3.3034     3.6776    -0.8359 C.3     
  10 C10            3.8456     3.1365    -2.1452 C.2     
  11 N11            4.3970     1.9927    -1.9129 N.2     
  12 C12            3.7571     3.8030    -3.4593 C.ar    
  13 C13            4.3014     3.1907    -4.5914 C.ar    
  14 C14            3.1240     5.0433    -3.5723 C.ar    
  15 C15            3.0415     5.6648    -4.7979 C.ar    
  16 C16            3.5904     5.0551    -5.9286 C.ar    
  17 C17            4.2189     3.8121    -5.8166 C.ar    
  18 C18            3.5014     5.7220    -7.2440 C.2     
  19 O19            4.0736     5.2477    -8.2058 O.2     
  20 N20            2.7857     6.8562    -7.3775 N.am    
  21 C21            4.8109     3.1545    -7.0364 C.3     
  22 C22            3.7160     2.7959     1.5060 C.3     
  23 F23            3.7867     1.6354     2.2841 F       
  24 F24            4.9651     3.4259     1.4937 F       
  25 F25            2.7616     3.6633     2.0480 F       
  26 Cl26          -2.0094    -0.3519    -0.0071 Cl      
  27 C27            2.7021     7.4828    -8.6135 C.ar    
  28 N28            1.9947     8.5965    -8.7268 N.ar    
  29 N29            3.3362     6.9554    -9.6496 N.ar    
  30 C30            3.2773     7.5270   -10.8410 C.ar    
  31 C31            2.5409     8.6910   -10.9966 C.ar    
  32 C32            1.8944     9.2187    -9.8898 C.ar    
  33 C33            0.6300    -1.7937     0.1616 C.3     
  34 F34            1.9265    -2.3142     0.2359 F       
  35 F35           -0.0931    -2.1796     1.2953 F       
  36 F36           -0.0042    -2.2836    -0.9851 F       
  37 H37           -1.3191     2.4102    -0.1102 H       
  38 H38            2.8305    -0.2277     0.1768 H       
  39 H39            0.8639     3.5486    -0.0720 H       
  40 H40            2.2880     4.0530    -0.9633 H       
  41 H41            3.9570     4.4538    -0.4378 H       
  42 H42            4.7872     2.2300    -4.5048 H       
  43 H43            2.6991     5.5143    -2.6982 H       
  44 H44            2.5522     6.6236    -4.8853 H       
  45 H45            2.3291     7.2347    -6.6099 H       
  46 H46            5.8075     3.5567    -7.2184 H       
  47 H47            4.8775     2.0788    -6.8730 H       
  48 H48            4.1760     3.3522    -7.9000 H       
  49 H49            3.7968     7.0922   -11.6821 H       
  50 H50            2.4762     9.1787   -11.9581 H       
  51 H51            1.3122    10.1241    -9.9769 H       
@<TRIPOS>BOND
   1    1    2 ar
   2    1    6 ar
   3    1   37 1
   4    2    3 ar
   5    2   26 1
   6    3    4 ar
   7    3   33 1
   8    4    5 ar
   9    4   38 1
  10    5    6 ar
  11    5    7 1
  12    6   39 1
  13    7    8 1
  14    7    9 1
  15    7   22 1
  16    8   11 1
  17    9   10 1
  18    9   40 1
  19    9   41 1
  20   10   11 2
  21   10   12 1
  22   12   13 ar
  23   12   14 ar
  24   13   17 ar
  25   13   42 1
  26   14   15 ar
  27   14   43 1
  28   15   16 ar
  29   15   44 1
  30   16   17 ar
  31   16   18 1
  32   17   21 1
  33   18   19 2
  34   18   20 am
  35   20   27 1
  36   20   45 1
  37   21   46 1
  38   21   47 1
  39   21   48 1
  40   22   23 1
  41   22   24 1
  42   22   25 1
  43   27   28 ar
  44   27   29 ar
  45   28   32 ar
  46   29   30 ar
  47   30   31 ar
  48   30   49 1
  49   31   32 ar
  50   31   50 1
  51   32   51 1
  52   33   34 1
  53   33   35 1
  54   33   36 1

#	End of record

