#	Name: ASD01150650
#	Creating user name:	WinNT
#	Creation time:	15. 06. 2019 19:04

#	Modifying user name:	WinNT
#	Modification time:	15. 06. 2019 19:04

#	Program:	/corina/corina34_cracker 3.40 0067  02.08.2006

@<TRIPOS>MOLECULE
ASD01150650
  50   52    0    0    0
SMALL
NO_CHARGES


@<TRIPOS>ATOM
   1 C1             0.4933     1.3919    -0.9465 C.ar    
   2 C2             0.4639     0.0109    -0.9224 C.ar    
   3 C3             1.9479     0.0102     0.9677 C.ar    
   4 C4             1.9789     1.3967     0.9445 C.ar    
   5 C5             1.2508     2.0887    -0.0133 C.ar    
   6 N6             1.2801     3.4880    -0.0393 N.am    
   7 C7             0.1264     4.1736    -0.1219 C.2     
   8 N8             0.1176     5.5193    -0.1491 N.am    
   9 C9             1.2789     6.2039    -0.0933 C.2     
  10 C10            2.5443     5.4601    -0.0029 C.2     
  11 N11            2.5098     4.1538     0.0267 N.2     
  12 O12            1.2793     7.4207    -0.1178 O.2     
  13 C13           -1.1539     6.2413    -0.2399 C.3     
  14 O14           -0.9269     3.5677    -0.1732 O.2     
  15 C15           -1.6752     6.5170     1.1469 C.ar    
  16 O16            3.7301     6.1204     0.0549 O.3     
  17 C17            4.9130     5.3233     0.1414 C.3     
  18 C18            1.1883    -0.6824     0.0308 C.ar    
  19 N19            2.6816    -0.6914     1.9324 N.am    
  20 C20            2.9446    -0.1216     3.1251 C.2     
  21 O21            2.6215     1.0290     3.3319 O.2     
  22 C22            3.6402    -0.9140     4.2018 C.3     
  23 C23           -2.6633     5.7092     1.6843 C.ar    
  24 C24           -3.1475     5.9520     2.9518 C.ar    
  25 C25           -2.6405     7.0177     3.6997 C.ar    
  26 C26           -1.6407     7.8337     3.1538 C.ar    
  27 C27           -1.1601     7.5719     1.8781 C.ar    
  28 F28            1.1575    -2.0329     0.0519 F       
  29 C29           -3.1401     7.2750     5.0168 C.1     
  30 O30           -1.1408     8.8724     3.8711 O.3     
  31 N31           -3.5365     7.4790     6.0617 N.1     
  32 F32           -0.1959     8.3546     1.3463 F       
  33 C33           -0.0100     8.6024     4.7020 C.3     
  34 H34           -0.0696     1.9303    -1.6946 H       
  35 H35           -0.1260    -0.5285    -1.6487 H       
  36 H36            2.5683     1.9368     1.6707 H       
  37 H37           -0.9996     7.1844    -0.7642 H       
  38 H38           -1.8772     5.6359    -0.7863 H       
  39 H39            4.9801     4.6767    -0.7335 H       
  40 H40            5.7870     5.9733     0.1807 H       
  41 H41            4.8740     4.7119     1.0429 H       
  42 H42            3.0005    -1.5875     1.7421 H       
  43 H43            4.7185    -0.7858     4.1080 H       
  44 H44            3.3159    -0.5600     5.1804 H       
  45 H45            3.3892    -1.9694     4.0957 H       
  46 H46           -3.0566     4.8852     1.1075 H       
  47 H47           -3.9184     5.3193     3.3663 H       
  48 H48           -0.2717     7.8392     5.4350 H       
  49 H49            0.8164     8.2468     4.0866 H       
  50 H50            0.2878     9.5150     5.2181 H       
@<TRIPOS>BOND
   1    1    2 ar
   2    1    5 ar
   3    1   34 1
   4    2   18 ar
   5    2   35 1
   6    3    4 ar
   7    3   19 1
   8    3   18 ar
   9    4    5 ar
  10    4   36 1
  11    5    6 1
  12    6    7 am
  13    6   11 1
  14    7    8 am
  15    7   14 2
  16    8    9 am
  17    8   13 1
  18    9   10 1
  19    9   12 2
  20   10   11 2
  21   10   16 1
  22   13   15 1
  23   13   37 1
  24   13   38 1
  25   15   23 ar
  26   15   27 ar
  27   16   17 1
  28   17   39 1
  29   17   40 1
  30   17   41 1
  31   18   28 1
  32   19   20 am
  33   19   42 1
  34   20   21 2
  35   20   22 1
  36   22   43 1
  37   22   44 1
  38   22   45 1
  39   23   24 ar
  40   23   46 1
  41   24   25 ar
  42   24   47 1
  43   25   26 ar
  44   25   29 1
  45   26   27 ar
  46   26   30 1
  47   27   32 1
  48   29   31 3
  49   30   33 1
  50   33   48 1
  51   33   49 1
  52   33   50 1

#	End of record

