#	Name: ASD01209131
#	Creating user name:	WinNT
#	Creation time:	15. 06. 2019 19:11

#	Modifying user name:	WinNT
#	Modification time:	15. 06. 2019 19:11

#	Program:	/corina/corina34_cracker 3.40 0067  02.08.2006

@<TRIPOS>MOLECULE
ASD01209131
  82   84    0    0    0
SMALL
NO_CHARGES


@<TRIPOS>ATOM
   1 C1            -1.2034     2.7761    -2.6651 C.ar    
   2 C2            -1.1677     1.4068    -2.8836 C.ar    
   3 C3            -2.2812     0.6265    -2.6058 C.ar    
   4 C4            -3.4334     1.2127    -2.1084 C.ar    
   5 C5            -3.4733     2.5898    -1.8868 C.ar    
   6 C6            -2.3497     3.3697    -2.1625 C.ar    
   7 O7            -0.1103     3.5357    -2.9393 O.3     
   8 C8            -0.2534     4.9511    -2.8042 C.3     
   9 O9            -2.2413    -0.7145    -2.8225 O.3     
  10 C10           -2.9483    -1.2127    -3.8705 C.ar    
  11 C11           -3.0130    -2.5833    -4.0764 C.ar    
  12 C12           -4.7010     3.2199    -1.3565 C.2     
  13 N13           -5.7837     2.4642    -1.0865 N.am    
  14 O14           -4.7339     4.4197    -1.1641 O.2     
  15 C15           -6.9739     3.0692    -0.6885 C.ar    
  16 P16          -11.4695     5.5329    -0.9496 P.3     
  17 O17          -11.7224     4.3693    -1.8286 O.2     
  18 C18           -3.7328    -3.0872    -5.1423 C.ar    
  19 C19           -4.3885    -2.2270    -6.0037 C.ar    
  20 C20           -4.3257    -0.8607    -5.8008 C.ar    
  21 C21           -3.6116    -0.3519    -4.7334 C.ar    
  22 S22           -5.3054    -2.8730    -7.3626 S.o2    
  23 O23           -5.2993    -1.8231    -8.3202 O.2     
  24 O24           -4.6868    -4.1218    -7.6407 O.2     
  25 C25           -6.9766    -3.1233    -6.7031 C.3     
  26 C26          -10.5403     4.9919     0.5225 C.3     
  27 N27           -7.0072     4.3756    -0.4786 N.ar    
  28 C28           -8.1132     4.9879    -0.1011 C.ar    
  29 C29           -9.2838     4.2811     0.0902 C.ar    
  30 C30           -9.2911     2.9086    -0.1195 C.ar    
  31 C31           -8.1174     2.2959    -0.5209 C.ar    
  32 C32            0.7692     5.6548    -3.6987 C.3     
  33 C33           -0.0163     5.3508    -1.3465 C.3     
  34 O34          -10.6113     6.6344    -1.7511 O.3     
  35 C35          -10.9974     7.1425    -3.0297 C.3     
  36 C36          -11.1094     8.6668    -2.9603 C.3     
  37 C37           -9.9456     6.7553    -4.0712 C.3     
  38 O38          -12.8733     6.1751    -0.4922 O.3     
  39 C39          -13.8586     6.6335    -1.4201 C.3     
  40 C40          -15.0985     5.7418    -1.3295 C.3     
  41 C41          -14.2424     8.0762    -1.0851 C.3     
  42 O42            2.0888     5.3623    -3.2350 O.3     
  43 C43            3.1247     5.9746    -4.0057 C.3     
  44 H44           -0.2708     0.9466    -3.2714 H       
  45 H45           -4.2996     0.6048    -1.8928 H       
  46 H46           -2.3765     4.4358    -1.9924 H       
  47 H47           -1.2599     5.2446    -3.1024 H       
  48 H48           -2.5007    -3.2556    -3.4042 H       
  49 H49           -5.7343     1.4990    -1.1692 H       
  50 H50           -3.7832    -4.1540    -5.3032 H       
  51 H51           -4.8385    -0.1909    -6.4752 H       
  52 H52           -3.5628     0.7154    -4.5753 H       
  53 H53           -7.3775    -2.1703    -6.3580 H       
  54 H54           -7.6195    -3.5260    -7.4857 H       
  55 H55           -6.9368    -3.8241    -5.8691 H       
  56 H56          -10.2770     5.8609     1.1256 H       
  57 H57          -11.1568     4.3136     1.1123 H       
  58 H58           -8.1027     6.0556     0.0609 H       
  59 H59          -10.1936     2.3329     0.0236 H       
  60 H60           -8.0876     1.2302    -0.6934 H       
  61 H61            0.6580     5.3026    -4.7243 H       
  62 H62            0.6022     6.7314    -3.6641 H       
  63 H63            0.9901     5.0573    -1.0483 H       
  64 H64           -0.1255     6.4304    -1.2434 H       
  65 H65           -0.7448     4.8495    -0.7092 H       
  66 H66          -11.9615     6.7199    -3.3126 H       
  67 H67          -10.1219     9.0963    -2.7914 H       
  68 H68          -11.5142     9.0445    -3.8991 H       
  69 H69          -11.7718     8.9454    -2.1407 H       
  70 H70           -9.8658     5.6693    -4.1207 H       
  71 H71          -10.2401     7.1428    -5.0465 H       
  72 H72           -8.9815     7.1779    -3.7883 H       
  73 H73          -13.4534     6.5908    -2.4311 H       
  74 H74          -15.8501     6.0915    -2.0372 H       
  75 H75          -14.8251     4.7140    -1.5681 H       
  76 H76          -15.5037     5.7845    -0.3185 H       
  77 H77          -13.3437     8.6919    -1.0476 H       
  78 H78          -14.9146     8.4608    -1.8521 H       
  79 H79          -14.7423     8.1037    -0.1169 H       
  80 H80            4.0953     5.7039    -3.5899 H       
  81 H81            3.0624     5.6291    -5.0377 H       
  82 H82            3.0066     7.0578    -3.9775 H       
@<TRIPOS>BOND
   1    1    2 ar
   2    1    7 1
   3    1    6 ar
   4    2    3 ar
   5    2   44 1
   6    3    4 ar
   7    3    9 1
   8    4    5 ar
   9    4   45 1
  10    5    6 ar
  11    5   12 1
  12    6   46 1
  13    7    8 1
  14    8   32 1
  15    8   33 1
  16    8   47 1
  17    9   10 1
  18   10   11 ar
  19   10   21 ar
  20   11   18 ar
  21   11   48 1
  22   12   13 am
  23   12   14 2
  24   13   15 1
  25   13   49 1
  26   15   27 ar
  27   15   31 ar
  28   16   17 2
  29   16   34 1
  30   16   38 1
  31   16   26 1
  32   18   19 ar
  33   18   50 1
  34   19   20 ar
  35   19   22 1
  36   20   21 ar
  37   20   51 1
  38   21   52 1
  39   22   23 2
  40   22   24 2
  41   22   25 1
  42   25   53 1
  43   25   54 1
  44   25   55 1
  45   26   29 1
  46   26   56 1
  47   26   57 1
  48   27   28 ar
  49   28   29 ar
  50   28   58 1
  51   29   30 ar
  52   30   31 ar
  53   30   59 1
  54   31   60 1
  55   32   42 1
  56   32   61 1
  57   32   62 1
  58   33   63 1
  59   33   64 1
  60   33   65 1
  61   34   35 1
  62   35   36 1
  63   35   37 1
  64   35   66 1
  65   36   67 1
  66   36   68 1
  67   36   69 1
  68   37   70 1
  69   37   71 1
  70   37   72 1
  71   38   39 1
  72   39   40 1
  73   39   41 1
  74   39   73 1
  75   40   74 1
  76   40   75 1
  77   40   76 1
  78   41   77 1
  79   41   78 1
  80   41   79 1
  81   42   43 1
  82   43   80 1
  83   43   81 1
  84   43   82 1

#	End of record

