#	Name: ASD03240418
#	Creating user name:	WinNT
#	Creation time:	15. 06. 2019 20:34

#	Modifying user name:	WinNT
#	Modification time:	15. 06. 2019 20:34

#	Program:	/corina/corina34_cracker 3.40 0067  02.08.2006

@<TRIPOS>MOLECULE
ASD03240418
  44   47    0    0    0
SMALL
NO_CHARGES


@<TRIPOS>ATOM
   1 C1            -0.0653     1.4690    -0.0590 C.ar    
   2 C2            -0.9665     1.8075    -1.0509 C.ar    
   3 C3             2.5141     0.3921    -1.2826 C.ar    
   4 C4             2.1166     1.7123    -1.1725 C.ar    
   5 C5             1.2784     2.1486     0.0014 C.3     
   6 C6             3.2819    -0.0129    -2.3558 C.ar    
   7 C7             3.6563     0.9108    -3.3290 C.ar    
   8 C8             3.2537     2.2393    -3.2130 C.ar    
   9 C9             2.4860     2.6336    -2.1358 C.ar    
  10 C10            4.4826     0.4810    -4.4853 C.2     
  11 C11           -2.2001     1.1857    -1.1074 C.ar    
  12 C12           -2.5336     0.2243    -0.1711 C.ar    
  13 C13           -1.6303    -0.1158     0.8234 C.ar    
  14 C14           -0.3980     0.5117     0.8812 C.ar    
  15 C15            4.9179     1.2761    -5.5050 C.2     
  16 N16            5.6345     0.5042    -6.3467 N.pl3   
  17 N17            5.6462    -0.8011    -5.8406 N.2     
  18 C18            4.9645    -0.8204    -4.7260 C.2     
  19 C19            1.0863     3.6671    -0.0433 C.3     
  20 C20            0.2863     4.1114     1.1834 C.3     
  21 N21            1.0059     3.7268     2.4043 N.3     
  22 C22            1.1607     2.2692     2.4925 C.3     
  23 C23            1.9860     1.7684     1.3049 C.3     
  24 Cl24          -4.0829    -0.5557    -0.2411 Cl      
  25 F25           -1.9544    -1.0549     1.7389 F       
  26 H26           -0.7069     2.5585    -1.7822 H       
  27 H27            2.2270    -0.3223    -0.5252 H       
  28 H28            3.5921    -1.0439    -2.4406 H       
  29 H29            3.5413     2.9593    -3.9648 H       
  30 H30            2.1729     3.6632    -2.0451 H       
  31 H31           -2.9035     1.4513    -1.8827 H       
  32 H32            0.3068     0.2475     1.6557 H       
  33 H33            4.7237     2.3325    -5.6175 H       
  34 H34            6.0671     0.8019    -7.1623 H       
  35 H35            4.7942    -1.6851    -4.1017 H       
  36 H36            2.0598     4.1573    -0.0400 H       
  37 H37            0.5444     3.9388    -0.9491 H       
  38 H38            0.1601     5.1939     1.1620 H       
  39 H39           -0.6923     3.6315     1.1722 H       
  40 H40            1.9011     4.1894     2.4573 H       
  41 H41            1.6696     2.0136     3.4219 H       
  42 H42            0.1780     1.7979     2.4751 H       
  43 H43            2.0870     0.6846     1.3631 H       
  44 H44            2.9740     2.2283     1.3286 H       
@<TRIPOS>BOND
   1    1    2 ar
   2    1    5 1
   3    1   14 ar
   4    2   11 ar
   5    2   26 1
   6    3    4 ar
   7    3    6 ar
   8    3   27 1
   9    4    5 1
  10    4    9 ar
  11    5   19 1
  12    5   23 1
  13    6    7 ar
  14    6   28 1
  15    7    8 ar
  16    7   10 1
  17    8    9 ar
  18    8   29 1
  19    9   30 1
  20   10   15 2
  21   10   18 1
  22   11   12 ar
  23   11   31 1
  24   12   13 ar
  25   12   24 1
  26   13   14 ar
  27   13   25 1
  28   14   32 1
  29   15   16 1
  30   15   33 1
  31   16   17 1
  32   16   34 1
  33   17   18 2
  34   18   35 1
  35   19   20 1
  36   19   36 1
  37   19   37 1
  38   20   21 1
  39   20   38 1
  40   20   39 1
  41   21   22 1
  42   21   40 1
  43   22   23 1
  44   22   41 1
  45   22   42 1
  46   23   43 1
  47   23   44 1

#	End of record

