#	Name: ASD01720192
#	Creating user name:	WinNT
#	Creation time:	15. 06. 2019 19:23

#	Modifying user name:	WinNT
#	Modification time:	15. 06. 2019 19:23

#	Program:	/corina/corina34_cracker 3.40 0067  02.08.2006

@<TRIPOS>MOLECULE
ASD01720192
  58   61    0    0    0
SMALL
NO_CHARGES


@<TRIPOS>ATOM
   1 C1            -1.1057     1.5389     1.9401 C.ar    
   2 N2            -1.1946     0.2486     2.1994 N.ar    
   3 C3            -0.1360    -0.5389     2.2008 C.ar    
   4 C4             1.1199    -0.0375     1.9280 C.ar    
   5 C5             1.2601     1.3248     1.6478 C.ar    
   6 C6             0.1125     2.1221     1.6570 C.ar    
   7 C7             2.5911     1.9083     1.3491 C.ar    
   8 C8             2.7771     2.7126     0.2216 C.ar    
   9 C9             4.0384     3.2332    -0.0128 C.ar    
  10 C10            5.0641     2.9434     0.8679 C.ar    
  11 N11            4.8584     2.1803     1.9242 N.ar    
  12 C12            3.6748     1.6680     2.1916 C.ar    
  13 C13            6.4388     3.5077     0.6170 C.3     
  14 C14            7.1979     2.5926    -0.3458 C.3     
  15 N15            7.1689     3.5966     1.8840 N.pl3   
  16 C16            8.1939     4.5152     2.0291 C.ar    
  17 N17            8.8431     4.5817     3.1815 N.ar    
  18 C18            9.8317     5.4527     3.3522 C.ar    
  19 C19           10.1784     6.2990     2.2987 C.ar    
  20 C20            9.4758     6.1973     1.1127 C.ar    
  21 N21            8.5049     5.3025     1.0097 N.ar    
  22 N22           10.5107     5.5201     4.5635 N.am    
  23 C23           11.3694     6.4840     4.9229 C.2     
  24 O24           11.8898     6.3173     6.1438 O.3     
  25 O25           11.6495     7.4237     4.2055 O.2     
  26 C26           11.3528     5.1005     6.7388 C.3     
  27 C27           10.3990     4.5483     5.6620 C.3     
  28 C28           10.8584     3.1655     5.1952 C.3     
  29 C29            1.6339     3.0054    -0.7156 C.3     
  30 O30           10.9206     2.2809     6.3158 O.3     
  31 C31           12.2440     3.2772     4.5561 C.3     
  32 C32           -0.3010    -2.0057     2.5050 C.3     
  33 F33           -1.6613    -2.3046     2.6361 F       
  34 F34            0.2444    -2.7624     1.4624 F       
  35 F35            0.3609    -2.3116     3.6990 F       
  36 H36           -1.9988     2.1461     1.9451 H       
  37 H37            1.9822    -0.6878     1.9312 H       
  38 H38            0.1780     3.1792     1.4453 H       
  39 H39            4.2192     3.8586    -0.8746 H       
  40 H40            3.5453     1.0480     3.0664 H       
  41 H41            6.3491     4.5018     0.1789 H       
  42 H42            6.6547     2.5264    -1.2885 H       
  43 H43            8.1921     3.0007    -0.5273 H       
  44 H44            7.2876     1.5985     0.0923 H       
  45 H45            6.9339     3.0117     2.6213 H       
  46 H46           10.9773     7.0175     2.4074 H       
  47 H47            9.7187     6.8379     0.2777 H       
  48 H48           12.1537     4.3905     6.9453 H       
  49 H49           10.8016     5.3320     7.6503 H       
  50 H50            9.3777     4.5060     6.0404 H       
  51 H51           10.1510     2.7755     4.4633 H       
  52 H52            1.1175     3.9077    -0.3881 H       
  53 H53            2.0197     3.1535    -1.7242 H       
  54 H54            0.9375     2.1668    -0.7125 H       
  55 H55           11.5322     2.5660     7.0084 H       
  56 H56           12.9508     3.6696     5.2872 H       
  57 H57           12.5724     2.2917     4.2259 H       
  58 H58           12.1960     3.9500     3.6998 H       
@<TRIPOS>BOND
   1    1    2 ar
   2    1    6 ar
   3    1   36 1
   4    2    3 ar
   5    3   32 1
   6    3    4 ar
   7    4    5 ar
   8    4   37 1
   9    5    6 ar
  10    5    7 1
  11    6   38 1
  12    7    8 ar
  13    7   12 ar
  14    8    9 ar
  15    8   29 1
  16    9   10 ar
  17    9   39 1
  18   10   11 ar
  19   10   13 1
  20   11   12 ar
  21   12   40 1
  22   13   14 1
  23   13   15 1
  24   13   41 1
  25   14   42 1
  26   14   43 1
  27   14   44 1
  28   15   16 1
  29   15   45 1
  30   16   17 ar
  31   16   21 ar
  32   17   18 ar
  33   18   19 ar
  34   18   22 1
  35   19   20 ar
  36   19   46 1
  37   20   21 ar
  38   20   47 1
  39   22   23 am
  40   22   27 1
  41   23   24 1
  42   23   25 2
  43   24   26 1
  44   26   27 1
  45   26   48 1
  46   26   49 1
  47   27   28 1
  48   27   50 1
  49   28   30 1
  50   28   31 1
  51   28   51 1
  52   29   52 1
  53   29   53 1
  54   29   54 1
  55   30   55 1
  56   31   56 1
  57   31   57 1
  58   31   58 1
  59   32   33 1
  60   32   34 1
  61   32   35 1

#	End of record

