#	Name: ASD01028590
#	Creating user name:	WinNT
#	Creation time:	15. 06. 2019 18:57

#	Modifying user name:	WinNT
#	Modification time:	15. 06. 2019 18:57

#	Program:	/corina/corina34_cracker 3.40 0067  02.08.2006

@<TRIPOS>MOLECULE
ASD01028590
  57   62    0    0    0
SMALL
NO_CHARGES


@<TRIPOS>ATOM
   1 N1            -0.0169     1.3921     0.0097 N.2     
   2 N2             0.0021    -0.0041     0.0020 N.pl3   
   3 C3             1.1071     2.0741     0.0026 C.2     
   4 C4             2.3532     1.4124    -0.0128 C.2     
   5 C5             2.4037     0.0542    -0.0206 C.2     
   6 C6             1.2008    -0.6771    -0.0130 C.2     
   7 N7             0.9145    -1.9687    -0.0172 N.2     
   8 N8            -0.3638    -2.1208    -0.0058 N.2     
   9 C9            -0.9586    -0.9539     0.0061 C.2     
  10 C10           -2.4463    -0.7141     0.0215 C.3     
  11 N11           -2.9153    -0.6444     1.4077 N.pl3   
  12 C12           -4.2594    -0.4288     1.6752 C.ar    
  13 C13           -5.1757    -0.2767     0.6478 C.ar    
  14 C14           -6.5151    -0.0620     0.9442 C.ar    
  15 N15           -6.9463     0.0028     2.1825 N.ar    
  16 C16           -6.1169    -0.1354     3.2223 C.ar    
  17 C17           -4.7370    -0.3634     3.0078 C.ar    
  18 C18           -6.5940    -0.0641     4.5442 C.ar    
  19 C19           -5.6859    -0.2152     5.5726 C.ar    
  20 C20           -4.3357    -0.4320     5.2788 C.ar    
  21 N21           -3.9074    -0.5023     4.0423 N.ar    
  22 O22           -6.1016    -0.1532     6.8645 O.3     
  23 C23            1.0647     3.5571     0.0105 C.ar    
  24 C24           -5.1052    -0.3186     7.8753 C.3     
  25 C25           -0.1602     4.2210     0.0253 C.ar    
  26 C26            2.2496     4.2900     0.0089 C.ar    
  27 C27           -0.1950     5.6031     0.0325 C.ar    
  28 C28            2.2053     5.6718     0.0162 C.ar    
  29 C29            0.9854     6.3277     0.0247 C.ar    
  30 F30           -1.3821     6.2479     0.0469 F       
  31 F31            3.3537     6.3835     0.0151 F       
  32 C32           -5.7575    -0.2187     9.2557 C.3     
  33 C33           -4.7157    -0.5197    10.3506 C.3     
  34 C34           -4.7026     0.7587    11.2236 C.3     
  35 C35           -6.0725     1.3987    10.8828 C.3     
  36 O36           -6.2339     1.1196     9.4755 O.3     
  37 H37            3.2683     1.9860    -0.0188 H       
  38 H38            3.3547    -0.4576    -0.0328 H       
  39 H39           -2.6682     0.2253    -0.4848 H       
  40 H40           -2.9515    -1.5320    -0.4923 H       
  41 H41           -2.2861    -0.7489     2.1384 H       
  42 H42           -4.8493    -0.3247    -0.3806 H       
  43 H43           -7.2205     0.0552     0.1349 H       
  44 H44           -7.6410     0.1045     4.7483 H       
  45 H45           -3.6313    -0.5493     6.0890 H       
  46 H46           -4.6349    -1.2958     7.7655 H       
  47 H47           -4.3506     0.4613     7.7727 H       
  48 H48           -1.0811     3.6569     0.0307 H       
  49 H49            3.2013     3.7794     0.0023 H       
  50 H50            0.9546     7.4072     0.0304 H       
  51 H51           -6.5844    -0.9252     9.3267 H       
  52 H52           -5.0222    -1.3825    10.9420 H       
  53 H53           -3.7344    -0.6890     9.9073 H       
  54 H54           -4.6438     0.5061    12.2823 H       
  55 H55           -3.8832     1.4176    10.9362 H       
  56 H56           -6.8693     0.9305    11.4608 H       
  57 H57           -6.0488     2.4738    11.0607 H       
@<TRIPOS>BOND
   1    1    2 1
   2    1    3 2
   3    2    6 1
   4    2    9 1
   5    3    4 1
   6    3   23 1
   7    4    5 2
   8    4   37 1
   9    5    6 1
  10    5   38 1
  11    6    7 2
  12    7    8 1
  13    8    9 2
  14    9   10 1
  15   10   11 1
  16   10   39 1
  17   10   40 1
  18   11   12 1
  19   11   41 1
  20   12   13 ar
  21   12   17 ar
  22   13   14 ar
  23   13   42 1
  24   14   15 ar
  25   14   43 1
  26   15   16 ar
  27   16   17 ar
  28   16   18 ar
  29   17   21 ar
  30   18   19 ar
  31   18   44 1
  32   19   20 ar
  33   19   22 1
  34   20   21 ar
  35   20   45 1
  36   22   24 1
  37   23   25 ar
  38   23   26 ar
  39   24   32 1
  40   24   46 1
  41   24   47 1
  42   25   27 ar
  43   25   48 1
  44   26   28 ar
  45   26   49 1
  46   27   30 1
  47   27   29 ar
  48   28   29 ar
  49   28   31 1
  50   29   50 1
  51   32   33 1
  52   32   36 1
  53   32   51 1
  54   33   34 1
  55   33   52 1
  56   33   53 1
  57   34   35 1
  58   34   54 1
  59   34   55 1
  60   35   36 1
  61   35   56 1
  62   35   57 1

#	End of record

