#	Name: ASD03491004
#	Creating user name:	WinNT
#	Creation time:	15. 06. 2019 20:42

#	Modifying user name:	WinNT
#	Modification time:	15. 06. 2019 20:42

#	Program:	/corina/corina34_cracker 3.40 0067  02.08.2006

@<TRIPOS>MOLECULE
ASD03491004
  71   74    0    0    0
SMALL
NO_CHARGES


@<TRIPOS>ATOM
   1 C1            -0.0379     1.2999    -0.3831 C.ar    
   2 C2             0.0888     0.0047    -0.8931 C.ar    
   3 C3             1.3226    -0.6530    -0.8166 C.ar    
   4 C4             2.4112    -0.0095    -0.2327 C.ar    
   5 C5             2.2685     1.2763     0.2688 C.ar    
   6 C6             1.0483     1.9246     0.1922 C.ar    
   7 C7             0.9060     3.3213     0.7400 C.3     
   8 N8             3.6476    -0.6594    -0.1516 N.am    
   9 C9             4.7894     0.0485    -0.2597 C.2     
  10 O10            4.7469     1.2318    -0.5289 O.2     
  11 C11            7.3466     0.1186    -0.2757 C.ar    
  12 C12            8.6420    -0.5622    -0.2091 C.ar    
  13 C13            9.8212     0.1853    -0.4346 C.ar    
  14 C14            9.7246     1.5657    -0.7172 C.ar    
  15 C15            8.4898     2.1852    -0.7736 C.ar    
  16 C16            7.3180     1.4854    -0.5655 C.ar    
  17 C17            8.7330    -1.9287     0.0720 C.ar    
  18 C18            9.9589    -2.5266     0.1257 C.ar    
  19 C19           11.1206    -1.7938    -0.0957 C.ar    
  20 C20           11.0657    -0.4600    -0.3725 C.ar    
  21 O21           10.8493     2.2878    -0.9342 O.3     
  22 C22           10.6830     3.6790    -1.2150 C.3     
  23 C23           12.0540     4.3233    -1.4301 C.3     
  24 N24           12.6783     3.7560    -2.6327 N.3     
  25 C25           13.8829     4.5111    -3.0071 C.3     
  26 C26           14.5334     3.8520    -4.2263 C.3     
  27 O27           13.5816     3.7879    -5.2918 O.3     
  28 C28           12.3962     3.0591    -4.9618 C.3     
  29 C29           11.7240     3.7101    -3.7501 C.3     
  30 C30            1.8710     4.2566     0.0087 C.3     
  31 C31           -0.5301     3.8066     0.5328 C.3     
  32 C32            1.2328     3.3185     2.2347 C.3     
  33 C33            6.1038    -0.6209    -0.0488 C.2     
  34 O34            6.1441    -1.7811     0.3117 O.2     
  35 C35           -1.0378    -0.6466    -1.4906 C.1     
  36 N36           -1.9316    -1.1633    -1.9647 N.1     
  37 O37            1.4569    -1.9113    -1.3083 O.3     
  38 C38            1.8463    -2.0345    -2.6777 C.3     
  39 H39           -0.9861     1.8133    -0.4437 H       
  40 H40            3.1137     1.7735     0.7214 H       
  41 H41            3.6830    -1.6195    -0.0175 H       
  42 H42            8.4404     3.2420    -0.9907 H       
  43 H43            6.3706     2.0013    -0.6174 H       
  44 H44            7.8383    -2.5080     0.2460 H       
  45 H45           10.0280    -3.5822     0.3433 H       
  46 H46           12.0794    -2.2886    -0.0480 H       
  47 H47           11.9751     0.0970    -0.5430 H       
  48 H48           10.0802     3.7984    -2.1152 H       
  49 H49           10.1823     4.1618    -0.3757 H       
  50 H50           11.9340     5.3993    -1.5562 H       
  51 H51           12.6874     4.1272    -0.5650 H       
  52 H52           13.6079     5.5372    -3.2514 H       
  53 H53           14.5863     4.5105    -2.1744 H       
  54 H54           15.3944     4.4410    -4.5423 H       
  55 H55           14.8568     2.8442    -3.9660 H       
  56 H56           11.7115     3.0745    -5.8098 H       
  57 H57           12.6574     2.0282    -4.7229 H       
  58 H58           10.8515     3.1248    -3.4598 H       
  59 H59           11.4146     4.7234    -4.0063 H       
  60 H60            1.6382     4.2586    -1.0562 H       
  61 H61            1.7681     5.2669     0.4049 H       
  62 H62            2.8941     3.9109     0.1563 H       
  63 H63           -1.2175     3.1402     1.0538 H       
  64 H64           -0.6329     4.8168     0.9291 H       
  65 H65           -0.7629     3.8085    -0.5320 H       
  66 H66            2.2560     2.9728     2.3823 H       
  67 H67            1.1300     4.3287     2.6309 H       
  68 H68            0.5454     2.6521     2.7557 H       
  69 H69            1.1037    -1.5500    -3.3117 H       
  70 H70            2.8155    -1.5579    -2.8241 H       
  71 H71            1.9167    -3.0897    -2.9419 H       
@<TRIPOS>BOND
   1    1    2 ar
   2    1    6 ar
   3    1   39 1
   4    2    3 ar
   5    2   35 1
   6    3    4 ar
   7    3   37 1
   8    4    5 ar
   9    4    8 1
  10    5    6 ar
  11    5   40 1
  12    6    7 1
  13    7   30 1
  14    7   31 1
  15    7   32 1
  16    8    9 am
  17    8   41 1
  18    9   10 2
  19    9   33 1
  20   11   12 ar
  21   11   33 1
  22   11   16 ar
  23   12   13 ar
  24   12   17 ar
  25   13   14 ar
  26   13   20 ar
  27   14   15 ar
  28   14   21 1
  29   15   16 ar
  30   15   42 1
  31   16   43 1
  32   17   18 ar
  33   17   44 1
  34   18   19 ar
  35   18   45 1
  36   19   20 ar
  37   19   46 1
  38   20   47 1
  39   21   22 1
  40   22   23 1
  41   22   48 1
  42   22   49 1
  43   23   24 1
  44   23   50 1
  45   23   51 1
  46   24   25 1
  47   24   29 1
  48   25   26 1
  49   25   52 1
  50   25   53 1
  51   26   27 1
  52   26   54 1
  53   26   55 1
  54   27   28 1
  55   28   29 1
  56   28   56 1
  57   28   57 1
  58   29   58 1
  59   29   59 1
  60   30   60 1
  61   30   61 1
  62   30   62 1
  63   31   63 1
  64   31   64 1
  65   31   65 1
  66   32   66 1
  67   32   67 1
  68   32   68 1
  69   33   34 2
  70   35   36 3
  71   37   38 1
  72   38   69 1
  73   38   70 1
  74   38   71 1

#	End of record

