#	Name: ASD01880459
#	Creating user name:	WinNT
#	Creation time:	15. 06. 2019 19:40

#	Modifying user name:	WinNT
#	Modification time:	15. 06. 2019 19:40

#	Program:	/corina/corina34_cracker 3.40 0067  02.08.2006

@<TRIPOS>MOLECULE
ASD01880459
  48   52    0    0    0
SMALL
NO_CHARGES


@<TRIPOS>ATOM
   1 C1            -0.0169     1.3928     0.0097 C.ar    
   2 C2             0.0021    -0.0041     0.0020 C.ar    
   3 C3             1.2135    -0.6908    -0.0132 C.ar    
   4 C4             2.4023     0.0193    -0.0208 C.ar    
   5 C5             2.3728     1.4246    -0.0130 C.ar    
   6 C6             1.1521     2.1000     0.0023 C.ar    
   7 N7             3.6285    -0.6376    -0.0355 N.pl3   
   8 C8             4.7928     0.0688    -0.0425 C.2     
   9 N9             4.8014     1.4562    -0.0349 N.am    
  10 C10            3.6500     2.1585    -0.0210 C.2     
  11 N11            3.9492    -2.0026    -0.0456 N.2     
  12 C12            5.2606    -2.1201    -0.0583 C.2     
  13 C13            5.8179    -0.8300    -0.0567 C.2     
  14 C14            6.0810     2.1694    -0.0426 C.3     
  15 O15            3.6660     3.3751    -0.0147 O.2     
  16 C16           -1.2740    -0.7593     0.0106 C.ar    
  17 C17            6.0193    -3.3951    -0.0719 C.ar    
  18 C18           -2.4900    -0.0777     0.0264 C.ar    
  19 C19           -3.6745    -0.7851     0.0344 C.ar    
  20 C20           -3.6569    -2.1695     0.0273 C.ar    
  21 C21           -2.4519    -2.8512     0.0121 C.ar    
  22 C22           -1.2619    -2.1532    -0.0027 C.ar    
  23 Cl23          -5.1509    -3.0537     0.0380 Cl      
  24 C24            5.3399    -4.6120    -0.0725 C.ar    
  25 C25            7.4128    -3.3782    -0.0900 C.ar    
  26 C26            8.1154    -4.5649    -0.1031 C.ar    
  27 C27            7.4359    -5.7755    -0.0988 C.ar    
  28 C28            6.0478    -5.7955    -0.0857 C.ar    
  29 O29            8.1307    -6.9431    -0.1127 O.3     
  30 C30            7.3684    -8.1518    -0.1073 C.3     
  31 H31           -0.9612     1.9168     0.0170 H       
  32 H32            1.2258    -1.7707    -0.0188 H       
  33 H33            1.1313     3.1798     0.0083 H       
  34 H34            6.8715    -0.5926    -0.0648 H       
  35 H35            6.3891     2.3520    -1.0721 H       
  36 H36            5.9699     3.1208     0.4775 H       
  37 H37            6.8363     1.5661     0.4611 H       
  38 H38           -2.5047     1.0022     0.0326 H       
  39 H39           -4.6171    -0.2580     0.0466 H       
  40 H40           -2.4435    -3.9312     0.0070 H       
  41 H41           -0.3224    -2.6858    -0.0145 H       
  42 H42            4.2600    -4.6282    -0.0623 H       
  43 H43            7.9420    -2.4367    -0.0940 H       
  44 H44            9.1952    -4.5524    -0.1171 H       
  45 H45            5.5219    -6.7388    -0.0824 H       
  46 H46            6.7519    -8.1885     0.7909 H       
  47 H47            6.7281    -8.1815    -0.9889 H       
  48 H48            8.0437    -9.0073    -0.1196 H       
@<TRIPOS>BOND
   1    1    2 ar
   2    1    6 ar
   3    1   31 1
   4    2    3 ar
   5    2   16 1
   6    3    4 ar
   7    3   32 1
   8    4    5 ar
   9    4    7 1
  10    5    6 ar
  11    5   10 1
  12    6   33 1
  13    7    8 1
  14    7   11 1
  15    8    9 1
  16    8   13 2
  17    9   10 am
  18    9   14 1
  19   10   15 2
  20   11   12 2
  21   12   13 1
  22   12   17 1
  23   13   34 1
  24   14   35 1
  25   14   36 1
  26   14   37 1
  27   16   18 ar
  28   16   22 ar
  29   17   24 ar
  30   17   25 ar
  31   18   19 ar
  32   18   38 1
  33   19   20 ar
  34   19   39 1
  35   20   21 ar
  36   20   23 1
  37   21   22 ar
  38   21   40 1
  39   22   41 1
  40   24   28 ar
  41   24   42 1
  42   25   26 ar
  43   25   43 1
  44   26   27 ar
  45   26   44 1
  46   27   28 ar
  47   27   29 1
  48   28   45 1
  49   29   30 1
  50   30   46 1
  51   30   47 1
  52   30   48 1

#	End of record

