#	Name: ASD02198752
#	Creating user name:	WinNT
#	Creation time:	15. 06. 2019 20:20

#	Modifying user name:	WinNT
#	Modification time:	15. 06. 2019 20:20

#	Program:	/corina/corina34_cracker 3.40 0067  02.08.2006

@<TRIPOS>MOLECULE
ASD02198752
  52   56    0    0    0
SMALL
NO_CHARGES


@<TRIPOS>ATOM
   1 C1            -0.1331     1.5854     0.0670 C.2     
   2 C2            -0.2128     0.2355     0.1795 C.2     
   3 N3             0.8915    -0.5358     0.0660 N.pl3   
   4 N4             2.0625    -0.0612    -0.1502 N.2     
   5 C5             2.2804     1.2303    -0.2796 C.2     
   6 C6             1.1406     2.1546    -0.1720 C.2     
   7 C7             0.7494    -1.9222     0.1912 C.ar    
   8 C8             1.5100    -2.6198     1.1288 C.ar    
   9 C9             1.3671    -3.9917     1.2504 C.ar    
  10 C10            0.4671    -4.6695     0.4389 C.ar    
  11 C11           -0.2901    -3.9719    -0.4952 C.ar    
  12 C12           -0.1536    -2.6038    -0.6143 C.ar    
  13 C13            3.6434     1.7423    -0.5278 C.2     
  14 N14            4.0367     2.5318    -1.5716 N.pl3   
  15 N15            5.4062     2.7843    -1.4232 N.2     
  16 C16            5.8310     2.1797    -0.3424 C.2     
  17 C17            4.7565     1.5187     0.2527 C.2     
  18 C18            3.2172     3.0034    -2.6050 C.ar    
  19 C19            3.3353     4.3159    -3.0428 C.ar    
  20 C20            2.5261     4.7777    -4.0623 C.ar    
  21 C21            1.5991     3.9345    -4.6471 C.ar    
  22 C22            1.4788     2.6271    -4.2131 C.ar    
  23 C23            2.2890     2.1576    -3.1979 C.ar    
  24 O24            1.2874     3.3627    -0.2847 O.2     
  25 N25            0.3229    -6.0535     0.5608 N.3     
  26 C26            0.6556    -6.7364    -0.7121 C.3     
  27 C27           -1.0973    -6.4233     0.7694 C.3     
  28 C28           -1.2799    -7.7362     0.0439 C.2     
  29 C29           -0.2889    -7.9133    -0.7937 C.2     
  30 O30            2.3905    -1.9543     1.9217 O.3     
  31 C31            3.1360    -2.7332     2.8596 C.3     
  32 H32           -1.0135     2.2050     0.1527 H       
  33 H33           -1.1707    -0.2286     0.3623 H       
  34 H34            1.9555    -4.5342     1.9757 H       
  35 H35           -0.9896    -4.5008    -1.1255 H       
  36 H36           -0.7432    -2.0639    -1.3404 H       
  37 H37            6.8450     2.1936     0.0290 H       
  38 H38            4.7920     0.9321     1.1588 H       
  39 H39            4.0588     4.9750    -2.5863 H       
  40 H40            2.6172     5.7985    -4.4030 H       
  41 H41            0.9674     4.2980    -5.4442 H       
  42 H42            0.7536     1.9711    -4.6716 H       
  43 H43            2.1948     1.1363    -2.8596 H       
  44 H44            0.4946    -6.0639    -1.5547 H       
  45 H45            1.6892    -7.0822    -0.6961 H       
  46 H46           -1.3027    -6.5476     1.8327 H       
  47 H47           -1.7519    -5.6626     0.3441 H       
  48 H48           -2.1006    -8.4223     0.1930 H       
  49 H49           -0.1657    -8.7680    -1.4424 H       
  50 H50            3.7997    -2.0811     3.4273 H       
  51 H51            2.4499    -3.2357     3.5413 H       
  52 H52            3.7272    -3.4771     2.3254 H       
@<TRIPOS>BOND
   1    1    2 2
   2    1    6 1
   3    1   32 1
   4    2    3 1
   5    2   33 1
   6    3    4 1
   7    3    7 1
   8    4    5 2
   9    5    6 1
  10    5   13 1
  11    6   24 2
  12    7    8 ar
  13    7   12 ar
  14    8    9 ar
  15    8   30 1
  16    9   10 ar
  17    9   34 1
  18   10   11 ar
  19   10   25 1
  20   11   12 ar
  21   11   35 1
  22   12   36 1
  23   13   14 1
  24   13   17 2
  25   14   15 1
  26   14   18 1
  27   15   16 2
  28   16   17 1
  29   16   37 1
  30   17   38 1
  31   18   19 ar
  32   18   23 ar
  33   19   20 ar
  34   19   39 1
  35   20   21 ar
  36   20   40 1
  37   21   22 ar
  38   21   41 1
  39   22   23 ar
  40   22   42 1
  41   23   43 1
  42   25   27 1
  43   25   26 1
  44   26   29 1
  45   26   44 1
  46   26   45 1
  47   27   28 1
  48   27   46 1
  49   27   47 1
  50   28   29 2
  51   28   48 1
  52   29   49 1
  53   30   31 1
  54   31   50 1
  55   31   51 1
  56   31   52 1

#	End of record

