#	Name: ASD05490251
#	Creating user name:	WinNT
#	Creation time:	15. 06. 2019 21:01

#	Modifying user name:	WinNT
#	Modification time:	15. 06. 2019 21:01

#	Program:	/corina/corina34_cracker 3.40 0067  02.08.2006

@<TRIPOS>MOLECULE
ASD05490251
  67   71    0    0    0
SMALL
NO_CHARGES


@<TRIPOS>ATOM
   1 N1            -0.0141     1.3235    -0.0016 N.ar    
   2 C2             0.0026    -0.0006    -0.0084 C.ar    
   3 C3             1.1990    -0.7004    -0.0177 C.ar    
   4 C4             2.3953     0.0106    -0.0206 C.ar    
   5 C5             2.3404     1.4047    -0.0168 C.ar    
   6 C6             1.1047     2.0380    -0.0055 C.ar    
   7 N7             3.6186    -0.6479    -0.0229 N.3     
   8 C8             3.4706    -2.0318    -0.4926 C.3     
   9 C9             4.7908    -2.7480    -0.3696 C.ar    
  10 C10            5.1045    -3.4217     0.7971 C.ar    
  11 C11            6.3144    -4.0821     0.9179 C.ar    
  12 C12            7.2163    -4.0720    -0.1259 C.ar    
  13 C13            6.9060    -3.3942    -1.3057 C.ar    
  14 C14            5.6818    -2.7350    -1.4232 C.ar    
  15 N15            1.0387     3.4288     0.0014 N.pl3   
  16 O16           -1.1706    -0.6834    -0.0058 O.3     
  17 C17           -2.3717     0.0907     0.0044 C.3     
  18 N18            3.5364     2.1439    -0.0281 N.am    
  19 C19            4.6273     0.0692    -0.8098 C.3     
  20 C20            4.6763     1.5173    -0.3971 C.2     
  21 O21            5.7309     2.1170    -0.3962 O.2     
  22 C22            7.8682    -3.3789    -2.4284 C.2     
  23 C23           -3.5818    -0.8455     0.0059 C.3     
  24 C24           -4.8678    -0.0167     0.0168 C.3     
  25 C25           -6.0780    -0.9529     0.0183 C.3     
  26 N26            7.6889    -2.7772    -3.5692 N.2     
  27 S27            9.4446    -4.1656    -2.4345 S.3     
  28 C28            9.7247    -3.5802    -4.0732 C.2     
  29 C29            8.6560    -2.8716    -4.4525 C.2     
  30 C30           10.9583    -3.8305    -4.9020 C.3     
  31 N31           11.9355    -2.7604    -4.6609 N.3     
  32 C32           13.2397    -3.0901    -5.2644 C.3     
  33 C33           13.6005    -1.9413    -6.2295 C.3     
  34 C34           12.7550    -0.7561    -5.6935 C.3     
  35 C35           11.4662    -1.4773    -5.2260 C.3     
  36 H36            1.2028    -1.7804    -0.0223 H       
  37 H37            2.7222    -2.5430     0.1130 H       
  38 H38            3.1542    -2.0297    -1.5357 H       
  39 H39            4.4021    -3.4320     1.6175 H       
  40 H40            6.5534    -4.6063     1.8314 H       
  41 H41            8.1606    -4.5873    -0.0301 H       
  42 H42            5.4357    -2.2087    -2.3336 H       
  43 H43            1.8548     3.9530    -0.0018 H       
  44 H44            0.1767     3.8734     0.0093 H       
  45 H45           -2.3941     0.7149     0.8977 H       
  46 H46           -2.4034     0.7240    -0.8822 H       
  47 H47            3.5435     3.0810     0.2224 H       
  48 H48            5.6039    -0.3863    -0.6459 H       
  49 H49            4.3736     0.0036    -1.8678 H       
  50 H50           -3.5594    -1.4697    -0.8874 H       
  51 H51           -3.5502    -1.4788     0.8925 H       
  52 H52           -4.8903     0.6075     0.9101 H       
  53 H53           -4.8995     0.6165    -0.8698 H       
  54 H54           -6.0555    -1.5771    -0.8750 H       
  55 H55           -6.0463    -1.5862     0.9049 H       
  56 H56           -6.9941    -0.3625     0.0261 H       
  57 H57            8.5913    -2.4076    -5.4256 H       
  58 H58           11.3943    -4.7900    -4.6240 H       
  59 H59           10.6895    -3.8459    -5.9582 H       
  60 H60           13.9983    -3.1725    -4.4860 H       
  61 H61           13.1670    -4.0280    -5.8150 H       
  62 H62           14.6646    -1.7116    -6.1745 H       
  63 H63           13.3111    -2.1905    -7.2505 H       
  64 H64           13.2542    -0.2672    -4.8570 H       
  65 H65           12.5366    -0.0418    -6.4874 H       
  66 H66           10.8027    -1.6553    -6.0722 H       
  67 H67           10.9583    -0.8892    -4.4616 H       
@<TRIPOS>BOND
   1    1    2 ar
   2    1    6 ar
   3    2    3 ar
   4    2   16 1
   5    3    4 ar
   6    3   36 1
   7    4    5 ar
   8    4    7 1
   9    5    6 ar
  10    5   18 1
  11    6   15 1
  12    7    8 1
  13    7   19 1
  14    8    9 1
  15    8   37 1
  16    8   38 1
  17    9   10 ar
  18    9   14 ar
  19   10   11 ar
  20   10   39 1
  21   11   12 ar
  22   11   40 1
  23   12   13 ar
  24   12   41 1
  25   13   14 ar
  26   13   22 1
  27   14   42 1
  28   15   43 1
  29   15   44 1
  30   16   17 1
  31   17   23 1
  32   17   45 1
  33   17   46 1
  34   18   20 am
  35   18   47 1
  36   19   20 1
  37   19   48 1
  38   19   49 1
  39   20   21 2
  40   22   27 1
  41   22   26 2
  42   23   24 1
  43   23   50 1
  44   23   51 1
  45   24   25 1
  46   24   52 1
  47   24   53 1
  48   25   54 1
  49   25   55 1
  50   25   56 1
  51   26   29 1
  52   27   28 1
  53   28   29 2
  54   28   30 1
  55   29   57 1
  56   30   31 1
  57   30   58 1
  58   30   59 1
  59   31   32 1
  60   31   35 1
  61   32   33 1
  62   32   60 1
  63   32   61 1
  64   33   34 1
  65   33   62 1
  66   33   63 1
  67   34   35 1
  68   34   64 1
  69   34   65 1
  70   35   66 1
  71   35   67 1

#	End of record

