#	Name: ASD01230210
#	Creating user name:	WinNT
#	Creation time:	15. 06. 2019 19:12

#	Modifying user name:	WinNT
#	Modification time:	15. 06. 2019 19:12

#	Program:	/corina/corina34_cracker 3.40 0067  02.08.2006

@<TRIPOS>MOLECULE
ASD01230210
  40   43    0    0    0
SMALL
NO_CHARGES


@<TRIPOS>ATOM
   1 S1             1.2231     0.8978     1.3276 S.o2    
   2 N2             0.8926    -0.6752     0.9352 N.am    
   3 C3             1.7493    -1.4310     0.2916 C.2     
   4 N4             2.9886    -1.0426    -0.1301 N.pl3   
   5 C5             3.5151     0.3166     0.0198 C.3     
   6 C6             3.0435     0.9337     1.3398 C.3     
   7 C7             1.3086    -2.8143     0.0127 C.2     
   8 C8             2.1725    -3.6787    -0.6237 C.2     
   9 C9             3.4470    -3.2206    -0.9874 C.2     
  10 C10            3.8178    -1.9517    -0.7407 C.2     
  11 C11           -0.0438    -3.2652     0.4126 C.ar    
  12 C12           -0.1917    -4.2615     1.3784 C.ar    
  13 C13           -1.4526    -4.6790     1.7482 C.ar    
  14 C14           -2.5745    -4.1096     1.1606 C.ar    
  15 C15           -2.4312    -3.1182     0.1989 C.ar    
  16 C16           -1.1736    -2.6910    -0.1712 C.ar    
  17 O17           -3.8157    -4.5238     1.5273 O.3     
  18 C18           -4.3064    -4.0909     2.7160 C.ar    
  19 C19           -5.5242    -4.5769     3.1752 C.ar    
  20 C20           -6.0140    -4.1277     4.3890 C.ar    
  21 C21           -5.2639    -3.2030     5.1046 C.ar    
  22 C22           -4.0609    -2.7632     4.5866 C.ar    
  23 N23           -3.6181    -3.2147     3.4284 N.ar    
  24 Cl24          -5.8321    -2.6061     6.6325 Cl      
  25 Cl25           4.5586    -4.3037    -1.7653 Cl      
  26 O26            0.7111     1.6532     0.2384 O.2     
  27 O27            0.7068     1.0545     2.6422 O.2     
  28 H28            4.6045     0.2836     0.0073 H       
  29 H29            3.1651     0.9312    -0.8096 H       
  30 H30            3.3942     1.9630     1.4149 H       
  31 H31            3.4209     0.3494     2.1790 H       
  32 H32            1.8728    -4.6938    -0.8388 H       
  33 H33            4.8076    -1.6346    -1.0343 H       
  34 H34            0.6805    -4.7053     1.8353 H       
  35 H35           -1.5678    -5.4500     2.4956 H       
  36 H36           -3.3060    -2.6778    -0.2563 H       
  37 H37           -1.0630    -1.9163    -0.9155 H       
  38 H38           -6.0815    -5.2954     2.5925 H       
  39 H39           -6.9579    -4.4876     4.7710 H       
  40 H40           -3.4737    -2.0441     5.1384 H       
@<TRIPOS>BOND
   1    1    2 am
   2    1    6 1
   3    1   26 2
   4    1   27 2
   5    2    3 2
   6    3    4 1
   7    3    7 1
   8    4    5 1
   9    4   10 1
  10    5    6 1
  11    5   28 1
  12    5   29 1
  13    6   30 1
  14    6   31 1
  15    7    8 2
  16    7   11 1
  17    8    9 1
  18    8   32 1
  19    9   10 2
  20    9   25 1
  21   10   33 1
  22   11   12 ar
  23   11   16 ar
  24   12   13 ar
  25   12   34 1
  26   13   14 ar
  27   13   35 1
  28   14   15 ar
  29   14   17 1
  30   15   16 ar
  31   15   36 1
  32   16   37 1
  33   17   18 1
  34   18   19 ar
  35   18   23 ar
  36   19   20 ar
  37   19   38 1
  38   20   21 ar
  39   20   39 1
  40   21   22 ar
  41   21   24 1
  42   22   23 ar
  43   22   40 1

#	End of record

