#	Name: ASD01150175
#	Creating user name:	WinNT
#	Creation time:	15. 06. 2019 19:03

#	Modifying user name:	WinNT
#	Modification time:	15. 06. 2019 19:03

#	Program:	/corina/corina34_cracker 3.40 0067  02.08.2006

@<TRIPOS>MOLECULE
ASD01150175
  53   56    0    0    0
SMALL
NO_CHARGES


@<TRIPOS>ATOM
   1 N1            -0.0167     1.3778     0.0096 N.pl3   
   2 C2             0.0021    -0.0041     0.0020 C.2     
   3 C3            -1.3267    -0.4109     0.0125 C.2     
   4 N4            -2.0793     0.6923     0.0256 N.2     
   5 C5            -1.3127     1.7533     0.0299 C.2     
   6 C6             1.0202    -0.9808    -0.0125 C.2     
   7 N7             0.6805    -2.2866    -0.0159 N.am    
   8 C8            -0.6089    -2.6665    -0.0057 C.2     
   9 N9            -1.6106    -1.7670     0.0086 N.am    
  10 O10            2.1921    -0.6491    -0.0223 O.2     
  11 C11           -3.0028    -2.2229     0.0196 C.3     
  12 O12           -0.8773    -3.8525    -0.0091 O.2     
  13 C13            1.7327    -3.3058    -0.0315 C.3     
  14 C14            2.1075    -3.6626     1.3839 C.ar    
  15 C15            1.4463    -4.6863     2.0366 C.ar    
  16 C16            1.7896    -5.0140     3.3347 C.ar    
  17 C17            2.7951    -4.3172     3.9809 C.ar    
  18 C18            3.4565    -3.2929     3.3272 C.ar    
  19 C19            3.1161    -2.9698     2.0271 C.ar    
  20 C20           -1.8032     3.1782     0.0449 C.3     
  21 C21           -1.9610     3.6480     1.4924 C.3     
  22 C22            1.0983     2.2274     0.0035 C.ar    
  23 C23           -3.4736    -2.3890     1.4659 C.3     
  24 C24           -4.9276    -2.8651     1.4774 C.3     
  25 Cl25           3.2264    -4.7279     5.6115 Cl      
  26 C26            1.3329     3.0586    -1.0836 C.ar    
  27 C27            2.4316     3.8953    -1.0875 C.ar    
  28 C28            3.2993     3.9054    -0.0083 C.ar    
  29 C29            3.0672     3.0767     1.0768 C.ar    
  30 C30            1.9662     2.2431     1.0871 C.ar    
  31 F31            4.3738     4.7243    -0.0141 F       
  32 H32           -3.6299    -1.4875    -0.4844 H       
  33 H33           -3.0762    -3.1790    -0.4984 H       
  34 H34            1.3695    -4.1952    -0.5464 H       
  35 H35            2.6078    -2.9167    -0.5520 H       
  36 H36            0.6611    -5.2298     1.5321 H       
  37 H37            1.2727    -5.8135     3.8446 H       
  38 H38            4.2415    -2.7486     3.8311 H       
  39 H39            3.6323    -2.1702     1.5167 H       
  40 H40           -1.0829     3.8158    -0.4675 H       
  41 H41           -2.7659     3.2364    -0.4630 H       
  42 H42           -2.3158     4.6786     1.5033 H       
  43 H43           -2.6814     3.0104     2.0049 H       
  44 H44           -0.9983     3.5898     2.0003 H       
  45 H45           -2.8465    -3.1244     1.9699 H       
  46 H46           -3.4003    -1.4328     1.9840 H       
  47 H47           -5.0010    -3.8213     0.9593 H       
  48 H48           -5.2630    -2.9835     2.5078 H       
  49 H49           -5.5547    -2.1297     0.9734 H       
  50 H50            0.6568     3.0505    -1.9257 H       
  51 H51            2.6144     4.5420    -1.9330 H       
  52 H52            3.7454     3.0855     1.9172 H       
  53 H53            1.7855     1.5970     1.9335 H       
@<TRIPOS>BOND
   1    1    2 1
   2    1   22 1
   3    1    5 1
   4    2    3 2
   5    2    6 1
   6    3    4 1
   7    3    9 1
   8    4    5 2
   9    5   20 1
  10    6    7 am
  11    6   10 2
  12    7    8 am
  13    7   13 1
  14    8    9 am
  15    8   12 2
  16    9   11 1
  17   11   23 1
  18   11   32 1
  19   11   33 1
  20   13   14 1
  21   13   34 1
  22   13   35 1
  23   14   15 ar
  24   14   19 ar
  25   15   16 ar
  26   15   36 1
  27   16   17 ar
  28   16   37 1
  29   17   18 ar
  30   17   25 1
  31   18   19 ar
  32   18   38 1
  33   19   39 1
  34   20   21 1
  35   20   40 1
  36   20   41 1
  37   21   42 1
  38   21   43 1
  39   21   44 1
  40   22   26 ar
  41   22   30 ar
  42   23   24 1
  43   23   45 1
  44   23   46 1
  45   24   47 1
  46   24   48 1
  47   24   49 1
  48   26   27 ar
  49   26   50 1
  50   27   28 ar
  51   27   51 1
  52   28   29 ar
  53   28   31 1
  54   29   30 ar
  55   29   52 1
  56   30   53 1

#	End of record

