#	Name: ASD00460005
#	Creating user name:	WinNT
#	Creation time:	15. 06. 2019 18:36

#	Modifying user name:	WinNT
#	Modification time:	15. 06. 2019 18:36

#	Program:	/corina/corina34_cracker 3.40 0067  02.08.2006

@<TRIPOS>MOLECULE
ASD00460005
  54   56    0    0    0
SMALL
NO_CHARGES


@<TRIPOS>ATOM
   1 C1            -0.0166     1.3757     0.0096 C.ar    
   2 C2             0.0021    -0.0041     0.0020 C.ar    
   3 C3            -1.1840    -0.7184     0.0100 C.ar    
   4 C4            -2.3975    -0.0587     0.0256 C.ar    
   5 C5            -2.4361     1.3269     0.0330 C.ar    
   6 C6            -1.2385     2.0554     0.0308 C.ar    
   7 O7            -3.6282     1.9753     0.0478 O.3     
   8 C8            -4.8065     1.1668     0.0553 C.3     
   9 C9            -6.0430     2.0677     0.0718 C.3     
  10 C10           -7.3026     1.2071    -0.0459 C.3     
  11 N11           -8.4818     2.0768    -0.1505 N.3     
  12 C12           -9.7127     1.2832    -0.2654 C.3     
  13 C13          -10.9164     2.2216    -0.3720 C.3     
  14 C14          -12.1791     1.4075    -0.4899 C.ar    
  15 C15          -12.8642     1.0327     0.6640 C.ar    
  16 C16          -14.0073     0.2970     0.5927 C.ar    
  17 C17          -14.5069    -0.0914    -0.6618 C.ar    
  18 C18          -13.8102     0.2904    -1.8357 C.ar    
  19 C19          -12.6363     1.0541    -1.7224 C.ar    
  20 C20          -15.6836    -0.8515    -0.7754 C.ar    
  21 C21          -16.1373    -1.2098    -2.0074 C.ar    
  22 C22          -15.4523    -0.8343    -3.1617 C.ar    
  23 C23          -14.3097    -0.0985    -3.0905 C.ar    
  24 C24           -9.6384     0.4050    -1.5161 C.3     
  25 C25           -9.8652     0.3965     0.9721 C.3     
  26 Cl26           1.4738     2.2658     0.0002 Cl      
  27 O27           -6.0808     2.8022     1.2970 O.3     
  28 C28           -1.2663     3.4871     0.0383 C.1     
  29 N29           -1.2883     4.6229     0.0443 N.1     
  30 H30            0.9459    -0.5290    -0.0105 H       
  31 H31           -1.1601    -1.7981     0.0036 H       
  32 H32           -3.3180    -0.6236     0.0317 H       
  33 H33           -4.8240     0.5421    -0.8378 H       
  34 H34           -4.8067     0.5331     0.9421 H       
  35 H35           -5.9978     2.7623    -0.7670 H       
  36 H36           -7.2329     0.5809    -0.9354 H       
  37 H37           -7.3945     0.5748     0.8372 H       
  38 H38           -8.5330     2.7122     0.6316 H       
  39 H39          -10.9693     2.8473     0.5190 H       
  40 H40          -10.8077     2.8533    -1.2536 H       
  41 H41          -12.4823     1.3299     1.6296 H       
  42 H42          -14.5274     0.0131     1.4957 H       
  43 H43          -12.0950     1.3522    -2.6082 H       
  44 H44          -16.2247    -1.1499     0.1103 H       
  45 H45          -17.0416    -1.7942    -2.0919 H       
  46 H46          -15.8340    -1.1318    -4.1272 H       
  47 H47          -13.7898     0.1855    -3.9935 H       
  48 H48           -8.7808    -0.2635    -1.4402 H       
  49 H49          -10.5517    -0.1838    -1.6014 H       
  50 H50           -9.5297     1.0368    -2.3977 H       
  51 H51           -9.9182     1.0221     1.8631 H       
  52 H52          -10.7785    -0.1923     0.8868 H       
  53 H53           -9.0077    -0.2720     1.0480 H       
  54 H54           -6.1219     2.2467     2.0875 H       
@<TRIPOS>BOND
   1    1    2 ar
   2    1   26 1
   3    1    6 ar
   4    2    3 ar
   5    2   30 1
   6    3    4 ar
   7    3   31 1
   8    4    5 ar
   9    4   32 1
  10    5    6 ar
  11    5    7 1
  12    6   28 1
  13    7    8 1
  14    8    9 1
  15    8   33 1
  16    8   34 1
  17    9   10 1
  18    9   27 1
  19    9   35 1
  20   10   11 1
  21   10   36 1
  22   10   37 1
  23   11   12 1
  24   11   38 1
  25   12   13 1
  26   12   24 1
  27   12   25 1
  28   13   14 1
  29   13   39 1
  30   13   40 1
  31   14   15 ar
  32   14   19 ar
  33   15   16 ar
  34   15   41 1
  35   16   17 ar
  36   16   42 1
  37   17   18 ar
  38   17   20 ar
  39   18   19 ar
  40   18   23 ar
  41   19   43 1
  42   20   21 ar
  43   20   44 1
  44   21   22 ar
  45   21   45 1
  46   22   23 ar
  47   22   46 1
  48   23   47 1
  49   24   48 1
  50   24   49 1
  51   24   50 1
  52   25   51 1
  53   25   52 1
  54   25   53 1
  55   27   54 1
  56   28   29 3

#	End of record

