#	Name: ASD01912850
#	Creating user name:	WinNT
#	Creation time:	15. 06. 2019 20:00

#	Modifying user name:	WinNT
#	Modification time:	15. 06. 2019 20:00

#	Program:	/corina/corina34_cracker 3.40 0067  02.08.2006

@<TRIPOS>MOLECULE
ASD01912850
  49   52    0    0    0
SMALL
NO_CHARGES


@<TRIPOS>ATOM
   1 C1             0.1568     1.6542     0.7548 C.2     
   2 N2             0.2647     0.2898     0.6723 N.pl3   
   3 C3            -0.8812    -0.4629     0.4617 C.2     
   4 C4            -2.0706     0.1116     0.3398 C.2     
   5 N5            -2.2328     1.4828     0.4150 N.am    
   6 C6            -1.1605     2.2789     0.6244 C.2     
   7 C7             1.4327     2.1431     0.9644 C.2     
   8 C8             2.2543     1.0175     0.9966 C.2     
   9 N9             1.4993    -0.0405     0.8178 N.2     
  10 O10           -1.2863     3.4882     0.6935 O.2     
  11 C11           -3.5027     2.0436     0.2806 C.ar    
  12 C12            3.7474     1.0160     1.2005 C.3     
  13 O13            4.2078     2.3595     1.3589 O.3     
  14 C14            5.5412     2.5359     1.5536 C.ar    
  15 C15            6.0568     3.8137     1.7148 C.ar    
  16 C16            7.4126     3.9903     1.9126 C.ar    
  17 C17            8.2555     2.8949     1.9498 C.ar    
  18 C18            7.7441     1.6204     1.7889 C.ar    
  19 C19            6.3882     1.4380     1.5970 C.ar    
  20 N20           -3.6377     3.3611     0.2541 N.ar    
  21 C21           -4.6114     1.2150     0.1703 C.ar    
  22 C22           -5.8698     1.7808     0.0371 C.ar    
  23 C23           -5.9768     3.1611     0.0187 C.ar    
  24 C24           -4.8252     3.9333     0.1280 C.ar    
  25 N25           -4.9224     5.3197     0.1105 N.3     
  26 C26           -4.4079     5.8993     1.3585 C.3     
  27 C27           -4.2285     5.8814    -1.0561 C.3     
  28 C28           -7.3248     3.8193    -0.1248 C.3     
  29 H29           -0.8034    -1.5381     0.3953 H       
  30 H30           -2.9384    -0.5103     0.1767 H       
  31 H31            1.7293     3.1753     1.0781 H       
  32 H32            3.9916     0.4406     2.0934 H       
  33 H33            4.2320     0.5657     0.3342 H       
  34 H34            5.3989     4.6697     1.6855 H       
  35 H35            7.8145     4.9849     2.0378 H       
  36 H36            9.3151     3.0350     2.1045 H       
  37 H37            8.4046     0.7664     1.8176 H       
  38 H38            5.9893     0.4423     1.4714 H       
  39 H39           -4.4945     0.1414     0.1878 H       
  40 H40           -6.7480     1.1583    -0.0508 H       
  41 H41           -3.3433     5.6832     1.4476 H       
  42 H42           -4.5600     6.9786     1.3476 H       
  43 H43           -4.9388     5.4661     2.2062 H       
  44 H44           -4.6148     5.4206    -1.9652 H       
  45 H45           -4.3959     6.9577    -1.0949 H       
  46 H46           -3.1600     5.6826    -0.9738 H       
  47 H47           -7.7503     3.9950     0.8632 H       
  48 H48           -7.2115     4.7699    -0.6459 H       
  49 H49           -7.9878     3.1689    -0.6954 H       
@<TRIPOS>BOND
   1    1    2 1
   2    1    7 2
   3    1    6 1
   4    2    3 1
   5    2    9 1
   6    3    4 2
   7    3   29 1
   8    4    5 1
   9    4   30 1
  10    5    6 am
  11    5   11 1
  12    6   10 2
  13    7    8 1
  14    7   31 1
  15    8    9 2
  16    8   12 1
  17   11   20 ar
  18   11   21 ar
  19   12   13 1
  20   12   32 1
  21   12   33 1
  22   13   14 1
  23   14   15 ar
  24   14   19 ar
  25   15   16 ar
  26   15   34 1
  27   16   17 ar
  28   16   35 1
  29   17   18 ar
  30   17   36 1
  31   18   19 ar
  32   18   37 1
  33   19   38 1
  34   20   24 ar
  35   21   22 ar
  36   21   39 1
  37   22   23 ar
  38   22   40 1
  39   23   24 ar
  40   23   28 1
  41   24   25 1
  42   25   26 1
  43   25   27 1
  44   26   41 1
  45   26   42 1
  46   26   43 1
  47   27   44 1
  48   27   45 1
  49   27   46 1
  50   28   47 1
  51   28   48 1
  52   28   49 1

#	End of record

