#	Name: ASD01913003
#	Creating user name:	WinNT
#	Creation time:	15. 06. 2019 20:00

#	Modifying user name:	WinNT
#	Modification time:	15. 06. 2019 20:00

#	Program:	/corina/corina34_cracker 3.40 0067  02.08.2006

@<TRIPOS>MOLECULE
ASD01913003
  46   49    0    0    0
SMALL
NO_CHARGES


@<TRIPOS>ATOM
   1 C1             0.8576     1.3652     1.0387 C.2     
   2 C2             1.1324    -0.0215     1.2672 C.1     
   3 C3             1.3577    -1.1583     1.4546 C.1     
   4 C4             1.6325    -2.5450     1.6832 C.ar    
   5 C5             0.5970    -3.4190     2.0272 C.ar    
   6 C6             2.9367    -3.0327     1.5577 C.ar    
   7 C7             3.1934    -4.3694     1.7790 C.ar    
   8 C8             2.1638    -5.2275     2.1239 C.ar    
   9 C9             0.8694    -4.7531     2.2453 C.ar    
  10 N10            1.7382     2.2668     0.7148 N.2     
  11 C11            1.3193     3.5084     0.5402 C.2     
  12 C12           -0.0080     3.6734     0.7226 C.2     
  13 S13           -0.7277     2.1243     1.1430 S.3     
  14 C14            2.2489     4.6578     0.1732 C.3     
  15 C15            1.4225     5.8065    -0.4083 C.3     
  16 N16            0.2614     6.0516     0.4603 N.am    
  17 C17           -0.7472     4.9847     0.5754 C.3     
  18 C18            0.1251     7.2137     1.1292 C.2     
  19 O19            1.0676     7.9764     1.2212 O.2     
  20 N20           -1.0559     7.5305     1.6960 N.am    
  21 C21           -2.2849     6.8237     1.3103 C.3     
  22 C22           -3.3385     7.8562     0.8970 C.3     
  23 C23           -3.5250     8.8697     2.0284 C.3     
  24 C24           -2.2052     9.6016     2.2827 C.3     
  25 C25           -1.1379     8.5851     2.7158 C.3     
  26 F26           -4.5094     9.7957     1.6670 F       
  27 H27           -0.4136    -3.0502     2.1224 H       
  28 H28            3.7410    -2.3644     1.2879 H       
  29 H29            4.2003    -4.7477     1.6824 H       
  30 H30            2.3709    -6.2735     2.2953 H       
  31 H31            0.0712    -5.4288     2.5149 H       
  32 H32            2.7731     5.0013     1.0650 H       
  33 H33            2.9728     4.3185    -0.5677 H       
  34 H34            2.0352     6.7065    -0.4602 H       
  35 H35            1.0799     5.5394    -1.4079 H       
  36 H36           -1.3659     4.9620    -0.3217 H       
  37 H37           -1.3712     5.1583     1.4521 H       
  38 H38           -2.0763     6.1588     0.4721 H       
  39 H39           -2.6537     6.2438     2.1564 H       
  40 H40           -3.0075     8.3732    -0.0037 H       
  41 H41           -4.2846     7.3518     0.7007 H       
  42 H42           -3.8321     8.3490     2.9354 H       
  43 H43           -1.8849    10.1022     1.3690 H       
  44 H44           -2.3448    10.3396     3.0726 H       
  45 H45           -1.4151     8.1510     3.6764 H       
  46 H46           -0.1725     9.0835     2.8026 H       
@<TRIPOS>BOND
   1    1    2 1
   2    1   10 2
   3    1   13 1
   4    2    3 3
   5    3    4 1
   6    4    5 ar
   7    4    6 ar
   8    5    9 ar
   9    5   27 1
  10    6    7 ar
  11    6   28 1
  12    7    8 ar
  13    7   29 1
  14    8    9 ar
  15    8   30 1
  16    9   31 1
  17   10   11 1
  18   11   12 2
  19   11   14 1
  20   12   13 1
  21   12   17 1
  22   14   15 1
  23   14   32 1
  24   14   33 1
  25   15   16 1
  26   15   34 1
  27   15   35 1
  28   16   17 1
  29   16   18 am
  30   17   36 1
  31   17   37 1
  32   18   19 2
  33   18   20 am
  34   20   21 1
  35   20   25 1
  36   21   22 1
  37   21   38 1
  38   21   39 1
  39   22   23 1
  40   22   40 1
  41   22   41 1
  42   23   24 1
  43   23   26 1
  44   23   42 1
  45   24   25 1
  46   24   43 1
  47   24   44 1
  48   25   45 1
  49   25   46 1

#	End of record

