#	Name: ASD01148533
#	Creating user name:	WinNT
#	Creation time:	15. 06. 2019 19:02

#	Modifying user name:	WinNT
#	Modification time:	15. 06. 2019 19:02

#	Program:	/corina/corina34_cracker 3.40 0067  02.08.2006

@<TRIPOS>MOLECULE
ASD01148533
  52   55    0    0    0
SMALL
NO_CHARGES


@<TRIPOS>ATOM
   1 C1            -0.0180     1.4348     0.0450 C.ar    
   2 C2            -0.0166     0.0527     0.0405 C.ar    
   3 C3             1.1813    -0.6373     0.0175 C.ar    
   4 C4             2.3774     0.0551    -0.0013 C.ar    
   5 C5             2.3760     1.4376     0.0023 C.ar    
   6 C6             1.1785     2.1274     0.0267 C.ar    
   7 C7             3.6801     2.1925    -0.0173 C.3     
   8 O8             4.6904     1.4586    -0.7386 O.3     
   9 C9             3.5611     3.4816    -0.8647 C.3     
  10 C10            4.0481     3.0268    -2.2273 C.2     
  11 N11            4.6608     1.8982    -2.0821 N.2     
  12 C12            3.8552     3.7470    -3.4976 C.ar    
  13 C13            4.3787     3.1929    -4.7438 C.ar    
  14 C14            3.1700     4.9538    -3.5193 C.ar    
  15 C15            2.9743     5.6515    -4.6980 C.ar    
  16 C16            3.4548     5.1746    -5.9097 C.ar    
  17 C17            4.1787     3.9064    -5.9492 C.ar    
  18 C18            3.2309     5.9402    -7.1497 C.2     
  19 O19            3.7432     5.5753    -8.1904 O.2     
  20 N20            2.4585     7.0445    -7.1297 N.am    
  21 C21            4.6807     3.3869    -7.1492 C.ar    
  22 C22            5.0708     1.9754    -4.7702 C.ar    
  23 C23            4.1459     2.5120     1.4046 C.3     
  24 F24            4.3107     1.3211     2.1201 F       
  25 F25            5.3644     3.1975     1.3532 F       
  26 F26            3.1887     3.3096     2.0408 F       
  27 C27            2.2361     7.8052    -8.3618 C.3     
  28 C28            5.5421     1.4945    -5.9555 C.ar    
  29 C29            5.3501     2.1993    -7.1408 C.ar    
  30 C30            1.1828    -2.1443     0.0135 C.3     
  31 F31           -0.1355    -2.6120     0.0356 F       
  32 F32            1.8225    -2.6069    -1.1414 F       
  33 F33            1.8628    -2.6129     1.1428 F       
  34 C34            1.3305     9.0023    -8.0656 C.3     
  35 F35            1.9418     9.8251    -7.1134 F       
  36 F36            1.1181     9.7288    -9.2422 F       
  37 F37            0.1037     8.5477    -7.5703 F       
  38 H38           -0.9537     1.9739     0.0584 H       
  39 H39           -0.9512    -0.4882     0.0552 H       
  40 H40            3.3131    -0.4840    -0.0186 H       
  41 H41            1.1775     3.2074     0.0299 H       
  42 H42            2.5251     3.8166    -0.9160 H       
  43 H43            4.2035     4.2671    -0.4665 H       
  44 H44            2.7807     5.3569    -2.5960 H       
  45 H45            2.4356     6.5873    -4.6748 H       
  46 H46            2.0499     7.3356    -6.2995 H       
  47 H47            4.5380     3.9237    -8.0754 H       
  48 H48            5.2305     1.4213    -3.8570 H       
  49 H49            3.1920     8.1594    -8.7477 H       
  50 H50            1.7599     7.1641    -9.1036 H       
  51 H51            6.0757     0.5556    -5.9748 H       
  52 H52            5.7368     1.7996    -8.0666 H       
@<TRIPOS>BOND
   1    1    2 ar
   2    1    6 ar
   3    1   38 1
   4    2    3 ar
   5    2   39 1
   6    3    4 ar
   7    3   30 1
   8    4    5 ar
   9    4   40 1
  10    5    6 ar
  11    5    7 1
  12    6   41 1
  13    7    8 1
  14    7    9 1
  15    7   23 1
  16    8   11 1
  17    9   10 1
  18    9   42 1
  19    9   43 1
  20   10   11 2
  21   10   12 1
  22   12   13 ar
  23   12   14 ar
  24   13   22 ar
  25   13   17 ar
  26   14   15 ar
  27   14   44 1
  28   15   16 ar
  29   15   45 1
  30   16   17 ar
  31   16   18 1
  32   17   21 ar
  33   18   19 2
  34   18   20 am
  35   20   27 1
  36   20   46 1
  37   21   29 ar
  38   21   47 1
  39   22   28 ar
  40   22   48 1
  41   23   24 1
  42   23   25 1
  43   23   26 1
  44   27   34 1
  45   27   49 1
  46   27   50 1
  47   28   29 ar
  48   28   51 1
  49   29   52 1
  50   30   31 1
  51   30   32 1
  52   30   33 1
  53   34   35 1
  54   34   36 1
  55   34   37 1

#	End of record

