#	Name: ASD01884630
#	Creating user name:	WinNT
#	Creation time:	15. 06. 2019 19:48

#	Modifying user name:	WinNT
#	Modification time:	15. 06. 2019 19:48

#	Program:	/corina/corina34_cracker 3.40 0067  02.08.2006

@<TRIPOS>MOLECULE
ASD01884630
  45   47    0    0    0
SMALL
NO_CHARGES


@<TRIPOS>ATOM
   1 C1            -0.0164     1.3576     0.0095 C.2     
   2 C2             0.0021    -0.0041     0.0020 C.2     
   3 C3             1.2440    -0.6751    -0.0134 C.2     
   4 C4             2.4024     0.0465    -0.0206 C.2     
   5 N5             2.3700     1.4024    -0.0130 N.am    
   6 C6             1.1986     2.0652     0.0017 C.2     
   7 O7             1.1911     3.2857     0.0083 O.2     
   8 C8             3.6266     2.1554    -0.0210 C.3     
   9 C9             1.2897    -2.1584    -0.0214 C.ar    
  10 C10            4.0439     2.4213    -1.4444 C.ar    
  11 C11            3.4596     3.4557    -2.1554 C.ar    
  12 C12            3.8436     3.6993    -3.4632 C.ar    
  13 C13            4.8103     2.9090    -4.0577 C.ar    
  14 C14            5.3933     1.8755    -3.3456 C.ar    
  15 C15            5.0140     1.6360    -2.0384 C.ar    
  16 Cl16           5.2921     3.2132    -5.6976 Cl      
  17 F17            2.5150     4.2267    -1.5736 F       
  18 C18            0.8124    -2.8774     1.0728 C.ar    
  19 C19            0.8563    -4.2560     1.0626 C.ar    
  20 C20            1.3756    -4.9271    -0.0359 C.ar    
  21 C21            1.8517    -4.2136    -1.1272 C.ar    
  22 C22            1.8048    -2.8351    -1.1254 C.ar    
  23 O23            1.4183    -6.2855    -0.0427 O.3     
  24 C24            0.2802    -6.9677    -0.5731 C.3     
  25 C25            2.4152    -4.9460    -2.3177 C.3     
  26 C26            0.3403    -5.0343     2.2454 C.3     
  27 H27           -0.9563     1.8895     0.0169 H       
  28 H28           -0.9217    -0.5635     0.0082 H       
  29 H29            3.3528    -0.4664    -0.0321 H       
  30 H30            3.4857     3.1028     0.4993 H       
  31 H31            4.4006     1.5761     0.4824 H       
  32 H32            3.3882     4.5057    -4.0187 H       
  33 H33            6.1482     1.2586    -3.8102 H       
  34 H34            5.4696     0.8292    -1.4835 H       
  35 H35            0.4089    -2.3558     1.9281 H       
  36 H36            2.1754    -2.2805    -1.9747 H       
  37 H37           -0.6040    -6.7054     0.0080 H       
  38 H38            0.1322    -6.6741    -1.6123 H       
  39 H39            0.4441    -8.0440    -0.5194 H       
  40 H40            1.6161    -5.1499    -3.0304 H       
  41 H41            3.1791    -4.3315    -2.7941 H       
  42 H42            2.8580    -5.8864    -1.9895 H       
  43 H43           -0.7192    -5.2486     2.1052 H       
  44 H44            0.8918    -5.9704     2.3329 H       
  45 H45            0.4751    -4.4470     3.1537 H       
@<TRIPOS>BOND
   1    1    2 2
   2    1    6 1
   3    1   27 1
   4    2    3 1
   5    2   28 1
   6    3    4 2
   7    3    9 1
   8    4    5 1
   9    4   29 1
  10    5    6 am
  11    5    8 1
  12    6    7 2
  13    8   10 1
  14    8   30 1
  15    8   31 1
  16    9   18 ar
  17    9   22 ar
  18   10   11 ar
  19   10   15 ar
  20   11   12 ar
  21   11   17 1
  22   12   13 ar
  23   12   32 1
  24   13   14 ar
  25   13   16 1
  26   14   15 ar
  27   14   33 1
  28   15   34 1
  29   18   19 ar
  30   18   35 1
  31   19   20 ar
  32   19   26 1
  33   20   21 ar
  34   20   23 1
  35   21   22 ar
  36   21   25 1
  37   22   36 1
  38   23   24 1
  39   24   37 1
  40   24   38 1
  41   24   39 1
  42   25   40 1
  43   25   41 1
  44   25   42 1
  45   26   43 1
  46   26   44 1
  47   26   45 1

#	End of record

