#	Name: ASD03090029
#	Creating user name:	WinNT
#	Creation time:	15. 06. 2019 20:28

#	Modifying user name:	WinNT
#	Modification time:	15. 06. 2019 20:28

#	Program:	/corina/corina34_cracker 3.40 0067  02.08.2006

@<TRIPOS>MOLECULE
ASD03090029
 101  106    0    0    0
SMALL
NO_CHARGES


@<TRIPOS>ATOM
   1 C1             5.3826    -3.7914    -2.9177 C.3     
   2 C2             4.3902    -3.4133    -1.8144 C.3     
   3 C3             5.1336    -3.3090    -0.4810 C.3     
   4 N4             5.7551    -4.5997    -0.1609 N.4     
   5 C5             6.7598    -4.9344    -1.1773 C.3     
   6 C6             6.0789    -5.1013    -2.5375 C.3     
   7 C7             6.4003    -4.5173     1.1536 C.3     
   8 C8             5.3596    -4.4934     2.2621 C.3     
   9 C9             4.7175    -3.1111     2.4036 C.3     
  10 C10            5.8270    -2.1006     2.6968 C.3     
  11 C11            6.7718    -2.0148     1.4982 C.3     
  12 C12            7.3971    -3.3721     1.2213 C.3     
  13 C13            5.2491    -0.7423     3.0684 C.3     
  14 C14            6.3888     0.2313     3.4181 C.3     
  15 C15            7.7056    -0.5160     3.2597 C.3     
  16 C16            7.8569    -0.9770     1.8062 C.3     
  17 C17            8.9243     0.2210     3.7097 C.3     
  18 C18            9.7703     0.7701     2.5443 C.3     
  19 C19           10.2906    -0.3498     1.6783 C.3     
  20 C20            9.2670    -1.4937     1.5784 C.3     
  21 C21            8.7219     1.4750     4.5730 C.3     
  22 C22           10.1407     2.1097     4.5605 C.3     
  23 C23           10.8653     1.5392     3.3169 C.3     
  24 N24           10.0438     3.5731     4.4766 N.4     
  25 C25           11.3919     4.1534     4.4991 C.3     
  26 C26           11.2941     5.6804     4.4936 C.3     
  27 C27           10.5621     6.1351     3.2277 C.3     
  28 C28            9.1858     5.4653     3.1773 C.3     
  29 C29            9.3617     3.9462     3.2316 C.3     
  30 C30            9.2758     4.0780     5.6225 C.3     
  31 O31           11.3816     2.6121     2.4919 O.3     
  32 C32           12.6913     2.5799     2.1997 C.2     
  33 C33           13.3223     3.7191     1.4413 C.3     
  34 O34           13.3643     1.6376     2.5447 O.2     
  35 C35            9.0201     1.8036     1.7026 C.3     
  36 C36            6.0158    -1.5152     0.2607 C.3     
  37 C37            4.7230    -5.6446    -0.1319 C.3     
  38 O38            4.3218    -5.4722     1.9748 O.3     
  39 C39            3.7058    -6.0338     3.0269 C.2     
  40 C40            2.6205    -7.0561     2.8071 C.3     
  41 O41            4.0213    -5.7197     4.1501 O.2     
  42 H42            4.8487    -3.9224    -3.8590 H       
  43 H43            6.1259    -3.0016    -3.0258 H       
  44 H44            3.9310    -2.4535    -2.0512 H       
  45 H45            3.6178    -4.1790    -1.7415 H       
  46 H46            5.9055    -2.5430    -0.5549 H       
  47 H47            4.4300    -3.0397     0.3067 H       
  48 H48            7.4970    -4.1338    -1.2364 H       
  49 H49            7.2567    -5.8652    -0.9036 H       
  50 H50            5.3415    -5.9020    -2.4796 H       
  51 H51            6.8267    -5.3481    -3.2911 H       
  52 H52            6.9794    -5.4591     1.2742 H       
  53 H53            5.8377    -4.7600     3.2108 H       
  54 H54            4.1634    -2.8513     1.5119 H       
  55 H55            4.0296    -3.1312     3.2571 H       
  56 H56            6.3914    -2.4907     3.5577 H       
  57 H57            8.1305    -3.5921     2.0104 H       
  58 H58            7.9492    -3.3229     0.2725 H       
  59 H59            4.6549    -0.3330     2.2568 H       
  60 H60            4.6090    -0.8528     3.9498 H       
  61 H61            6.3524     1.0868     2.7473 H       
  62 H62            6.2726     0.5623     4.4501 H       
  63 H63            7.6449    -1.4287     3.8864 H       
  64 H64            7.6609    -0.1416     1.1284 H       
  65 H65            9.5572    -0.4821     4.2967 H       
  66 H66           10.5134     0.0310     0.6743 H       
  67 H67           11.2256    -0.7380     2.1046 H       
  68 H68            9.5045    -2.2493     2.3336 H       
  69 H69            9.3406    -1.9568     0.5908 H       
  70 H70            7.9826     2.1453     4.1486 H       
  71 H71            8.4426     1.1915     5.5902 H       
  72 H72           10.6775     1.8247     5.4669 H       
  73 H73           11.6543     0.8555     3.6110 H       
  74 H74           11.9127     3.8263     5.3989 H       
  75 H75           11.9443     3.8219     3.6198 H       
  76 H76           10.7420     6.0130     5.3726 H       
  77 H77           12.2961     6.1093     4.5085 H       
  78 H78           10.4399     7.2181     3.2463 H       
  79 H79           11.1398     5.8474     2.3493 H       
  80 H80            8.5900     5.7934     4.0290 H       
  81 H81            8.6808     5.7404     2.2514 H       
  82 H82            9.9574     3.6192     2.3793 H       
  83 H83            8.3837     3.4662     3.1957 H       
  84 H84            9.8217     3.8747     6.5437 H       
  85 H85            9.1295     5.1530     5.5166 H       
  86 H86            8.3063     3.5811     5.6574 H       
  87 H87           13.6840     4.4682     2.1456 H       
  88 H88           14.1572     3.3434     0.8497 H       
  89 H89           12.5821     4.1695     0.7800 H       
  90 H90            8.3354     2.3633     2.3398 H       
  91 H91            9.7347     2.4890     1.2470 H       
  92 H92            8.4554     1.2951     0.9211 H       
  93 H93            5.8397    -0.4433     0.3507 H       
  94 H94            6.6095    -1.7122    -0.6319 H       
  95 H95            5.0608    -2.0350     0.1839 H       
  96 H96            4.3851    -5.8498    -1.1477 H       
  97 H97            5.1383    -6.5535     0.3034 H       
  98 H98            3.8798    -5.3058     0.4701 H       
  99 H99            2.4762    -7.2085     1.7375 H       
 100 H100           2.9093    -7.9984     3.2727 H       
 101 H101           1.6911    -6.7007     3.2521 H       
@<TRIPOS>BOND
   1    1    2 1
   2    1    6 1
   3    1   42 1
   4    1   43 1
   5    2    3 1
   6    2   44 1
   7    2   45 1
   8    3    4 1
   9    3   46 1
  10    3   47 1
  11    4    5 1
  12    4   37 1
  13    4    7 1
  14    5    6 1
  15    5   48 1
  16    5   49 1
  17    6   50 1
  18    6   51 1
  19    7    8 1
  20    7   12 1
  21    7   52 1
  22    8    9 1
  23    8   38 1
  24    8   53 1
  25    9   10 1
  26    9   54 1
  27    9   55 1
  28   10   11 1
  29   10   13 1
  30   10   56 1
  31   11   12 1
  32   11   36 1
  33   11   16 1
  34   12   57 1
  35   12   58 1
  36   13   14 1
  37   13   59 1
  38   13   60 1
  39   14   15 1
  40   14   61 1
  41   14   62 1
  42   15   16 1
  43   15   17 1
  44   15   63 1
  45   16   20 1
  46   16   64 1
  47   17   18 1
  48   17   21 1
  49   17   65 1
  50   18   19 1
  51   18   35 1
  52   18   23 1
  53   19   20 1
  54   19   66 1
  55   19   67 1
  56   20   68 1
  57   20   69 1
  58   21   22 1
  59   21   70 1
  60   21   71 1
  61   22   23 1
  62   22   24 1
  63   22   72 1
  64   23   31 1
  65   23   73 1
  66   24   25 1
  67   24   30 1
  68   24   29 1
  69   25   26 1
  70   25   74 1
  71   25   75 1
  72   26   27 1
  73   26   76 1
  74   26   77 1
  75   27   28 1
  76   27   78 1
  77   27   79 1
  78   28   29 1
  79   28   80 1
  80   28   81 1
  81   29   82 1
  82   29   83 1
  83   30   84 1
  84   30   85 1
  85   30   86 1
  86   31   32 1
  87   32   33 1
  88   32   34 2
  89   33   87 1
  90   33   88 1
  91   33   89 1
  92   35   90 1
  93   35   91 1
  94   35   92 1
  95   36   93 1
  96   36   94 1
  97   36   95 1
  98   37   96 1
  99   37   97 1
 100   37   98 1
 101   38   39 1
 102   39   40 1
 103   39   41 2
 104   40   99 1
 105   40  100 1
 106   40  101 1

#	End of record

