#	Name: ASD02030176
#	Creating user name:	WinNT
#	Creation time:	15. 06. 2019 20:14

#	Modifying user name:	WinNT
#	Modification time:	15. 06. 2019 20:14

#	Program:	/corina/corina34_cracker 3.40 0067  02.08.2006

@<TRIPOS>MOLECULE
ASD02030176
  65   69    0    0    0
SMALL
NO_CHARGES


@<TRIPOS>ATOM
   1 N1            -0.1864     1.7495    -0.2372 N.am    
   2 C2            -0.2372     0.2836    -0.3296 C.3     
   3 C3            -1.0377    -0.2552     0.8625 C.3     
   4 N4            -2.2993     0.4926     0.9574 N.am    
   5 C5            -2.2486     1.9585     1.0498 C.3     
   6 C6            -1.4478     2.4969    -0.1366 C.3     
   7 C7             0.9959     2.3964    -0.2390 C.2     
   8 C8             2.2586     1.6287    -0.1943 C.2     
   9 N9             3.4662     2.1329    -0.0593 N.2     
  10 N10            2.3747     0.2907    -0.2787 N.2     
  11 C11            3.6494     0.0052    -0.1995 C.2     
  12 N12            4.3198     1.1676    -0.0624 N.pl3   
  13 O13            1.0241     3.6110    -0.2773 O.2     
  14 C14           -3.4817    -0.1543     0.9592 C.2     
  15 C15           -3.5158    -1.6354     0.9351 C.ar    
  16 O16           -4.5197     0.4771     0.9807 O.2     
  17 C17           -1.1505     3.9825     0.0764 C.3     
  18 C18           -2.2509     2.3100    -1.4254 C.3     
  19 N19           -2.4201    -2.3238     1.2297 N.ar    
  20 C20           -2.4080    -3.6389     1.2204 C.ar    
  21 C21           -3.5477    -4.3587     0.8997 C.ar    
  22 C22           -4.7145    -3.6794     0.5855 C.ar    
  23 C23           -4.6994    -2.2937     0.6090 C.ar    
  24 C24            5.7097     1.3027     0.0561 C.ar    
  25 C25            6.2770     2.5630     0.1922 C.ar    
  26 C26            6.5213     0.1767     0.0434 C.ar    
  27 C27            7.8921     0.3134     0.1605 C.ar    
  28 C28            8.4543     1.5711     0.2902 C.ar    
  29 C29            7.6469     2.6936     0.3088 C.ar    
  30 C30           -1.1371    -4.3729     1.5626 C.3     
  31 Cl31           8.9086    -1.0938     0.1453 Cl      
  32 C32           -1.1450    -4.7457     3.0483 C.3     
  33 C33            0.1120    -5.5587     3.3691 C.3     
  34 O34            0.1528    -6.7189     2.5358 O.3     
  35 C35            0.2092    -6.4311     1.1372 C.3     
  36 C36           -1.0438    -5.6531     0.7268 C.3     
  37 H37           -0.7253    -0.0076    -1.2597 H       
  38 H38            0.7751    -0.1199    -0.3028 H       
  39 H39           -1.2503    -1.3136     0.7120 H       
  40 H40           -0.4634    -0.1215     1.7792 H       
  41 H41           -3.2608     2.3620     1.0231 H       
  42 H42           -1.7605     2.2497     1.9799 H       
  43 H43            4.0854    -0.9823    -0.2345 H       
  44 H44           -0.4023     4.0945     0.8611 H       
  45 H45           -0.7723     4.4139    -0.8505 H       
  46 H46           -2.0651     4.4976     0.3702 H       
  47 H47           -3.1931     2.8526    -1.3483 H       
  48 H48           -1.6782     2.6944    -2.2694 H       
  49 H49           -2.4537     1.2497    -1.5766 H       
  50 H50           -3.5271    -5.4385     0.8942 H       
  51 H51           -5.6158    -4.2177     0.3318 H       
  52 H52           -5.5904    -1.7322     0.3696 H       
  53 H53            5.6474     3.4403     0.2066 H       
  54 H54            6.0825    -0.8049    -0.0575 H       
  55 H55            9.5253     1.6760     0.3815 H       
  56 H56            8.0885     3.6740     0.4102 H       
  57 H57           -0.2792    -3.7346     1.3514 H       
  58 H58           -1.1554    -3.8379     3.6516 H       
  59 H59           -2.0305    -5.3415     3.2697 H       
  60 H60            0.9963    -4.9483     3.1859 H       
  61 H61            0.0907    -5.8632     4.4155 H       
  62 H62            1.0947    -5.8321     0.9248 H       
  63 H63            0.2580    -7.3641     0.5757 H       
  64 H64           -1.9273    -6.2673     0.9013 H       
  65 H65           -0.9820    -5.3943    -0.3302 H       
@<TRIPOS>BOND
   1    1    2 1
   2    1    7 am
   3    1    6 1
   4    2    3 1
   5    2   37 1
   6    2   38 1
   7    3    4 1
   8    3   39 1
   9    3   40 1
  10    4    5 1
  11    4   14 am
  12    5    6 1
  13    5   41 1
  14    5   42 1
  15    6   17 1
  16    6   18 1
  17    7    8 1
  18    7   13 2
  19    8    9 2
  20    8   10 1
  21    9   12 1
  22   10   11 2
  23   11   12 1
  24   11   43 1
  25   12   24 1
  26   14   15 1
  27   14   16 2
  28   15   19 ar
  29   15   23 ar
  30   17   44 1
  31   17   45 1
  32   17   46 1
  33   18   47 1
  34   18   48 1
  35   18   49 1
  36   19   20 ar
  37   20   21 ar
  38   20   30 1
  39   21   22 ar
  40   21   50 1
  41   22   23 ar
  42   22   51 1
  43   23   52 1
  44   24   25 ar
  45   24   26 ar
  46   25   29 ar
  47   25   53 1
  48   26   27 ar
  49   26   54 1
  50   27   28 ar
  51   27   31 1
  52   28   29 ar
  53   28   55 1
  54   29   56 1
  55   30   32 1
  56   30   36 1
  57   30   57 1
  58   32   33 1
  59   32   58 1
  60   32   59 1
  61   33   34 1
  62   33   60 1
  63   33   61 1
  64   34   35 1
  65   35   36 1
  66   35   62 1
  67   35   63 1
  68   36   64 1
  69   36   65 1

#	End of record

