#	Name: ASD01901245
#	Creating user name:	WinNT
#	Creation time:	15. 06. 2019 19:53

#	Modifying user name:	WinNT
#	Modification time:	15. 06. 2019 19:53

#	Program:	/corina/corina34_cracker 3.40 0067  02.08.2006

@<TRIPOS>MOLECULE
ASD01901245
  46   49    0    0    0
SMALL
NO_CHARGES


@<TRIPOS>ATOM
   1 C1             1.7154     1.0827     0.3022 C.ar    
   2 C2             1.9625    -0.2732     0.3524 C.ar    
   3 C3             3.2629    -0.7407     0.4252 C.ar    
   4 C4             4.3244     0.1469     0.4476 C.ar    
   5 C5             4.0927     1.5055     0.3975 C.ar    
   6 C6             2.7822     1.9851     0.3244 C.ar    
   7 C7             2.5336     3.3944     0.2721 C.1     
   8 C8             2.3299     4.5498     0.2292 C.1     
   9 C9             2.0814     5.9591     0.1769 C.ar    
  10 C10            0.5336     7.7957     0.0594 C.ar    
  11 C11            0.7695     6.4371     0.1092 C.ar    
  12 C12            3.1498     6.8602     0.1992 C.ar    
  13 C13            2.9066     8.2176     0.1491 C.ar    
  14 C14            1.5998     8.6897     0.0764 C.ar    
  15 F15           -0.7340     8.2585    -0.0061 F       
  16 N16            1.3567    10.0679     0.0253 N.am    
  17 C17            1.1922    10.7641     1.1655 C.2     
  18 C18            0.8712    12.8438    -0.1938 C.ar    
  19 N19            1.0573    12.0225    -1.2915 N.am    
  20 C20            1.2880    10.6940    -1.1508 C.2     
  21 C21            0.9378    12.2137     1.0766 C.ar    
  22 C22            1.0324    12.4614    -2.6907 C.3     
  23 O23            1.4400    10.0438    -2.1696 O.2     
  24 O24            1.2513    10.2113     2.2486 O.2     
  25 C25            0.6279    14.2055    -0.2058 C.ar    
  26 C26            0.7687    12.9299     2.2604 C.ar    
  27 C27            0.5295    14.2829     2.2130 C.ar    
  28 C28            0.4613    14.9067     0.9850 C.ar    
  29 F29            3.9387     9.0892     0.1711 F       
  30 C30            0.5160    15.0616    -1.4440 C.3     
  31 H31            0.7002     1.4461     0.2413 H       
  32 H32            1.1391    -0.9718     0.3354 H       
  33 H33            3.4503    -1.8036     0.4650 H       
  34 H34            5.3366    -0.2253     0.5048 H       
  35 H35            4.9221     2.1971     0.4154 H       
  36 H36           -0.0585     5.7438     0.0955 H       
  37 H37            4.1644     6.4945     0.2560 H       
  38 H38            1.8697    13.1343    -2.8755 H       
  39 H39            1.1124    11.5935    -3.3452 H       
  40 H40            0.0963    12.9826    -2.8913 H       
  41 H41            0.8263    12.4202     3.2124 H       
  42 H42            0.3973    14.8458     3.1240 H       
  43 H43            0.2732    15.9711     0.9313 H       
  44 H44           -0.5020    15.0106    -1.8302 H       
  45 H45            0.7586    16.0946    -1.1947 H       
  46 H46            1.2105    14.6978    -2.2012 H       
@<TRIPOS>BOND
   1    1    2 ar
   2    1    6 ar
   3    1   31 1
   4    2    3 ar
   5    2   32 1
   6    3    4 ar
   7    3   33 1
   8    4    5 ar
   9    4   34 1
  10    5    6 ar
  11    5   35 1
  12    6    7 1
  13    7    8 3
  14    8    9 1
  15    9   12 ar
  16    9   11 ar
  17   10   11 ar
  18   10   14 ar
  19   10   15 1
  20   11   36 1
  21   12   13 ar
  22   12   37 1
  23   13   14 ar
  24   13   29 1
  25   14   16 1
  26   16   17 am
  27   16   20 am
  28   17   21 1
  29   17   24 2
  30   18   19 1
  31   18   21 ar
  32   18   25 ar
  33   19   20 am
  34   19   22 1
  35   20   23 2
  36   21   26 ar
  37   22   38 1
  38   22   39 1
  39   22   40 1
  40   25   28 ar
  41   25   30 1
  42   26   27 ar
  43   26   41 1
  44   27   28 ar
  45   27   42 1
  46   28   43 1
  47   30   44 1
  48   30   45 1
  49   30   46 1

#	End of record

