#	Name: ASD04882433
#	Creating user name:	WinNT
#	Creation time:	15. 06. 2019 20:54

#	Modifying user name:	WinNT
#	Modification time:	15. 06. 2019 20:54

#	Program:	/corina/corina34_cracker 3.40 0067  02.08.2006

@<TRIPOS>MOLECULE
ASD04882433
  88   93    0    0    0
SMALL
NO_CHARGES


@<TRIPOS>ATOM
   1 C1             0.6049     1.1442    -0.1545 C.ar    
   2 C2             0.7097    -0.2489    -0.1948 C.ar    
   3 C3            -0.4368    -1.0326    -0.2572 C.ar    
   4 C4            -1.6796    -0.4396    -0.2800 C.ar    
   5 C5            -1.7915     0.9531    -0.2404 C.ar    
   6 C6            -0.6406     1.7431    -0.1710 C.ar    
   7 N7             1.9643    -0.8527    -0.1728 N.3     
   8 C8             2.1033    -1.7360     0.9934 C.3     
   9 C9             2.2168    -1.5880    -1.4199 C.3     
  10 C10            3.6325    -2.1686    -1.3889 C.3     
  11 N11            3.7715    -3.0519    -0.2228 N.3     
  12 C12            3.5190    -2.3166     1.0243 C.3     
  13 C13           -3.1229     1.5881    -0.2658 C.2     
  14 O14           -3.2193     2.7998    -0.2314 O.2     
  15 N15           -4.2323     0.8253    -0.3272 N.am    
  16 N16            1.7614     1.9328    -0.0916 N.am    
  17 C17            1.7084     3.1644     0.4532 C.2     
  18 O18            0.6433     3.6202     0.8236 O.2     
  19 C19            2.9412     3.9589     0.6003 C.2     
  20 N20            4.1955     3.5804     0.2331 N.2     
  21 C21            5.0174     4.5449     0.5204 C.2     
  22 O22            4.3344     5.5580     1.0718 O.3     
  23 C23            3.0383     5.2116     1.1236 C.2     
  24 C24            6.5040     4.5270     0.2736 C.3     
  25 C25            5.0299    -3.6576    -0.2007 C.ar    
  26 C26            5.1370    -5.0418    -0.2407 C.ar    
  27 C27            6.1776    -2.8766    -0.1446 C.ar    
  28 C28            7.4201    -3.4786    -0.1229 C.ar    
  29 C29            7.5229    -4.8574    -0.1575 C.ar    
  30 C30            6.3830    -5.6375    -0.2187 C.ar    
  31 C31            3.8951    -5.8928    -0.3074 C.3     
  32 C32            7.0806     5.6059    -0.6454 C.3     
  33 C33            7.3317     5.6711     0.8625 C.3     
  34 C34           -5.5544     1.4559    -0.3524 C.3     
  35 C35           -6.6342     0.3742    -0.4227 C.3     
  36 C36           -8.0149     1.0328    -0.4490 C.3     
  37 N37           -9.0488    -0.0029    -0.5164 N.am    
  38 C38          -10.3504     0.3453    -0.5497 C.2     
  39 N39          -11.3015    -0.6076    -0.6116 N.am    
  40 O40          -10.6665     1.5191    -0.5238 O.2     
  41 C41          -12.6535    -0.2517    -0.5495 C.ar    
  42 C42          -13.0887     0.9326    -1.1296 C.ar    
  43 C43          -13.5638    -1.0850     0.0872 C.ar    
  44 C44          -14.8976    -0.7312     0.1463 C.ar    
  45 C45          -15.3269     0.4511    -0.4281 C.ar    
  46 C46          -14.4237     1.2807    -1.0670 C.ar    
  47 C47          -16.7830     0.8338    -0.3622 C.3     
  48 F48          -17.0161     1.5838     0.7956 F       
  49 F49          -17.1161     1.5964    -1.4867 F       
  50 F50          -17.5685    -0.3235    -0.3341 F       
  51 H51           -0.3528    -2.1089    -0.2882 H       
  52 H52           -2.5684    -1.0511    -0.3289 H       
  53 H53           -0.7240     2.8194    -0.1399 H       
  54 H54            1.9241    -1.1658     1.9049 H       
  55 H55            1.3789    -2.5475     0.9233 H       
  56 H56            1.4937    -2.3977    -1.5174 H       
  57 H57            2.1203    -0.9098    -2.2678 H       
  58 H58            3.8117    -2.7388    -2.3005 H       
  59 H59            4.3569    -1.3571    -1.3189 H       
  60 H60            4.2421    -1.5069     1.1218 H       
  61 H61            3.6155    -2.9948     1.8722 H       
  62 H62           -4.1554    -0.1412    -0.3547 H       
  63 H63            2.6001     1.5924    -0.4403 H       
  64 H64            2.2280     5.8102     1.5127 H       
  65 H65            6.9630     3.5389     0.2396 H       
  66 H66            6.0980    -1.7998    -0.1183 H       
  67 H67            8.3126    -2.8720    -0.0792 H       
  68 H68            8.4960    -5.3256    -0.1411 H       
  69 H69            6.4668    -6.7139    -0.2455 H       
  70 H70            3.6288    -6.0658    -1.3501 H       
  71 H71            4.0824    -6.8480     0.1831 H       
  72 H72            3.0758    -5.3801     0.1966 H       
  73 H73            7.9192     5.3277    -1.2837 H       
  74 H74            6.3847     6.3286    -1.0714 H       
  75 H75            6.8011     6.4367     1.4284 H       
  76 H76            8.3355     5.4359     1.2161 H       
  77 H77           -5.6918     2.0482     0.5523 H       
  78 H78           -5.6315     2.1035    -1.2258 H       
  79 H79           -6.4968    -0.2180    -1.3274 H       
  80 H80           -6.5571    -0.2734     0.4507 H       
  81 H81           -8.1523     1.6251     0.4557 H       
  82 H82           -8.0920     1.6804    -1.3224 H       
  83 H83           -8.7966    -0.9393    -0.5370 H       
  84 H84          -11.0489    -1.5400    -0.6992 H       
  85 H85          -12.3838     1.5809    -1.6288 H       
  86 H86          -13.2292    -2.0089     0.5354 H       
  87 H87          -15.6060    -1.3788     0.6414 H       
  88 H88          -14.7621     2.2036    -1.5144 H       
@<TRIPOS>BOND
   1    1    2 ar
   2    1   16 1
   3    1    6 ar
   4    2    3 ar
   5    2    7 1
   6    3    4 ar
   7    3   51 1
   8    4    5 ar
   9    4   52 1
  10    5    6 ar
  11    5   13 1
  12    6   53 1
  13    7    8 1
  14    7    9 1
  15    8   12 1
  16    8   54 1
  17    8   55 1
  18    9   10 1
  19    9   56 1
  20    9   57 1
  21   10   11 1
  22   10   58 1
  23   10   59 1
  24   11   12 1
  25   11   25 1
  26   12   60 1
  27   12   61 1
  28   13   14 2
  29   13   15 am
  30   15   34 1
  31   15   62 1
  32   16   17 am
  33   16   63 1
  34   17   18 2
  35   17   19 1
  36   19   20 1
  37   19   23 2
  38   20   21 2
  39   21   22 1
  40   21   24 1
  41   22   23 1
  42   23   64 1
  43   24   32 1
  44   24   33 1
  45   24   65 1
  46   25   26 ar
  47   25   27 ar
  48   26   31 1
  49   26   30 ar
  50   27   28 ar
  51   27   66 1
  52   28   29 ar
  53   28   67 1
  54   29   30 ar
  55   29   68 1
  56   30   69 1
  57   31   70 1
  58   31   71 1
  59   31   72 1
  60   32   33 1
  61   32   73 1
  62   32   74 1
  63   33   75 1
  64   33   76 1
  65   34   35 1
  66   34   77 1
  67   34   78 1
  68   35   36 1
  69   35   79 1
  70   35   80 1
  71   36   37 1
  72   36   81 1
  73   36   82 1
  74   37   38 am
  75   37   83 1
  76   38   39 am
  77   38   40 2
  78   39   41 1
  79   39   84 1
  80   41   42 ar
  81   41   43 ar
  82   42   46 ar
  83   42   85 1
  84   43   44 ar
  85   43   86 1
  86   44   45 ar
  87   44   87 1
  88   45   46 ar
  89   45   47 1
  90   46   88 1
  91   47   48 1
  92   47   49 1
  93   47   50 1

#	End of record

