#	Name: ASD00071123
#	Creating user name:	WinNT
#	Creation time:	15. 06. 2019 18:30

#	Modifying user name:	WinNT
#	Modification time:	15. 06. 2019 18:30

#	Program:	/corina/corina34_cracker 3.40 0067  02.08.2006

@<TRIPOS>MOLECULE
ASD00071123
  41   43    0    0    0
SMALL
NO_CHARGES


@<TRIPOS>ATOM
   1 N1            -0.0157     1.3057     0.0092 N.2     
   2 C2             0.0021    -0.0041     0.0020 C.2     
   3 N3             1.1993    -0.6824     0.0313 N.pl3   
   4 C4             2.3736    -0.0685    -0.6068 C.3     
   5 C5             2.3611     1.4065    -0.2844 C.ar    
   6 C6             3.5326     2.1306    -0.2748 C.ar    
   7 C7             3.5051     3.4888     0.0119 C.ar    
   8 C8             2.2992     4.1183     0.2875 C.ar    
   9 C9             1.1230     3.3977     0.2845 C.ar    
  10 C10            1.1458     2.0308     0.0020 C.ar    
  11 N11           -1.1790    -0.7034    -0.0345 N.pl3   
  12 C12            1.3020    -1.9893     0.6854 C.3     
  13 C13            1.0051    -3.0765    -0.3151 C.ar    
  14 C14            1.9856    -3.4852    -1.2078 C.ar    
  15 C15            1.7092    -4.4861    -2.1275 C.ar    
  16 C16            0.4588    -5.0735    -2.1526 C.ar    
  17 C17           -0.5164    -4.6642    -1.2624 C.ar    
  18 C18           -0.2414    -3.6708    -0.3405 C.ar    
  19 O19            3.2145    -2.9055    -1.1814 O.3     
  20 C20            4.1744    -3.3764    -2.1295 C.3     
  21 O21            4.6618     4.2039     0.0223 O.3     
  22 C22            4.5608     5.5968     0.3251 C.3     
  23 H23            3.2845    -0.5231    -0.2175 H       
  24 H24            2.3226    -0.2101    -1.6864 H       
  25 H25            4.4717     1.6424    -0.4898 H       
  26 H26            2.2817     5.1759     0.5054 H       
  27 H27            0.1862     3.8902     0.4996 H       
  28 H28           -2.0240    -0.2276    -0.0549 H       
  29 H29           -1.1684    -1.6734    -0.0399 H       
  30 H30            2.3106    -2.1214     1.0769 H       
  31 H31            0.5845    -2.0432     1.5042 H       
  32 H32            2.4705    -4.8057    -2.8236 H       
  33 H33            0.2431    -5.8528    -2.8685 H       
  34 H34           -1.4934    -5.1241    -1.2841 H       
  35 H35           -1.0035    -3.3561     0.3571 H       
  36 H36            4.3491    -4.4407    -1.9717 H       
  37 H37            3.7965    -3.2160    -3.1393 H       
  38 H38            5.1097    -2.8317    -2.0007 H       
  39 H39            3.9222     6.0835    -0.4121 H       
  40 H40            4.1299     5.7223     1.3184 H       
  41 H41            5.5532     6.0470     0.2999 H       
@<TRIPOS>BOND
   1    1    2 2
   2    1   10 1
   3    2    3 1
   4    2   11 1
   5    3    4 1
   6    3   12 1
   7    4    5 1
   8    4   23 1
   9    4   24 1
  10    5    6 ar
  11    5   10 ar
  12    6    7 ar
  13    6   25 1
  14    7    8 ar
  15    7   21 1
  16    8    9 ar
  17    8   26 1
  18    9   10 ar
  19    9   27 1
  20   11   28 1
  21   11   29 1
  22   12   13 1
  23   12   30 1
  24   12   31 1
  25   13   14 ar
  26   13   18 ar
  27   14   15 ar
  28   14   19 1
  29   15   16 ar
  30   15   32 1
  31   16   17 ar
  32   16   33 1
  33   17   18 ar
  34   17   34 1
  35   18   35 1
  36   19   20 1
  37   20   36 1
  38   20   37 1
  39   20   38 1
  40   21   22 1
  41   22   39 1
  42   22   40 1
  43   22   41 1

#	End of record

