#	Name: ASD04910157
#	Creating user name:	WinNT
#	Creation time:	15. 06. 2019 20:55

#	Modifying user name:	WinNT
#	Modification time:	15. 06. 2019 20:55

#	Program:	/corina/corina34_cracker 3.40 0067  02.08.2006

@<TRIPOS>MOLECULE
ASD04910157
  18   18    0    0    0
SMALL
NO_CHARGES


@<TRIPOS>ATOM
   1 C1            -0.0156     1.3008     0.0092 C.2     
   2 N2             0.0021    -0.0041     0.0020 N.2     
   3 C3             1.2741    -0.4291    -0.0124 C.2     
   4 C4             2.0751     0.6534    -0.0142 C.2     
   5 N5             1.2575     1.7511    -0.0005 N.pl3   
   6 C6             1.7275    -1.8663    -0.0240 C.3     
   7 C7             1.9876    -2.3074    -1.4658 C.3     
   8 C8             3.0155    -2.0013     0.7908 C.3     
   9 H9            -0.9017     1.9182     0.0169 H       
  10 H10            3.1551     0.6552    -0.0242 H       
  11 H11            1.5398     2.6791     0.0017 H       
  12 H12            0.9527    -2.4953     0.4142 H       
  13 H13            2.7624    -1.6784    -1.9040 H       
  14 H14            2.3155    -3.3468    -1.4742 H       
  15 H15            1.0700    -2.2112    -2.0463 H       
  16 H16            2.8302    -1.6870     1.8179 H       
  17 H17            3.3434    -3.0408     0.7824 H       
  18 H18            3.7903    -1.3723     0.3525 H       
@<TRIPOS>BOND
   1    1    2 2
   2    1    5 1
   3    1    9 1
   4    2    3 1
   5    3    4 2
   6    3    6 1
   7    4    5 1
   8    4   10 1
   9    5   11 1
  10    6    7 1
  11    6    8 1
  12    6   12 1
  13    7   13 1
  14    7   14 1
  15    7   15 1
  16    8   16 1
  17    8   17 1
  18    8   18 1

#	End of record

