#	Name: ASD00570016
#	Creating user name:	WinNT
#	Creation time:	15. 06. 2019 18:36

#	Modifying user name:	WinNT
#	Modification time:	15. 06. 2019 18:36

#	Program:	/corina/corina34_cracker 3.40 0067  02.08.2006

@<TRIPOS>MOLECULE
ASD00570016
  86   94    0    0    0
SMALL
NO_CHARGES


@<TRIPOS>ATOM
   1 N1             7.1723     0.6930    -1.2341 Du      
   2 C2             5.5125     0.1692    -5.8761 C.ar    
   3 O3             7.5107     2.3321    -2.9217 O.2     
   4 Cl4           12.0883     1.5972     0.4871 Cl      
   5 Cl5           10.5568    -0.4206     2.6745 Cl      
   6 C6             4.9186    -1.0302    -5.5082 C.ar    
   7 N7             8.3133    -6.9513    -3.4554 N.3     
   8 C8             4.9837    -1.4768    -4.2070 C.ar    
   9 C9             5.6541    -0.7210    -3.2425 C.ar    
  10 C10            6.2776     0.4874    -3.6234 C.ar    
  11 C11            6.1888     0.9279    -4.9455 C.ar    
  12 C12            7.0239     1.2582    -2.6220 C.2     
  13 C13            6.8738    -7.2226    -3.5613 C.3     
  14 N14            5.6880    -1.1294    -1.9521 N.2     
  15 C15            6.3323    -0.5249    -1.0036 C.2     
  16 C16            8.1384     1.6726    -0.6487 C.2     
  17 C17            7.5454     0.8840     0.1984 C.2     
  18 C18            7.9136     2.9378    -0.3698 C.2     
  19 C19            6.8779     1.5684     1.1032 C.2     
  20 C20            8.9433     3.7469     0.3684 C.3     
  21 C21            7.4661     1.7841     2.4694 C.3     
  22 C22            9.6837     2.8337     1.3440 C.3     
  23 C23            8.9823     1.9193     2.3406 C.3     
  24 C24           10.2942     1.6176     0.6396 C.3     
  25 C25            9.5974     0.7008     1.6453 C.3     
  26 C26            9.4817     1.0082    -0.5060 C.3     
  27 C27            8.7924     0.0926     0.4940 C.3     
  28 C28            5.2421    -2.6778     0.2970 C.3     
  29 C29            6.1330    -3.7029    -0.3560 C.2     
  30 C30            4.6948    -3.2403     1.6103 C.3     
  31 C31            6.4478    -4.7732    -3.7983 C.3     
  32 O32            7.3380    -3.5716    -0.3177 O.2     
  33 C33            7.9589    -4.5406    -3.7115 C.3     
  34 N34            5.5906    -4.7658    -0.9827 N.am    
  35 C35            3.6251    -2.2963     2.1630 C.3     
  36 C36            2.9877    -2.9198     3.4064 C.3     
  37 C37            1.8393    -2.0322     3.8904 C.3     
  38 C38            4.1335    -4.8850    -1.1299 C.3     
  39 C39            3.8028    -5.1002    -2.6101 C.3     
  40 C40            4.5878    -6.3052    -3.1341 C.3     
  41 C41            6.0877    -6.0330    -3.0072 C.3     
  42 C42            6.4449    -5.8274    -1.5323 C.3     
  43 C43            8.6911    -5.7733    -4.2467 C.3     
  44 S44            6.1960    -1.1770     0.6345 S.3     
  45 H45            6.2958     1.4081    -1.1112 H       
  46 H46            5.4364     0.5075    -6.9017 H       
  47 H47            4.4017    -1.6185    -6.2548 H       
  48 H48            8.5911    -6.8436    -2.4914 H       
  49 H49            4.5203    -2.4113    -3.9273 H       
  50 H50            6.6501     1.8625    -5.2271 H       
  51 H51            6.6093    -7.3772    -4.6073 H       
  52 H52            6.6298    -8.1175    -2.9889 H       
  53 H53            6.9820     3.3957    -0.6784 H       
  54 H54            5.9059     1.9687     0.8570 H       
  55 H55            9.6568     4.1716    -0.3381 H       
  56 H56            8.4561     4.5482     0.9216 H       
  57 H57            7.0580     2.6912     2.9064 H       
  58 H58            7.2355     0.9286     3.1052 H       
  59 H59           10.4751     3.4180     1.8540 H       
  60 H60            9.4181     2.0428     3.3513 H       
  61 H61            9.9585     0.6014    -1.3479 H       
  62 H62            8.7969    -0.9471     0.3257 H       
  63 H63            4.4133    -2.4393    -0.3696 H       
  64 H64            4.2554    -4.2215     1.4302 H       
  65 H65            5.5062    -3.3325     2.3323 H       
  66 H66            5.9225    -3.9160    -3.3773 H       
  67 H67            6.1585    -4.9028    -4.8412 H       
  68 H68            8.2280    -3.6695    -4.3091 H       
  69 H69            8.2421    -4.3715    -2.6726 H       
  70 H70            4.0834    -1.3436     2.4287 H       
  71 H71            2.8588    -2.1321     1.4054 H       
  72 H72            2.6031    -3.9095     3.1599 H       
  73 H73            3.7365    -3.0067     4.1937 H       
  74 H74            1.4415    -2.4298     4.8240 H       
  75 H75            2.2072    -1.0194     4.0543 H       
  76 H76            1.0512    -2.0152     3.1376 H       
  77 H77            3.7759    -5.7346    -0.5483 H       
  78 H78            3.6548    -3.9712    -0.7778 H       
  79 H79            2.7345    -5.2859    -2.7209 H       
  80 H80            4.0789    -4.2115    -3.1775 H       
  81 H81            4.3284    -7.1889    -2.5512 H       
  82 H82            4.3368    -6.4745    -4.1812 H       
  83 H83            7.4915    -5.5351    -1.4470 H       
  84 H84            6.2760    -6.7535    -0.9828 H       
  85 H85            9.7673    -5.6166    -4.1735 H       
  86 H86            8.4179    -5.9336    -5.2896 H       
@<TRIPOS>BOND
   1    1   12 1
   2    1   15 1
   3    1   16 1
   4    1   17 1
   5    1   45 1
   6    2    6 ar
   7    2   11 ar
   8    2   46 1
   9    3   12 2
  10    4   24 1
  11    5   25 1
  12    6    8 ar
  13    6   47 1
  14    7   13 1
  15    7   43 1
  16    7   48 1
  17    8    9 ar
  18    8   49 1
  19    9   10 ar
  20    9   14 1
  21   10   11 ar
  22   10   12 1
  23   11   50 1
  24   13   41 1
  25   13   51 1
  26   13   52 1
  27   14   15 2
  28   15   44 1
  29   16   18 2
  30   16   26 1
  31   17   19 2
  32   17   27 1
  33   18   20 1
  34   18   53 1
  35   19   21 1
  36   19   54 1
  37   20   22 1
  38   20   55 1
  39   20   56 1
  40   21   23 1
  41   21   57 1
  42   21   58 1
  43   22   24 1
  44   22   23 1
  45   22   59 1
  46   23   25 1
  47   23   60 1
  48   24   26 1
  49   24   25 1
  50   25   27 1
  51   26   27 1
  52   26   61 1
  53   27   62 1
  54   28   29 1
  55   28   30 1
  56   28   44 1
  57   28   63 1
  58   29   32 2
  59   29   34 am
  60   30   35 1
  61   30   64 1
  62   30   65 1
  63   31   33 1
  64   31   41 1
  65   31   66 1
  66   31   67 1
  67   33   43 1
  68   33   68 1
  69   33   69 1
  70   34   38 1
  71   34   42 1
  72   35   36 1
  73   35   70 1
  74   35   71 1
  75   36   37 1
  76   36   72 1
  77   36   73 1
  78   37   74 1
  79   37   75 1
  80   37   76 1
  81   38   39 1
  82   38   77 1
  83   38   78 1
  84   39   40 1
  85   39   79 1
  86   39   80 1
  87   40   41 1
  88   40   81 1
  89   40   82 1
  90   41   42 1
  91   42   83 1
  92   42   84 1
  93   43   85 1
  94   43   86 1

#	End of record

