#	Name: ASD04882285
#	Creating user name:	WinNT
#	Creation time:	15. 06. 2019 20:54

#	Modifying user name:	WinNT
#	Modification time:	15. 06. 2019 20:54

#	Program:	/corina/corina34_cracker 3.40 0067  02.08.2006

@<TRIPOS>MOLECULE
ASD04882285
  77   81    0    0    0
SMALL
NO_CHARGES


@<TRIPOS>ATOM
   1 N1            -0.0169     1.3967     0.0097 N.am    
   2 C2             0.1111     0.0023    -0.0345 C.ar    
   3 C3            -1.0254    -0.8073     0.0449 C.ar    
   4 C4            -0.8999    -2.1911     0.0007 C.ar    
   5 C5             0.3442    -2.7692    -0.1215 C.ar    
   6 C6             1.4848    -1.9654    -0.2015 C.ar    
   7 C7             1.3609    -0.5738    -0.1625 C.ar    
   8 N8            -2.2852    -0.2270     0.1690 N.3     
   9 C9            -3.1510    -0.6020    -0.9576 C.3     
  10 C10           -2.9073    -0.5879     1.4505 C.3     
  11 C11           -4.2518     0.1315     1.5823 C.3     
  12 N12           -5.1176    -0.2435     0.4557 N.3     
  13 C13           -4.4955     0.1174    -0.8258 C.3     
  14 C14            2.8173    -2.5850    -0.3319 C.2     
  15 O15            3.8092    -1.8850    -0.4013 O.2     
  16 C16            0.9202     2.1780    -0.5630 C.2     
  17 C17            0.7426     3.6332    -0.5938 C.2     
  18 O18            1.9138     1.6756    -1.0546 O.2     
  19 C19            1.6097     4.5360    -1.1394 C.2     
  20 O20           -0.3089     4.3143    -0.0932 O.3     
  21 C21           -0.1294     5.6251    -0.3015 C.2     
  22 C22            1.0448     5.8062    -0.9454 C.2     
  23 N23            2.9353    -3.9269    -0.3740 N.am    
  24 C24           -6.3812     0.3385     0.5802 C.ar    
  25 C25           -7.5123    -0.4637     0.6593 C.ar    
  26 C26           -6.5090     1.7210     0.6308 C.ar    
  27 C27           -7.7597     2.2931     0.7538 C.ar    
  28 C28           -8.8844     1.4915     0.8271 C.ar    
  29 C29           -8.7603     0.1152     0.7823 C.ar    
  30 C30           -7.3780    -1.9639     0.6105 C.3     
  31 C31            4.2586    -4.5422    -0.5036 C.3     
  32 C32            4.1128    -6.0650    -0.5271 C.3     
  33 C33            5.4784    -6.7041    -0.7871 C.3     
  34 N34            5.3203    -8.1537    -0.9284 N.am    
  35 C35            5.3832    -9.0265     0.0919 C.2     
  36 C36            5.0666    -8.8388    -2.2013 C.3     
  37 C37            4.5483   -10.2426    -1.8176 C.3     
  38 C38            5.1664   -10.4355    -0.4146 C.3     
  39 C39            3.5727    -6.5466     0.8209 C.3     
  40 O40            5.5851    -8.7280     1.2499 O.2     
  41 H41           -0.7820     1.7998     0.4490 H       
  42 H42           -1.7798    -2.8141     0.0626 H       
  43 H43            0.4384    -3.8445    -0.1553 H       
  44 H44            2.2405     0.0498    -0.2244 H       
  45 H45           -2.6744    -0.3133    -1.8944 H       
  46 H46           -3.3129    -1.6799    -0.9487 H       
  47 H47           -3.0665    -1.6656     1.4868 H       
  48 H48           -2.2530    -0.2888     2.2694 H       
  49 H49           -4.7284    -0.1572     2.5191 H       
  50 H50           -4.0899     1.2094     1.5734 H       
  51 H51           -4.3363     1.1951    -0.8620 H       
  52 H52           -5.1498    -0.1817    -1.6447 H       
  53 H53            2.5484     4.3155    -1.6259 H       
  54 H54           -0.8122     6.4082    -0.0064 H       
  55 H55            1.4690     6.7508    -1.2525 H       
  56 H56            2.1441    -4.4854    -0.3186 H       
  57 H57           -5.6311     2.3475     0.5744 H       
  58 H58           -7.8597     3.3677     0.7933 H       
  59 H59           -9.8614     1.9415     0.9240 H       
  60 H60           -9.6406    -0.5079     0.8397 H       
  61 H61           -7.2562    -2.3509     1.6222 H       
  62 H62           -8.2735    -2.3944     0.1623 H       
  63 H63           -6.5074    -2.2315     0.0118 H       
  64 H64            4.7258    -4.2075    -1.4298 H       
  65 H65            4.8797    -4.2497     0.3430 H       
  66 H66            3.4209    -6.3516    -1.3191 H       
  67 H67            5.9030    -6.2939    -1.7034 H       
  68 H68            6.1444    -6.4911     0.0490 H       
  69 H69            4.3112    -8.3016    -2.7748 H       
  70 H70            5.9893    -8.9214    -2.7757 H       
  71 H71            3.4596   -10.2560    -1.7667 H       
  72 H72            4.9141   -10.9972    -2.5139 H       
  73 H73            6.1160   -10.9659    -0.4858 H       
  74 H74            4.4762   -10.9726     0.2358 H       
  75 H75            4.2647    -6.2601     1.6129 H       
  76 H76            2.5998    -6.0913     1.0062 H       
  77 H77            3.4689    -7.6315     0.8041 H       
@<TRIPOS>BOND
   1    1    2 1
   2    1   16 am
   3    1   41 1
   4    2    3 ar
   5    2    7 ar
   6    3    4 ar
   7    3    8 1
   8    4    5 ar
   9    4   42 1
  10    5    6 ar
  11    5   43 1
  12    6    7 ar
  13    6   14 1
  14    7   44 1
  15    8    9 1
  16    8   10 1
  17    9   13 1
  18    9   45 1
  19    9   46 1
  20   10   11 1
  21   10   47 1
  22   10   48 1
  23   11   12 1
  24   11   49 1
  25   11   50 1
  26   12   13 1
  27   12   24 1
  28   13   51 1
  29   13   52 1
  30   14   15 2
  31   14   23 am
  32   16   18 2
  33   16   17 1
  34   17   19 2
  35   17   20 1
  36   19   22 1
  37   19   53 1
  38   20   21 1
  39   21   22 2
  40   21   54 1
  41   22   55 1
  42   23   31 1
  43   23   56 1
  44   24   25 ar
  45   24   26 ar
  46   25   30 1
  47   25   29 ar
  48   26   27 ar
  49   26   57 1
  50   27   28 ar
  51   27   58 1
  52   28   29 ar
  53   28   59 1
  54   29   60 1
  55   30   61 1
  56   30   62 1
  57   30   63 1
  58   31   32 1
  59   31   64 1
  60   31   65 1
  61   32   33 1
  62   32   39 1
  63   32   66 1
  64   33   34 1
  65   33   67 1
  66   33   68 1
  67   34   36 1
  68   34   35 am
  69   35   40 2
  70   35   38 1
  71   36   37 1
  72   36   69 1
  73   36   70 1
  74   37   38 1
  75   37   71 1
  76   37   72 1
  77   38   73 1
  78   38   74 1
  79   39   75 1
  80   39   76 1
  81   39   77 1

#	End of record

