#	Name: ASD01916174
#	Creating user name:	WinNT
#	Creation time:	15. 06. 2019 20:06

#	Modifying user name:	WinNT
#	Modification time:	15. 06. 2019 20:06

#	Program:	/corina/corina34_cracker 3.40 0067  02.08.2006

@<TRIPOS>MOLECULE
ASD01916174
  44   47    0    0    0
SMALL
NO_CHARGES


@<TRIPOS>ATOM
   1 C1             0.0124     1.3787     0.0671 C.ar    
   2 C2             0.0259    -0.0025     0.0481 C.ar    
   3 C3             1.2347    -0.6832     0.0428 C.ar    
   4 C4             2.4272     0.0255     0.0565 C.ar    
   5 C5             2.4084     1.4067     0.0755 C.ar    
   6 C6             1.2023     2.0827     0.0809 C.ar    
   7 O7             1.2506    -2.0420     0.0245 O.3     
   8 C8             2.5314    -2.6758     0.0201 C.3     
   9 C9             2.3514    -4.1719    -0.0007 C.2     
  10 C10            2.2570    -4.9717    -1.1474 C.2     
  11 N11            2.2621    -4.9490     1.0505 N.2     
  12 N12            2.1066    -6.2654     0.6081 N.pl3   
  13 C13            2.1022    -6.2480    -0.7459 C.2     
  14 C14            1.9792    -7.4708     1.4317 C.3     
  15 C15            1.3776    -8.5988     0.5865 C.3     
  16 N16            2.0615    -8.6469    -0.7148 N.am    
  17 C17            1.9411    -7.4789    -1.6062 C.3     
  18 C18            2.7808    -9.7260    -1.0816 C.2     
  19 C19            3.3493    -9.8069    -2.4427 C.ar    
  20 O20            2.9617   -10.6328    -0.2924 O.2     
  21 C21            4.5869   -10.4198    -2.6498 C.ar    
  22 C22            4.4152    -9.9589    -4.9947 C.ar    
  23 C23            3.1833    -9.3544    -4.7955 C.ar    
  24 C24            2.6484    -9.2758    -3.5275 C.ar    
  25 C25            5.1126   -10.4929    -3.9219 C.ar    
  26 F26            4.9351   -10.0329    -6.2394 F       
  27 Cl27           2.3265    -4.4169    -2.7909 Cl      
  28 H28           -0.9284     1.9091     0.0668 H       
  29 H29           -0.9039    -0.5520     0.0378 H       
  30 H30            3.3696    -0.5021     0.0528 H       
  31 H31            3.3365     1.9588     0.0866 H       
  32 H32            1.1896     3.1626     0.0957 H       
  33 H33            3.0877    -2.3645    -0.8641 H       
  34 H34            3.0821    -2.3885     0.9157 H       
  35 H35            2.9630    -7.7711     1.7922 H       
  36 H36            1.3271    -7.2645     2.2805 H       
  37 H37            1.5092    -9.5500     1.1022 H       
  38 H38            0.3149    -8.4113     0.4325 H       
  39 H39            0.9594    -7.4722    -2.0799 H       
  40 H40            2.7217    -7.5092    -2.3663 H       
  41 H41            5.1313   -10.8354    -1.8148 H       
  42 H42            2.6422    -8.9441    -5.6352 H       
  43 H43            1.6889    -8.8048    -3.3734 H       
  44 H44            6.0697   -10.9667    -4.0832 H       
@<TRIPOS>BOND
   1    1    2 ar
   2    1    6 ar
   3    1   28 1
   4    2    3 ar
   5    2   29 1
   6    3    4 ar
   7    3    7 1
   8    4    5 ar
   9    4   30 1
  10    5    6 ar
  11    5   31 1
  12    6   32 1
  13    7    8 1
  14    8    9 1
  15    8   33 1
  16    8   34 1
  17    9   10 1
  18    9   11 2
  19   10   27 1
  20   10   13 2
  21   11   12 1
  22   12   13 1
  23   12   14 1
  24   13   17 1
  25   14   15 1
  26   14   35 1
  27   14   36 1
  28   15   16 1
  29   15   37 1
  30   15   38 1
  31   16   17 1
  32   16   18 am
  33   17   39 1
  34   17   40 1
  35   18   19 1
  36   18   20 2
  37   19   21 ar
  38   19   24 ar
  39   21   25 ar
  40   21   41 1
  41   22   23 ar
  42   22   26 1
  43   22   25 ar
  44   23   24 ar
  45   23   42 1
  46   24   43 1
  47   25   44 1

#	End of record

