#	Name: ASD02039216
#	Creating user name:	WinNT
#	Creation time:	15. 06. 2019 20:17

#	Modifying user name:	WinNT
#	Modification time:	15. 06. 2019 20:17

#	Program:	/corina/corina34_cracker 3.40 0067  02.08.2006

@<TRIPOS>MOLECULE
ASD02039216
  39   42    0    0    0
SMALL
NO_CHARGES


@<TRIPOS>ATOM
   1 N1             0.0021     1.2625     0.3695 N.2     
   2 C2             0.0063    -0.0135     0.0890 C.2     
   3 N3             1.2922    -0.3755    -0.1075 N.2     
   4 C4             1.9960     0.7158     0.0679 C.2     
   5 O5             1.1352     1.6953     0.3613 O.3     
   6 C6             3.4938     0.8425    -0.0397 C.3     
   7 N7            -1.1049    -0.8433     0.0088 N.pl3   
   8 C8            -2.3914    -0.3043     0.1299 C.ar    
   9 C9            -2.6369     1.0036    -0.2675 C.ar    
  10 C10           -3.9060     1.5351    -0.1479 C.ar    
  11 C11           -4.9359     0.7631     0.3685 C.ar    
  12 C12           -4.6921    -0.5441     0.7661 C.ar    
  13 C13           -3.4237    -1.0789     0.6420 C.ar    
  14 O14           -6.1854     1.2875     0.4859 O.3     
  15 C15            3.8682     1.1875    -1.4581 C.ar    
  16 C16            3.8665     2.5213    -1.8816 C.ar    
  17 C17            4.2162     0.2015    -2.3350 C.ar    
  18 C18            4.5634     0.5092    -3.6449 C.ar    
  19 C19            4.5647     1.8029    -4.0830 C.ar    
  20 C20            4.2186     2.8310    -3.2093 C.ar    
  21 Cl21          -5.9817    -1.5096     1.4130 Cl      
  22 C22           -6.3646     2.6390     0.0579 C.3     
  23 F23           -5.5326     3.4792     0.8056 F       
  24 F24           -6.0380     2.7460    -1.2982 F       
  25 N25            4.1251     4.1924    -3.3350 N.pl3   
  26 N26            3.7257     4.7382    -2.1107 N.2     
  27 C27            3.5626     3.7917    -1.2310 C.2     
  28 H28            3.8409     1.6298     0.6295 H       
  29 H29            3.9594    -0.1028     0.2393 H       
  30 H30           -0.9895    -1.7962    -0.1312 H       
  31 H31           -1.8352     1.6053    -0.6697 H       
  32 H32           -4.0963     2.5525    -0.4564 H       
  33 H33           -3.2337    -2.0962     0.9509 H       
  34 H34            4.2221    -0.8277    -2.0078 H       
  35 H35            4.8361    -0.2844    -4.3248 H       
  36 H36            4.8373     2.0285    -5.1034 H       
  37 H37           -7.4041     2.9321     0.2054 H       
  38 H38            4.3071     4.6968    -4.1434 H       
  39 H39            3.2572     3.9235    -0.2035 H       
@<TRIPOS>BOND
   1    1    2 2
   2    1    5 1
   3    2    3 1
   4    2    7 1
   5    3    4 2
   6    4    5 1
   7    4    6 1
   8    6   15 1
   9    6   28 1
  10    6   29 1
  11    7    8 1
  12    7   30 1
  13    8    9 ar
  14    8   13 ar
  15    9   10 ar
  16    9   31 1
  17   10   11 ar
  18   10   32 1
  19   11   12 ar
  20   11   14 1
  21   12   13 ar
  22   12   21 1
  23   13   33 1
  24   14   22 1
  25   15   17 ar
  26   15   16 ar
  27   16   20 ar
  28   16   27 1
  29   17   18 ar
  30   17   34 1
  31   18   19 ar
  32   18   35 1
  33   19   20 ar
  34   19   36 1
  35   20   25 1
  36   22   23 1
  37   22   24 1
  38   22   37 1
  39   25   26 1
  40   25   38 1
  41   26   27 2
  42   27   39 1

#	End of record

