#	Name: ASD02500133
#	Creating user name:	WinNT
#	Creation time:	15. 06. 2019 20:22

#	Modifying user name:	WinNT
#	Modification time:	15. 06. 2019 20:22

#	Program:	/corina/corina34_cracker 3.40 0067  02.08.2006

@<TRIPOS>MOLECULE
ASD02500133
  60   64    0    0    0
SMALL
NO_CHARGES


@<TRIPOS>ATOM
   1 N1            -3.9873     5.7113    -1.7324 N.ar    
   2 C2            -5.1664     6.2593    -1.8994 C.ar    
   3 C3            -6.1896     6.0957    -0.9678 C.ar    
   4 C4            -5.9763     5.3473     0.1545 C.ar    
   5 C5            -4.7090     4.7599     0.3303 C.ar    
   6 C6            -4.4157     3.9780     1.4588 C.ar    
   7 C7            -3.1775     3.4272     1.5924 C.ar    
   8 C8            -2.1968     3.6295     0.6238 C.ar    
   9 C9            -2.4469     4.3819    -0.4825 C.ar    
  10 C10           -3.7130     4.9671    -0.6563 C.ar    
  11 S11           -1.1881     4.6221    -1.6917 S.o2    
  12 O12           -1.1573     6.0158    -1.9675 O.2     
  13 O13           -0.0543     3.8939    -1.2408 O.2     
  14 N14           -1.6967     3.8813    -3.0827 N.am    
  15 C15           -1.8680     2.5018    -3.1131 C.ar    
  16 C16           -3.0214     1.9572    -3.6710 C.ar    
  17 C17           -3.1939     0.5923    -3.7026 C.ar    
  18 C18           -2.2095    -0.2476    -3.1736 C.ar    
  19 C19           -1.0525     0.3024    -2.6140 C.ar    
  20 C20           -0.8833     1.6679    -2.5905 C.ar    
  21 C21           -2.3914    -1.7112    -3.2053 C.2     
  22 O22           -1.4618    -2.4329    -3.5111 O.2     
  23 N23           -3.5881    -2.2483    -2.8955 N.am    
  24 C24           -3.7596    -3.7066    -2.8325 C.3     
  25 C25           -4.3214    -4.0748    -1.4537 C.3     
  26 N26           -5.4779    -3.2128    -1.1723 N.am    
  27 C27           -5.3064    -1.7546    -1.2353 C.3     
  28 C28           -4.7432    -1.3862    -2.6086 C.3     
  29 C29           -6.6745    -3.7500    -0.8625 C.2     
  30 C30           -7.8015    -2.8734    -0.4808 C.ar    
  31 C31           -9.1043    -3.2014    -0.8606 C.ar    
  32 C32          -10.1518    -2.3795    -0.5016 C.ar    
  33 C33           -9.9133    -1.2303     0.2339 C.ar    
  34 C34           -8.6229    -0.8994     0.6132 C.ar    
  35 C35           -7.5682    -1.7170     0.2658 C.ar    
  36 O36           -6.8269    -4.9555    -0.8969 O.2     
  37 Cl37         -11.2371    -0.2003     0.6817 Cl      
  38 H38           -5.3494     6.8538    -2.7822 H       
  39 H39           -7.1503     6.5605    -1.1331 H       
  40 H40           -6.7579     5.2103     0.8871 H       
  41 H41           -5.1675     3.8146     2.2167 H       
  42 H42           -2.9527     2.8258     2.4608 H       
  43 H43           -1.2222     3.1825     0.7531 H       
  44 H44           -1.8752     4.4098    -3.8763 H       
  45 H45           -3.7817     2.6066    -4.0793 H       
  46 H46           -4.0890     0.1704    -4.1352 H       
  47 H47           -0.2903    -0.3438    -2.2042 H       
  48 H48            0.0125     2.0932    -2.1627 H       
  49 H49           -4.4550    -4.0270    -3.6083 H       
  50 H50           -2.7959    -4.1949    -2.9772 H       
  51 H51           -4.6345    -5.1188    -1.4532 H       
  52 H52           -3.5559    -3.9196    -0.6934 H       
  53 H53           -6.2701    -1.2663    -1.0907 H       
  54 H54           -4.6110    -1.4341    -0.4595 H       
  55 H55           -4.4290    -0.3425    -2.6055 H       
  56 H56           -5.5103    -1.5377    -3.3682 H       
  57 H57           -9.2913    -4.0968    -1.4348 H       
  58 H58          -11.1600    -2.6322    -0.7949 H       
  59 H59           -8.4431    -0.0019     1.1864 H       
  60 H60           -6.5630    -1.4607     0.5666 H       
@<TRIPOS>BOND
   1    1    2 ar
   2    1   10 ar
   3    2    3 ar
   4    2   38 1
   5    3    4 ar
   6    3   39 1
   7    4    5 ar
   8    4   40 1
   9    5    6 ar
  10    5   10 ar
  11    6    7 ar
  12    6   41 1
  13    7    8 ar
  14    7   42 1
  15    8    9 ar
  16    8   43 1
  17    9   10 ar
  18    9   11 1
  19   11   12 2
  20   11   13 2
  21   11   14 am
  22   14   15 1
  23   14   44 1
  24   15   16 ar
  25   15   20 ar
  26   16   17 ar
  27   16   45 1
  28   17   18 ar
  29   17   46 1
  30   18   19 ar
  31   18   21 1
  32   19   20 ar
  33   19   47 1
  34   20   48 1
  35   21   22 2
  36   21   23 am
  37   23   24 1
  38   23   28 1
  39   24   25 1
  40   24   49 1
  41   24   50 1
  42   25   26 1
  43   25   51 1
  44   25   52 1
  45   26   27 1
  46   26   29 am
  47   27   28 1
  48   27   53 1
  49   27   54 1
  50   28   55 1
  51   28   56 1
  52   29   30 1
  53   29   36 2
  54   30   31 ar
  55   30   35 ar
  56   31   32 ar
  57   31   57 1
  58   32   33 ar
  59   32   58 1
  60   33   34 ar
  61   33   37 1
  62   34   35 ar
  63   34   59 1
  64   35   60 1

#	End of record

