#	Name: ASD03491011
#	Creating user name:	WinNT
#	Creation time:	15. 06. 2019 20:42

#	Modifying user name:	WinNT
#	Modification time:	15. 06. 2019 20:42

#	Program:	/corina/corina34_cracker 3.40 0067  02.08.2006

@<TRIPOS>MOLECULE
ASD03491011
  79   82    0    0    0
SMALL
NO_CHARGES


@<TRIPOS>ATOM
   1 C1             0.2074     1.4851    -0.3756 C.ar    
   2 C2             0.1867     0.1897    -0.8737 C.ar    
   3 C3             1.3613    -0.5551    -0.9178 C.ar    
   4 C4             2.5506     0.0028    -0.4622 C.ar    
   5 C5             2.5612     1.2998     0.0345 C.ar    
   6 C6             1.3924     2.0355     0.0764 C.ar    
   7 C7             1.4095     3.4425     0.6158 C.3     
   8 N8             3.7366    -0.7425    -0.5036 N.am    
   9 C9             4.9134    -0.1245    -0.7264 C.2     
  10 C10            6.1998    -0.9066    -0.6593 C.3     
  11 O11            4.9372     1.0612    -0.9809 O.2     
  12 C12            7.3609     0.0107    -0.9447 C.ar    
  13 C13            7.9285     0.7726     0.0907 C.ar    
  14 C14            9.0198     1.6301    -0.1949 C.ar    
  15 C15            9.5150     1.7016    -1.5128 C.ar    
  16 C16            8.9361     0.9443    -2.4922 C.ar    
  17 C17            7.8673     0.0999    -2.2056 C.ar    
  18 C18            7.4344     0.7010     1.4045 C.ar    
  19 C19            8.0089     1.4540     2.3819 C.ar    
  20 C20            9.0819     2.2975     2.1002 C.ar    
  21 C21            9.5871     2.3915     0.8396 C.ar    
  22 O22           10.5598     2.5176    -1.8072 O.3     
  23 C23           11.0058     2.5364    -3.1647 C.3     
  24 C24           12.1812     3.5063    -3.3020 C.3     
  25 N25           13.3227     3.0054    -2.5248 N.3     
  26 C26           14.5391     3.7771    -2.8183 C.3     
  27 C27           15.6866     3.2622    -1.9454 C.3     
  28 O28           15.8644     1.8622    -2.1777 O.3     
  29 C29           14.6993     1.0803    -1.9013 C.3     
  30 C30           13.5417     1.5731    -2.7736 C.3     
  31 C31            2.8322     3.8070     1.0448 C.3     
  32 C32            0.9408     4.4113    -0.4716 C.3     
  33 C33            0.4730     3.5377     1.8219 C.3     
  34 N34           -1.0137    -0.3667    -1.3306 N.am    
  35 S35           -2.1419     0.5928    -2.0715 S.o2    
  36 O36           -3.1548    -0.3135    -2.4860 O.2     
  37 O37           -2.4153     1.6115    -1.1192 O.2     
  38 C38           -1.2765     1.2813    -3.5094 C.3     
  39 O39            1.3460    -1.8258    -1.4050 O.3     
  40 C40            1.5771    -1.9863    -2.8060 C.3     
  41 H41           -0.7028     2.0656    -0.3451 H       
  42 H42            3.4845     1.7339     0.3886 H       
  43 H43            3.7106    -1.7032    -0.3719 H       
  44 H44            6.3123    -1.3363     0.3361 H       
  45 H45            6.1779    -1.7062    -1.3998 H       
  46 H46            9.3155     0.9992    -3.5018 H       
  47 H47            7.4275    -0.4881    -2.9976 H       
  48 H48            6.6029     0.0523     1.6372 H       
  49 H49            7.6274     1.3973     3.3907 H       
  50 H50            9.5194     2.8849     2.8939 H       
  51 H51           10.4195     3.0488     0.6360 H       
  52 H52           11.3246     1.5357    -3.4563 H       
  53 H53           10.1900     2.8605    -3.8108 H       
  54 H54           12.4641     3.5881    -4.3515 H       
  55 H55           11.8886     4.4870    -2.9271 H       
  56 H56           14.8003     3.6589    -3.8699 H       
  57 H57           14.3624     4.8309    -2.6027 H       
  58 H58           16.6041     3.7927    -2.2002 H       
  59 H59           15.4484     3.4295    -0.8950 H       
  60 H60           14.9026     0.0329    -2.1241 H       
  61 H61           14.4323     1.1842    -0.8496 H       
  62 H62           12.6370     1.0181    -2.5255 H       
  63 H63           13.7870     1.4197    -3.8245 H       
  64 H64            3.4994     3.7391     0.1856 H       
  65 H65            2.8446     4.8246     1.4350 H       
  66 H66            3.1661     3.1167     1.8195 H       
  67 H67           -0.0728     4.1517    -0.7773 H       
  68 H68            0.9531     5.4290    -0.0814 H       
  69 H69            1.6080     4.3435    -1.3309 H       
  70 H70            0.8069     2.8475     2.5966 H       
  71 H71            0.4853     4.5554     2.2121 H       
  72 H72           -0.5406     3.2781     1.5163 H       
  73 H73           -1.1848    -1.3142    -1.2132 H       
  74 H74           -0.9445     0.4696    -4.1566 H       
  75 H75           -1.9525     1.9336    -4.0623 H       
  76 H76           -0.4125     1.8545    -3.1733 H       
  77 H77            0.8106    -1.4492    -3.3646 H       
  78 H78            2.5589    -1.5869    -3.0603 H       
  79 H79            1.5382    -3.0451    -3.0617 H       
@<TRIPOS>BOND
   1    1    2 ar
   2    1    6 ar
   3    1   41 1
   4    2    3 ar
   5    2   34 1
   6    3    4 ar
   7    3   39 1
   8    4    5 ar
   9    4    8 1
  10    5    6 ar
  11    5   42 1
  12    6    7 1
  13    7   31 1
  14    7   32 1
  15    7   33 1
  16    8    9 am
  17    8   43 1
  18    9   10 1
  19    9   11 2
  20   10   12 1
  21   10   44 1
  22   10   45 1
  23   12   13 ar
  24   12   17 ar
  25   13   14 ar
  26   13   18 ar
  27   14   15 ar
  28   14   21 ar
  29   15   16 ar
  30   15   22 1
  31   16   17 ar
  32   16   46 1
  33   17   47 1
  34   18   19 ar
  35   18   48 1
  36   19   20 ar
  37   19   49 1
  38   20   21 ar
  39   20   50 1
  40   21   51 1
  41   22   23 1
  42   23   24 1
  43   23   52 1
  44   23   53 1
  45   24   25 1
  46   24   54 1
  47   24   55 1
  48   25   26 1
  49   25   30 1
  50   26   27 1
  51   26   56 1
  52   26   57 1
  53   27   28 1
  54   27   58 1
  55   27   59 1
  56   28   29 1
  57   29   30 1
  58   29   60 1
  59   29   61 1
  60   30   62 1
  61   30   63 1
  62   31   64 1
  63   31   65 1
  64   31   66 1
  65   32   67 1
  66   32   68 1
  67   32   69 1
  68   33   70 1
  69   33   71 1
  70   33   72 1
  71   34   35 am
  72   34   73 1
  73   35   36 2
  74   35   37 2
  75   35   38 1
  76   38   74 1
  77   38   75 1
  78   38   76 1
  79   39   40 1
  80   40   77 1
  81   40   78 1
  82   40   79 1

#	End of record

