#	Name: ASD01910868
#	Creating user name:	WinNT
#	Creation time:	15. 06. 2019 19:56

#	Modifying user name:	WinNT
#	Modification time:	15. 06. 2019 19:56

#	Program:	/corina/corina34_cracker 3.40 0067  02.08.2006

@<TRIPOS>MOLECULE
ASD01910868
  51   54    0    0    0
SMALL
NO_CHARGES


@<TRIPOS>ATOM
   1 C1            -0.0992     1.7674     0.4887 C.ar    
   2 C2            -0.1118     0.6370    -0.3174 C.ar    
   3 C3            -1.2768    -0.1066    -0.3939 C.ar    
   4 C4            -2.3895     0.3022     0.3358 C.ar    
   5 N5            -2.3369     1.3870     1.0929 N.ar    
   6 C6            -1.2379     2.1111     1.1895 C.ar    
   7 N7            -3.5668    -0.4350     0.2686 N.3     
   8 C8            -4.7421     0.4454     0.3071 C.3     
   9 C9            -6.0053    -0.3830     0.0496 C.3     
  10 N10           -6.0339    -1.5008     1.0052 N.am    
  11 C11           -4.8367    -2.3471     1.1221 C.3     
  12 C12           -3.6195    -1.4413     1.3374 C.3     
  13 C13           -7.1283    -1.7434     1.7534 C.2     
  14 C14           -7.1856    -2.9464     2.6113 C.ar    
  15 C15           -7.7508    -2.8704     3.8862 C.ar    
  16 C16           -7.8051    -3.9925     4.6898 C.ar    
  17 C17           -7.3020    -5.1964     4.2401 C.ar    
  18 C18           -6.7331    -5.2874     2.9658 C.ar    
  19 C19           -6.6810    -4.1592     2.1473 C.ar    
  20 C20           -6.2105    -6.5368     2.5003 C.1     
  21 O21           -8.0682    -0.9733     1.7230 O.2     
  22 C22           -5.7821    -7.5611     2.1188 C.1     
  23 C23           -5.2595    -8.8104     1.6534 C.ar    
  24 N24           -4.7201    -8.8896     0.4407 N.ar    
  25 C25           -4.2286   -10.0202    -0.0230 C.ar    
  26 C26           -4.2560   -11.1733     0.7400 C.ar    
  27 C27           -4.8101   -11.1364     2.0127 C.ar    
  28 C28           -5.3149    -9.9364     2.4792 C.ar    
  29 Cl29          -1.3495    -1.5289    -1.3867 Cl      
  30 C30            1.1470     2.6071     0.6025 C.3     
  31 F31            1.1320     3.5996    -0.3834 F       
  32 F32            1.1922     3.2057     1.8661 F       
  33 F33            2.2735     1.7957     0.4303 F       
  34 H34            0.7674     0.3446    -0.8724 H       
  35 H35           -1.2323     2.9900     1.8171 H       
  36 H36           -4.8106     0.9180     1.2869 H       
  37 H37           -4.6473     1.2125    -0.4614 H       
  38 H38           -6.8876     0.2414     0.1900 H       
  39 H39           -5.9868    -0.7720    -0.9685 H       
  40 H40           -4.9463    -3.0211     1.9717 H       
  41 H41           -4.7059    -2.9248     0.2072 H       
  42 H42           -2.7105    -2.0425     1.3162 H       
  43 H43           -3.7036    -0.9424     2.3029 H       
  44 H44           -8.1462    -1.9315     4.2449 H       
  45 H45           -8.2430    -3.9273     5.6748 H       
  46 H46           -7.3473    -6.0698     4.8738 H       
  47 H47           -6.2430    -4.2232     1.1622 H       
  48 H48           -3.7983   -10.0472    -1.0132 H       
  49 H49           -3.8502   -12.0947     0.3492 H       
  50 H50           -4.8424   -12.0245     2.6265 H       
  51 H51           -5.7525    -9.8721     3.4645 H       
@<TRIPOS>BOND
   1    1    2 ar
   2    1   30 1
   3    1    6 ar
   4    2    3 ar
   5    2   34 1
   6    3    4 ar
   7    3   29 1
   8    4    5 ar
   9    4    7 1
  10    5    6 ar
  11    6   35 1
  12    7    8 1
  13    7   12 1
  14    8    9 1
  15    8   36 1
  16    8   37 1
  17    9   10 1
  18    9   38 1
  19    9   39 1
  20   10   11 1
  21   10   13 am
  22   11   12 1
  23   11   40 1
  24   11   41 1
  25   12   42 1
  26   12   43 1
  27   13   14 1
  28   13   21 2
  29   14   15 ar
  30   14   19 ar
  31   15   16 ar
  32   15   44 1
  33   16   17 ar
  34   16   45 1
  35   17   18 ar
  36   17   46 1
  37   18   19 ar
  38   18   20 1
  39   19   47 1
  40   20   22 3
  41   22   23 1
  42   23   24 ar
  43   23   28 ar
  44   24   25 ar
  45   25   26 ar
  46   25   48 1
  47   26   27 ar
  48   26   49 1
  49   27   28 ar
  50   27   50 1
  51   28   51 1
  52   30   31 1
  53   30   32 1
  54   30   33 1

#	End of record

