#	Name: ASD06610057
#	Creating user name:	WinNT
#	Creation time:	15. 06. 2019 21:07

#	Modifying user name:	WinNT
#	Modification time:	15. 06. 2019 21:07

#	Program:	/corina/corina34_cracker 3.40 0067  02.08.2006

@<TRIPOS>MOLECULE
ASD06610057
 342  342    0    0    0
SMALL
NO_CHARGES


@<TRIPOS>ATOM
   1 C1            -2.0521    -0.9750    10.1405 C.2     
   2 O2            -2.1446    -2.1123     9.7294 O.2     
   3 N3            -0.1586    -1.6644    11.4928 N.am    
   4 C4            -0.7889    -0.5221    10.8263 C.3     
   5 C5             0.1745     0.0584     9.7891 C.3     
   6 C6            -0.4214     1.3385     9.1999 C.3     
   7 C7            -0.5148     2.4069    10.2910 C.3     
   8 C8             0.4744     1.8435     8.0670 C.3     
   9 C9            -4.9460     0.7001     8.6631 C.2     
  10 O10           -4.4877     1.8023     8.8775 O.2     
  11 N11           -3.0769    -0.1147     9.9791 N.am    
  12 C12           -4.2626    -0.5217     9.2211 C.3     
  13 C13           -5.2271    -1.2683    10.1449 C.3     
  14 C14           -8.1902     1.4557     7.1573 C.2     
  15 O15           -8.6319     0.3579     7.4232 O.2     
  16 N16           -6.0664     0.5679     7.9258 N.am    
  17 C17           -6.7307     1.7556     7.3833 C.3     
  18 C18           -6.0780     2.1430     6.0549 C.3     
  19 C19           -6.2132     0.9855     5.0635 C.3     
  20 C20           -5.6726     1.4171     3.6988 C.3     
  21 C21           -4.5962     2.4475     6.2843 C.3     
  22 C22          -10.9638     3.0287     5.3697 C.2     
  23 O23          -10.2356     3.8427     4.8424 O.2     
  24 N24           -9.0045     2.4074     6.6597 N.am    
  25 C25          -10.4233     2.1158     6.4400 C.3     
  26 C26          -11.1974     2.3403     7.7405 C.3     
  27 C27          -10.6486     1.4135     8.8272 C.3     
  28 C28          -11.0386     3.7960     8.1838 C.3     
  29 C29          -14.2694     3.9885     4.1389 C.2     
  30 O30          -14.8998     3.1518     4.7500 O.2     
  31 N31          -12.2565     2.9406     4.9986 N.am    
  32 C32          -12.7819     3.8280     3.9581 C.3     
  33 C33          -12.4978     3.2240     2.5814 C.3     
  34 C34          -10.9869     3.1854     2.3433 C.3     
  35 C35          -10.7027     2.5814     0.9666 C.3     
  36 N36           -9.2561     2.5445     0.7387 N.pl3   
  37 C37           -8.7584     2.0393    -0.4391 C.2     
  38 N38           -7.4712     2.0064    -0.6418 N.2     
  39 N39           -9.6184     1.5687    -1.4030 N.pl3   
  40 C40          -17.0531     4.1724     2.9080 C.2     
  41 O41          -16.4093     3.2657     2.4241 O.2     
  42 N42          -14.8992     5.0618     3.6215 N.am    
  43 C43          -16.3513     5.2915     3.6334 C.3     
  44 C44          -16.6096     6.6296     2.9094 C.3     
  45 C45          -15.3404     6.8014     2.0336 C.3     
  46 C46          -14.2456     6.2032     2.9555 C.3     
  47 C47          -20.4039     3.5842     1.5703 C.2     
  48 O48          -20.8574     4.6373     1.9655 O.2     
  49 N49          -18.3963     4.1793     2.7968 N.am    
  50 C50          -19.0786     3.0915     2.0916 C.3     
  51 C51          -19.3109     1.9258     3.0550 C.3     
  52 C52          -17.9639     1.3282     3.4666 C.3     
  53 C53          -20.0462     2.4304     4.2982 C.3     
  54 C54          -23.1971     2.0785    -0.2447 C.2     
  55 O55          -22.6829     0.9801    -0.2369 O.2     
  56 N56          -21.0853     2.8544     0.6650 N.am    
  57 C57          -22.4225     3.2766     0.2406 C.3     
  58 C58          -22.2994     4.2974    -0.8923 C.3     
  59 C59          -24.9352     0.6577    -2.4762 C.2     
  60 O60          -24.1286     1.2978    -3.1171 O.2     
  61 N61          -24.4613     2.2276    -0.6874 N.am    
  62 C62          -25.2518     1.0506    -1.0562 C.3     
  63 C63          -26.7414     1.3793    -0.9381 C.3     
  64 C64          -27.0876     1.6293     0.5071 C.2     
  65 O65          -26.2546     1.4494     1.3701 O.2     
  66 N66          -28.3229     2.0526     0.8407 N.am    
  67 C67          -26.4080    -1.5390    -4.9999 C.2     
  68 O68          -27.3995    -1.7364    -4.3299 O.2     
  69 N69          -25.5484    -0.4050    -3.0341 N.am    
  70 C70          -25.2405    -0.7870    -4.4145 C.3     
  71 C71          -23.9983    -1.6800    -4.4317 C.3     
  72 C72          -26.9996    -3.6196    -7.9467 C.2     
  73 O73          -25.8216    -3.6453    -8.2341 O.2     
  74 N74          -26.3502    -1.9921    -6.2678 N.am    
  75 C75          -27.4851    -2.7232    -6.8369 C.3     
  76 C76          -28.5050    -1.7281    -7.3942 C.3     
  77 C77          -29.0900    -0.9013    -6.2475 C.3     
  78 C78          -30.1099     0.0938    -6.8049 C.3     
  79 N79          -30.6701     0.8855    -5.7069 N.pl3   
  80 C80          -31.6138     1.8508    -5.9672 C.2     
  81 N81          -32.1122     2.5552    -4.9904 N.2     
  82 N82          -32.0318     2.0731    -7.2580 N.pl3   
  83 C83          -28.5324    -5.5308   -10.6599 C.2     
  84 O84          -29.6243    -5.0410   -10.4630 O.2     
  85 N85          -27.8745    -4.3928    -8.6199 N.am    
  86 C86          -27.4026    -5.2643    -9.6988 C.3     
  87 C87          -26.9127    -6.5878    -9.1080 C.3     
  88 C88          -25.6867    -6.3313    -8.2292 C.3     
  89 C89          -25.2720    -7.6328    -7.5399 C.3     
  90 C90          -24.5337    -5.8244    -9.0979 C.3     
  91 C91          -29.1816    -7.8758   -13.3880 C.2     
  92 O92          -28.1868    -8.5243   -13.1418 O.2     
  93 N93          -28.3294    -6.3134   -11.7382 N.am    
  94 C94          -29.4277    -6.5725   -12.6724 C.3     
  95 C95          -29.5066    -5.4366   -13.6944 C.3     
  96 C96          -29.8796    -4.1348   -12.9822 C.3     
  97 C97          -29.9585    -2.9989   -14.0041 C.3     
  98 N98          -30.3157    -1.7525   -13.3222 N.pl3   
  99 C99          -30.4458    -0.5882   -14.0417 C.2     
 100 N100         -30.7635     0.5208   -13.4350 N.2     
 101 N101         -30.2407    -0.5936   -15.4011 N.pl3   
 102 C102         -30.5464    -9.5768   -16.3218 C.2     
 103 O103         -31.1944    -8.6064   -16.6522 O.2     
 104 N104         -30.0671    -8.3206   -14.3015 N.am    
 105 C105         -29.8279    -9.5876   -14.9971 C.3     
 106 C106         -30.3500   -10.7447   -14.1431 C.3     
 107 C107         -29.5359   -10.8326   -12.8507 C.3     
 108 C108         -30.1359   -11.9074   -11.9421 C.3     
 109 C109         -28.0877   -11.1967   -13.1840 C.3     
 110 C110         -31.4530   -12.0515   -18.8549 C.2     
 111 O111         -31.1072   -12.9784   -18.1534 O.2     
 112 N112         -30.4688   -10.6455   -17.1392 N.am    
 113 C113         -31.1672   -10.6351   -18.4269 C.3     
 114 C114         -30.2896    -9.9520   -19.4776 C.3     
 115 C115         -30.1024    -8.4795   -19.1067 C.3     
 116 C116         -29.2247    -7.7964   -20.1574 C.3     
 117 N117         -29.0455    -6.3865   -19.8022 N.pl3   
 118 C118         -28.2885    -5.5662   -20.6048 C.2     
 119 N119         -27.7302    -6.0430   -21.6818 N.2     
 120 N120         -28.1204    -4.2431   -20.2715 N.pl3   
 121 C121         -32.5032   -13.7194   -21.9336 C.2     
 122 O122         -32.5520   -12.6917   -22.5757 O.2     
 123 N123         -32.0927   -12.2881   -20.0173 N.am    
 124 C124         -32.3705   -13.6651   -20.4334 C.3     
 125 C125         -33.6744   -14.1395   -19.7886 C.3     
 126 C126         -33.4932   -14.2203   -18.2716 C.3     
 127 C127         -34.7948   -13.1505   -20.1165 C.3     
 128 C128         -33.4306   -16.2894   -24.3622 C.2     
 129 O129         -33.6529   -17.1077   -23.4951 O.2     
 130 N130         -32.5675   -14.9101   -22.5617 N.am    
 131 C131         -32.8071   -14.9645   -24.0060 C.3     
 132 C132         -31.4790   -14.8094   -24.7495 C.3     
 133 O133         -30.6392   -15.9297   -24.4632 O.3     
 134 C134         -34.5937   -17.9088   -27.4765 C.2     
 135 O135         -34.2939   -16.9692   -28.1744 O.2     
 136 N136         -33.7412   -16.5649   -25.6445 N.am    
 137 C137         -34.3472   -17.8529   -25.9908 C.3     
 138 O138         -35.1464   -19.0024   -28.0244 O.3     
 139 C139           0.6153    -1.4681    12.5786 C.2     
 140 O140           0.8646    -0.3407    12.9498 O.2     
 141 C141          10.9827    -7.5753    26.9455 C.3     
 142 C142          10.4186    -6.3759    26.1812 C.3     
 143 C143           9.5811    -6.8716    25.0006 C.3     
 144 C144           9.0169    -5.6722    24.2363 C.3     
 145 C145           8.1794    -6.1679    23.0557 C.3     
 146 C146           7.6152    -4.9685    22.2914 C.3     
 147 C147           6.7777    -5.4642    21.1108 C.3     
 148 C148           6.2135    -4.2648    20.3466 C.3     
 149 C149           5.3760    -4.7605    19.1660 C.3     
 150 C150           4.8119    -3.5611    18.4017 C.3     
 151 C151           3.9744    -4.0568    17.2211 C.3     
 152 C152           3.4102    -2.8574    16.4568 C.3     
 153 C153           2.5727    -3.3531    15.2762 C.3     
 154 C154           2.0085    -2.1538    14.5119 C.3     
 155 C155           1.1710    -2.6494    13.3313 C.3     
 156 H156          -0.2984    -2.5620    11.1526 H       
 157 H157          -1.0306     0.2417    11.5654 H       
 158 H158           1.1273     0.2873    10.2664 H       
 159 H159           0.3324    -0.6689     8.9928 H       
 160 H160          -1.4175     1.1295     8.8097 H       
 161 H161           0.4861     2.6513    10.6468 H       
 162 H162          -0.9843     3.3022     9.8836 H       
 163 H163          -1.1127     2.0282    11.1200 H       
 164 H164           0.5410     1.0824     7.2896 H       
 165 H165           0.0499     2.7555     7.6472 H       
 166 H166           1.4705     2.0525     8.4571 H       
 167 H167          -3.0294     0.7741    10.3649 H       
 168 H168          -3.9635    -1.1764     8.4026 H       
 169 H169          -6.1093    -1.5711     9.5809 H       
 170 H170          -4.7328    -2.1520    10.5485 H       
 171 H171          -5.5262    -0.6136    10.9634 H       
 172 H172          -6.4329    -0.3137     7.7543 H       
 173 H173          -6.6343     2.5802     8.0896 H       
 174 H174          -6.5722     3.0267     5.6513 H       
 175 H175          -5.6444     0.1289     5.4253 H       
 176 H176          -7.2635     0.7100     4.9677 H       
 177 H177          -6.2414     2.2736     3.3370 H       
 178 H178          -4.6224     1.6925     3.7946 H       
 179 H179          -5.7690     0.5924     2.9925 H       
 180 H180          -4.1020     1.5638     6.6879 H       
 181 H181          -4.1312     2.7235     5.3379 H       
 182 H182          -4.4999     3.2721     6.9906 H       
 183 H183          -8.6512     3.2854     6.4471 H       
 184 H184         -10.5364     1.0787     6.1242 H       
 185 H185         -12.2530     2.1234     7.5771 H       
 186 H186          -9.5930     1.6304     8.9906 H       
 187 H187         -11.2001     1.5734     9.7537 H       
 188 H188         -10.7618     0.3764     8.5114 H       
 189 H189         -11.4295     4.4563     7.4097 H       
 190 H190         -11.5901     3.9559     9.1103 H       
 191 H191          -9.9830     4.0129     8.3473 H       
 192 H192         -12.8389     2.2895     5.4203 H       
 193 H193         -12.2995     4.8024     4.0339 H       
 194 H194         -12.8982     2.2111     2.5393 H       
 195 H195         -12.9713     3.8341     1.8122 H       
 196 H196         -10.5865     4.1983     2.3854 H       
 197 H197         -10.5134     2.5753     3.1125 H       
 198 H198         -11.1032     1.5685     0.9246 H       
 199 H199         -11.1763     3.1915     0.1974 H       
 200 H200          -8.6493     2.8765     1.4188 H       
 201 H201          -7.1201     1.6499    -1.4728 H       
 202 H202         -10.5762     1.5931    -1.2521 H       
 203 H203          -9.2672     1.2122    -2.2340 H       
 204 H204         -16.7092     5.3485     4.6614 H       
 205 H205         -17.5020     6.5653     2.2868 H       
 206 H206         -16.6965     7.4457     3.6267 H       
 207 H207         -15.4265     6.2359     1.1058 H       
 208 H208         -15.1453     7.8545     1.8307 H       
 209 H209         -13.9235     6.9388     3.6925 H       
 210 H210         -13.3967     5.8615     2.3633 H       
 211 H211         -18.9113     4.9046     3.1838 H       
 212 H212         -18.4620     2.7562     1.2576 H       
 213 H213         -19.9121     1.1616     2.5624 H       
 214 H214         -17.3627     2.0923     3.9592 H       
 215 H215         -18.1294     0.4977     4.1529 H       
 216 H216         -17.4400     0.9687     2.5809 H       
 217 H217         -19.4892     3.2571     4.7393 H       
 218 H218         -21.0423     2.7724     4.0174 H       
 219 H219         -20.1309     1.6213     5.0237 H       
 220 H220         -20.6904     2.0497     0.2944 H       
 221 H221         -22.9447     3.7300     1.0831 H       
 222 H222         -21.7771     3.8440    -1.7348 H       
 223 H223         -23.2942     4.6115    -1.2080 H       
 224 H224         -21.7391     5.1640    -0.5413 H       
 225 H225         -24.8478     3.1141    -0.7618 H       
 226 H226         -25.0078     0.2250    -0.3878 H       
 227 H227         -26.9645     2.2706    -1.5245 H       
 228 H228         -27.3292     0.5413    -1.3128 H       
 229 H229         -28.9891     2.1965     0.1505 H       
 230 H230         -28.5457     2.2135     1.7710 H       
 231 H231         -26.1935    -0.9169    -2.5216 H       
 232 H232         -25.0521     0.1090    -5.0060 H       
 233 H233         -24.1868    -2.5760    -3.8402 H       
 234 H234         -23.7693    -1.9642    -5.4587 H       
 235 H235         -23.1539    -1.1361    -4.0083 H       
 236 H236         -25.5572    -1.8342    -6.8037 H       
 237 H237         -27.9541    -3.3276    -6.0604 H       
 238 H238         -28.0139    -1.0651    -8.1065 H       
 239 H239         -29.3058    -2.2713    -7.8960 H       
 240 H240         -29.5811    -1.5643    -5.5353 H       
 241 H241         -28.2892    -0.3581    -5.7458 H       
 242 H242         -29.6188     0.7568    -7.5172 H       
 243 H243         -30.9107    -0.4494    -7.3066 H       
 244 H244         -30.3752     0.7286    -4.7962 H       
 245 H245         -32.7780     3.2362    -5.1740 H       
 246 H246         -31.6608     1.5489    -7.9850 H       
 247 H247         -32.6976     2.7542    -7.4417 H       
 248 H248         -28.8167    -4.3722    -8.3901 H       
 249 H249         -26.5833    -4.7770   -10.2274 H       
 250 H250         -27.7050    -7.0321    -8.5055 H       
 251 H251         -26.6448    -7.2692    -9.9155 H       
 252 H252         -25.9302    -5.5825    -7.4755 H       
 253 H253         -25.0286    -8.3816    -8.2937 H       
 254 H254         -24.3986    -7.4500    -6.9139 H       
 255 H255         -26.0935    -7.9939    -6.9211 H       
 256 H256         -24.8291    -4.8973    -9.5890 H       
 257 H257         -23.6603    -5.6417    -8.4719 H       
 258 H258         -24.2902    -6.5732    -9.8516 H       
 259 H259         -27.4561    -6.7051   -11.8957 H       
 260 H260         -30.3666    -6.6319   -12.1219 H       
 261 H261         -28.5392    -5.3193   -14.1827 H       
 262 H262         -30.2645    -5.6720   -14.4415 H       
 263 H263         -30.8470    -4.2521   -12.4939 H       
 264 H264         -29.1217    -3.8994   -12.2351 H       
 265 H265         -28.9911    -2.8816   -14.4924 H       
 266 H266         -30.7165    -3.2344   -14.7513 H       
 267 H267         -30.4603    -1.7486   -12.3631 H       
 268 H268         -30.8553     1.3422   -13.9426 H       
 269 H269         -30.0043    -1.4189   -15.8526 H       
 270 H270         -30.3325     0.2278   -15.9087 H       
 271 H271         -30.8627    -7.8019   -14.4984 H       
 272 H272         -28.7583    -9.7136   -15.1649 H       
 273 H273         -31.3988   -10.5732   -13.9009 H       
 274 H274         -30.2531   -11.6781   -14.6977 H       
 275 H275         -29.5601    -9.8700   -12.3399 H       
 276 H276         -30.1116   -12.8700   -12.4529 H       
 277 H277         -29.5559   -11.9700   -11.0213 H       
 278 H278         -31.1676   -11.6480   -11.7046 H       
 279 H279         -27.6602   -10.4310   -13.8313 H       
 280 H280         -27.5077   -11.2593   -12.2632 H       
 281 H281         -28.0634   -12.1593   -13.6948 H       
 282 H282         -29.9505   -11.4217   -16.8749 H       
 283 H283         -32.1055   -10.0894   -18.3269 H       
 284 H284         -29.3175   -10.4438   -19.5144 H       
 285 H285         -30.7696   -10.0226   -20.4536 H       
 286 H286         -31.0745    -7.9877   -19.0699 H       
 287 H287         -29.6223    -8.4089   -18.1306 H       
 288 H288         -28.2527    -8.2882   -20.1942 H       
 289 H289         -29.7048    -7.8670   -21.1334 H       
 290 H290         -29.4610    -6.0316   -19.0007 H       
 291 H291         -27.1961    -5.4643   -22.2481 H       
 292 H292         -28.5358    -3.8882   -19.4700 H       
 293 H293         -27.5862    -3.6643   -20.8378 H       
 294 H294         -32.3693   -11.5468   -20.5784 H       
 295 H295         -31.5524   -14.3122   -20.1173 H       
 296 H296         -33.9341   -15.1245   -20.1765 H       
 297 H297         -33.3569   -13.2170   -17.8680 H       
 298 H298         -34.3768   -14.6751   -17.8238 H       
 299 H299         -32.6168   -14.8264   -18.0421 H       
 300 H300         -34.9239   -13.0929   -21.1973 H       
 301 H301         -35.7237   -13.4885   -19.6571 H       
 302 H302         -34.5350   -12.1655   -19.7286 H       
 303 H303         -32.4552   -15.7312   -22.0575 H       
 304 H304         -33.4807   -14.1570   -24.2931 H       
 305 H305         -31.6666   -14.7607   -25.8221 H       
 306 H306         -30.9857   -13.8932   -24.4249 H       
 307 H307         -29.7782   -15.8982   -24.9023 H       
 308 H308         -33.5634   -15.9105   -26.3380 H       
 309 H309         -35.2935   -17.9634   -25.4611 H       
 310 H310         -33.6737   -18.6604   -25.7036 H       
 311 H311         -35.2850   -18.9917   -28.9814 H       
 312 H312          11.6091    -8.1686    26.2793 H       
 313 H313          11.5794    -7.2222    27.7865 H       
 314 H314          10.1616    -8.1896    27.3150 H       
 315 H315           9.7922    -5.7826    26.8473 H       
 316 H316          11.2397    -5.7617    25.8117 H       
 317 H317          10.2075    -7.4649    24.3345 H       
 318 H318           8.7599    -7.4859    25.3701 H       
 319 H319           8.3905    -5.0789    24.9024 H       
 320 H320           9.8380    -5.0580    23.8668 H       
 321 H321           8.8058    -6.7612    22.3896 H       
 322 H322           7.3583    -6.7822    23.4252 H       
 323 H323           6.9888    -4.3752    22.9575 H       
 324 H324           8.4363    -4.3543    21.9219 H       
 325 H325           7.4041    -6.0575    20.4447 H       
 326 H326           5.9566    -6.0785    21.4804 H       
 327 H327           5.5871    -3.6715    21.0127 H       
 328 H328           7.0347    -3.6506    19.9770 H       
 329 H329           6.0024    -5.3538    18.4998 H       
 330 H330           4.5549    -5.3748    19.5355 H       
 331 H331           4.1855    -2.9678    19.0678 H       
 332 H332           5.6330    -2.9469    18.0322 H       
 333 H333           4.6008    -4.6501    16.5550 H       
 334 H334           3.1533    -4.6711    17.5906 H       
 335 H335           2.7838    -2.2641    17.1229 H       
 336 H336           4.2313    -2.2432    16.0873 H       
 337 H337           3.1991    -3.9464    14.6101 H       
 338 H338           1.7516    -3.9674    15.6457 H       
 339 H339           1.3821    -1.5604    15.1781 H       
 340 H340           2.8296    -1.5395    14.1424 H       
 341 H341           0.3499    -3.2637    13.7009 H       
 342 H342           1.7974    -3.2427    12.6652 H       
@<TRIPOS>BOND
   1    1    2 2
   2    1    4 1
   3    1   11 am
   4    3  139 am
   5    3    4 1
   6    3  156 1
   7    4    5 1
   8    4  157 1
   9    5    6 1
  10    5  158 1
  11    5  159 1
  12    6    7 1
  13    6    8 1
  14    6  160 1
  15    7  161 1
  16    7  162 1
  17    7  163 1
  18    8  164 1
  19    8  165 1
  20    8  166 1
  21    9   10 2
  22    9   12 1
  23    9   16 am
  24   11   12 1
  25   11  167 1
  26   12   13 1
  27   12  168 1
  28   13  169 1
  29   13  170 1
  30   13  171 1
  31   14   15 2
  32   14   17 1
  33   14   24 am
  34   16   17 1
  35   16  172 1
  36   17   18 1
  37   17  173 1
  38   18   19 1
  39   18   21 1
  40   18  174 1
  41   19   20 1
  42   19  175 1
  43   19  176 1
  44   20  177 1
  45   20  178 1
  46   20  179 1
  47   21  180 1
  48   21  181 1
  49   21  182 1
  50   22   23 2
  51   22   25 1
  52   22   31 am
  53   24   25 1
  54   24  183 1
  55   25   26 1
  56   25  184 1
  57   26   27 1
  58   26   28 1
  59   26  185 1
  60   27  186 1
  61   27  187 1
  62   27  188 1
  63   28  189 1
  64   28  190 1
  65   28  191 1
  66   29   30 2
  67   29   32 1
  68   29   42 am
  69   31   32 1
  70   31  192 1
  71   32   33 1
  72   32  193 1
  73   33   34 1
  74   33  194 1
  75   33  195 1
  76   34   35 1
  77   34  196 1
  78   34  197 1
  79   35   36 1
  80   35  198 1
  81   35  199 1
  82   36   37 1
  83   36  200 1
  84   37   38 2
  85   37   39 1
  86   38  201 1
  87   39  202 1
  88   39  203 1
  89   40   41 2
  90   40   49 am
  91   40   43 1
  92   42   43 1
  93   42   46 1
  94   43   44 1
  95   43  204 1
  96   44   45 1
  97   44  205 1
  98   44  206 1
  99   45   46 1
 100   45  207 1
 101   45  208 1
 102   46  209 1
 103   46  210 1
 104   47   48 2
 105   47   50 1
 106   47   56 am
 107   49   50 1
 108   49  211 1
 109   50   51 1
 110   50  212 1
 111   51   52 1
 112   51   53 1
 113   51  213 1
 114   52  214 1
 115   52  215 1
 116   52  216 1
 117   53  217 1
 118   53  218 1
 119   53  219 1
 120   54   55 2
 121   54   57 1
 122   54   61 am
 123   56   57 1
 124   56  220 1
 125   57   58 1
 126   57  221 1
 127   58  222 1
 128   58  223 1
 129   58  224 1
 130   59   60 2
 131   59   62 1
 132   59   69 am
 133   61   62 1
 134   61  225 1
 135   62   63 1
 136   62  226 1
 137   63   64 1
 138   63  227 1
 139   63  228 1
 140   64   65 2
 141   64   66 am
 142   66  229 1
 143   66  230 1
 144   67   68 2
 145   67   70 1
 146   67   74 am
 147   69   70 1
 148   69  231 1
 149   70   71 1
 150   70  232 1
 151   71  233 1
 152   71  234 1
 153   71  235 1
 154   72   73 2
 155   72   75 1
 156   72   85 am
 157   74   75 1
 158   74  236 1
 159   75   76 1
 160   75  237 1
 161   76   77 1
 162   76  238 1
 163   76  239 1
 164   77   78 1
 165   77  240 1
 166   77  241 1
 167   78   79 1
 168   78  242 1
 169   78  243 1
 170   79   80 1
 171   79  244 1
 172   80   81 2
 173   80   82 1
 174   81  245 1
 175   82  246 1
 176   82  247 1
 177   83   84 2
 178   83   86 1
 179   83   93 am
 180   85   86 1
 181   85  248 1
 182   86   87 1
 183   86  249 1
 184   87   88 1
 185   87  250 1
 186   87  251 1
 187   88   89 1
 188   88   90 1
 189   88  252 1
 190   89  253 1
 191   89  254 1
 192   89  255 1
 193   90  256 1
 194   90  257 1
 195   90  258 1
 196   91   92 2
 197   91   94 1
 198   91  104 am
 199   93   94 1
 200   93  259 1
 201   94   95 1
 202   94  260 1
 203   95   96 1
 204   95  261 1
 205   95  262 1
 206   96   97 1
 207   96  263 1
 208   96  264 1
 209   97   98 1
 210   97  265 1
 211   97  266 1
 212   98   99 1
 213   98  267 1
 214   99  100 2
 215   99  101 1
 216  100  268 1
 217  101  269 1
 218  101  270 1
 219  102  103 2
 220  102  105 1
 221  102  112 am
 222  104  105 1
 223  104  271 1
 224  105  106 1
 225  105  272 1
 226  106  107 1
 227  106  273 1
 228  106  274 1
 229  107  108 1
 230  107  109 1
 231  107  275 1
 232  108  276 1
 233  108  277 1
 234  108  278 1
 235  109  279 1
 236  109  280 1
 237  109  281 1
 238  110  111 2
 239  110  113 1
 240  110  123 am
 241  112  113 1
 242  112  282 1
 243  113  114 1
 244  113  283 1
 245  114  115 1
 246  114  284 1
 247  114  285 1
 248  115  116 1
 249  115  286 1
 250  115  287 1
 251  116  117 1
 252  116  288 1
 253  116  289 1
 254  117  118 1
 255  117  290 1
 256  118  119 2
 257  118  120 1
 258  119  291 1
 259  120  292 1
 260  120  293 1
 261  121  122 2
 262  121  124 1
 263  121  130 am
 264  123  124 1
 265  123  294 1
 266  124  125 1
 267  124  295 1
 268  125  126 1
 269  125  127 1
 270  125  296 1
 271  126  297 1
 272  126  298 1
 273  126  299 1
 274  127  300 1
 275  127  301 1
 276  127  302 1
 277  128  129 2
 278  128  131 1
 279  128  136 am
 280  130  131 1
 281  130  303 1
 282  131  132 1
 283  131  304 1
 284  132  133 1
 285  132  305 1
 286  132  306 1
 287  133  307 1
 288  134  135 2
 289  134  137 1
 290  134  138 1
 291  136  137 1
 292  136  308 1
 293  137  309 1
 294  137  310 1
 295  138  311 1
 296  139  140 2
 297  139  155 1
 298  141  142 1
 299  141  312 1
 300  141  313 1
 301  141  314 1
 302  142  143 1
 303  142  315 1
 304  142  316 1
 305  143  144 1
 306  143  317 1
 307  143  318 1
 308  144  145 1
 309  144  319 1
 310  144  320 1
 311  145  146 1
 312  145  321 1
 313  145  322 1
 314  146  147 1
 315  146  323 1
 316  146  324 1
 317  147  148 1
 318  147  325 1
 319  147  326 1
 320  148  149 1
 321  148  327 1
 322  148  328 1
 323  149  150 1
 324  149  329 1
 325  149  330 1
 326  150  151 1
 327  150  331 1
 328  150  332 1
 329  151  152 1
 330  151  333 1
 331  151  334 1
 332  152  153 1
 333  152  335 1
 334  152  336 1
 335  153  154 1
 336  153  337 1
 337  153  338 1
 338  154  155 1
 339  154  339 1
 340  154  340 1
 341  155  341 1
 342  155  342 1

#	End of record

