#	Name: ASD03331421
#	Creating user name:	WinNT
#	Creation time:	15. 06. 2019 20:39

#	Modifying user name:	WinNT
#	Modification time:	15. 06. 2019 20:39

#	Program:	/corina/corina34_cracker 3.40 0067  02.08.2006

@<TRIPOS>MOLECULE
ASD03331421
  57   60    0    0    0
SMALL
NO_CHARGES


@<TRIPOS>ATOM
   1 C1             0.6421     0.9653     1.7736 C.ar    
   2 C2             0.5093    -0.4542     1.3792 C.2     
   3 N3            -0.5465    -1.2601     1.6610 N.pl3   
   4 C4            -0.2799    -2.4877     1.1255 C.2     
   5 C5             0.9321    -2.4081     0.5251 C.2     
   6 N6             1.3913    -1.1460     0.6921 N.2     
   7 C7             1.6233    -3.4979    -0.1863 C.2     
   8 N8             2.8325    -3.2804    -0.7404 N.am    
   9 C9            -0.1876     1.4978     2.7607 C.ar    
  10 O10            1.1026    -4.5935    -0.2735 O.2     
  11 C11            3.5197    -4.3638    -1.4476 C.3     
  12 C12            3.0290    -4.4193    -2.8957 C.3     
  13 C13            5.0055    -4.1122    -1.4300 C.2     
  14 C14            3.2396    -3.0563    -3.5582 C.3     
  15 C15           -1.7798    -0.9562     2.3923 C.3     
  16 C16           -2.8026    -2.0563     2.0773 C.3     
  17 O17           -2.1976    -3.3423     2.2374 O.3     
  18 C18           -1.2214    -3.6595     1.2339 C.3     
  19 C19            3.8164    -5.4851    -3.6605 C.3     
  20 C20            1.5404    -4.7720    -2.9166 C.3     
  21 O21            5.4291    -2.9974    -1.2095 O.2     
  22 N22            5.8634    -5.1261    -1.6592 N.am    
  23 C23            7.3065    -4.9067    -1.5350 C.3     
  24 C24           -0.0593     2.8240     3.1251 C.ar    
  25 C25            0.8926     3.6250     2.5101 C.ar    
  26 C26            1.7176     3.0992     1.5292 C.ar    
  27 C27            1.6014     1.7744     1.1635 C.ar    
  28 F28            1.0148     4.9218     2.8688 F       
  29 F29           -0.8615     3.3420     4.0807 F       
  30 C30            8.1816    -6.1224    -1.2231 C.3     
  31 C31            8.2072    -5.4997    -2.6204 C.3     
  32 H32            3.2478    -2.4066    -0.6708 H       
  33 H33           -0.9288     0.8746     3.2388 H       
  34 H34            3.3059    -5.3123    -0.9550 H       
  35 H35            4.3001    -2.8051    -3.5433 H       
  36 H36            2.8900    -3.0959    -4.5898 H       
  37 H37            2.6786    -2.2970    -3.0133 H       
  38 H38           -1.5777    -0.9369     3.4632 H       
  39 H39           -2.1686     0.0106     2.0727 H       
  40 H40           -3.6504    -1.9678     2.7566 H       
  41 H41           -3.1498    -1.9447     1.0501 H       
  42 H42           -1.7158    -3.8261     0.2769 H       
  43 H43           -0.6683    -4.5523     1.5255 H       
  44 H44            3.6787    -6.4536    -3.1796 H       
  45 H45            3.4564    -5.5353    -4.6882 H       
  46 H46            4.8751    -5.2259    -3.6587 H       
  47 H47            0.9794    -4.0127    -2.3718 H       
  48 H48            1.1908    -4.8115    -3.9483 H       
  49 H49            1.3904    -5.7430    -2.4447 H       
  50 H50            5.5253    -6.0010    -1.9065 H       
  51 H51            7.6012    -3.9503    -1.1031 H       
  52 H52            2.4564     3.7269     1.0531 H       
  53 H53            2.2455     1.3662     0.3987 H       
  54 H54            9.0522    -5.9657    -0.5862 H       
  55 H55            7.6836    -7.0853    -1.1102 H       
  56 H56            7.7260    -6.0531    -3.4268 H       
  57 H57            9.0947    -4.9334    -2.9028 H       
@<TRIPOS>BOND
   1    1    2 1
   2    1    9 ar
   3    1   27 ar
   4    2    3 1
   5    2    6 2
   6    3    4 1
   7    3   15 1
   8    4    5 2
   9    4   18 1
  10    5    6 1
  11    5    7 1
  12    7    8 am
  13    7   10 2
  14    8   11 1
  15    8   32 1
  16    9   24 ar
  17    9   33 1
  18   11   12 1
  19   11   13 1
  20   11   34 1
  21   12   14 1
  22   12   19 1
  23   12   20 1
  24   13   21 2
  25   13   22 am
  26   14   35 1
  27   14   36 1
  28   14   37 1
  29   15   16 1
  30   15   38 1
  31   15   39 1
  32   16   17 1
  33   16   40 1
  34   16   41 1
  35   17   18 1
  36   18   42 1
  37   18   43 1
  38   19   44 1
  39   19   45 1
  40   19   46 1
  41   20   47 1
  42   20   48 1
  43   20   49 1
  44   22   23 1
  45   22   50 1
  46   23   30 1
  47   23   31 1
  48   23   51 1
  49   24   25 ar
  50   24   29 1
  51   25   26 ar
  52   25   28 1
  53   26   27 ar
  54   26   52 1
  55   27   53 1
  56   30   31 1
  57   30   54 1
  58   30   55 1
  59   31   56 1
  60   31   57 1

#	End of record

