#	Name: ASD02198150
#	Creating user name:	WinNT
#	Creation time:	15. 06. 2019 20:18

#	Modifying user name:	WinNT
#	Modification time:	15. 06. 2019 20:18

#	Program:	/corina/corina34_cracker 3.40 0067  02.08.2006

@<TRIPOS>MOLECULE
ASD02198150
  36   38    0    0    0
SMALL
NO_CHARGES


@<TRIPOS>ATOM
   1 C1            -0.0156     1.3781    -0.0255 C.2     
   2 C2             0.0072    -0.0012    -0.0104 C.2     
   3 C3            -1.1789    -0.8005     0.0595 C.1     
   4 S4             1.5645     2.0120    -0.1146 S.3     
   5 C5             2.2782     0.4074    -0.1326 C.2     
   6 C6             1.2870    -0.5462    -0.0701 C.2     
   7 C7             3.6564     0.1368    -0.2010 C.2     
   8 C8             4.6285     1.2537    -0.2644 C.ar    
   9 O9             4.0516    -1.0166    -0.2083 O.2     
  10 N10            1.5375    -1.9086    -0.0666 N.pl3   
  11 N11           -1.1599     2.1396     0.0194 N.pl3   
  12 N12           -2.1198    -1.4346     0.1150 N.1     
  13 C13            5.9927     0.9791    -0.3321 C.ar    
  14 C14           -1.0702     3.5299     0.1320 C.ar    
  15 C15           -1.9789     4.3418    -0.5377 C.ar    
  16 C16           -0.0787     4.0993     0.9160 C.ar    
  17 C17            0.0061     5.4878     1.0254 C.ar    
  18 C18           -0.9083     6.2941     0.3444 C.ar    
  19 C19           -1.8946     5.7170    -0.4297 C.ar    
  20 C20            6.8894     2.0338    -0.3912 C.ar    
  21 C21            6.3908     3.3274    -0.3807 C.ar    
  22 C22            5.0218     3.5270    -0.3119 C.ar    
  23 N23            4.1920     2.5073    -0.2617 N.ar    
  24 C24            1.0270     6.0838     1.8336 C.1     
  25 N25            1.8368     6.5567     2.4747 N.1     
  26 H26            2.4503    -2.2340    -0.1096 H       
  27 H27            0.8001    -2.5372    -0.0211 H       
  28 H28           -2.0293     1.7119    -0.0271 H       
  29 H29            6.3463    -0.0413    -0.3379 H       
  30 H30           -2.7531     3.8962    -1.1447 H       
  31 H31            0.6253     3.4704     1.4406 H       
  32 H32           -0.8463     7.3692     0.4267 H       
  33 H33           -2.6008     6.3424    -0.9556 H       
  34 H34            7.9527     1.8522    -0.4440 H       
  35 H35            7.0633     4.1713    -0.4253 H       
  36 H36            4.6301     4.5335    -0.3031 H       
@<TRIPOS>BOND
   1    1    2 2
   2    1    4 1
   3    1   11 1
   4    2    3 1
   5    2    6 1
   6    3   12 3
   7    4    5 1
   8    5    6 2
   9    5    7 1
  10    6   10 1
  11    7    8 1
  12    7    9 2
  13    8   13 ar
  14    8   23 ar
  15   10   26 1
  16   10   27 1
  17   11   14 1
  18   11   28 1
  19   13   20 ar
  20   13   29 1
  21   14   15 ar
  22   14   16 ar
  23   15   19 ar
  24   15   30 1
  25   16   17 ar
  26   16   31 1
  27   17   18 ar
  28   17   24 1
  29   18   19 ar
  30   18   32 1
  31   19   33 1
  32   20   21 ar
  33   20   34 1
  34   21   22 ar
  35   21   35 1
  36   22   23 ar
  37   22   36 1
  38   24   25 3

#	End of record

