#	Name: ASD09750014
#	Creating user name:	WinNT
#	Creation time:	15. 06. 2019 21:23

#	Modifying user name:	WinNT
#	Modification time:	15. 06. 2019 21:23

#	Program:	/corina/corina34_cracker 3.40 0067  02.08.2006

@<TRIPOS>MOLECULE
ASD09750014
  43   46    0    0    0
SMALL
NO_CHARGES


@<TRIPOS>ATOM
   1 C1            -0.0271     1.4061    -0.0297 C.ar    
   2 C2            -0.0201     0.0200    -0.2236 C.ar    
   3 C3            -1.1876    -0.6845    -0.1566 C.ar    
   4 C4            -2.3914    -0.0208     0.1058 C.ar    
   5 C5            -2.3986     1.3651     0.2996 C.ar    
   6 C6            -1.2304     2.0691     0.2380 C.ar    
   7 C7             1.2324     2.1663    -0.1015 C.2     
   8 O8             2.2848     1.5860    -0.3305 O.co2   
   9 O9             1.2262     3.3779     0.0679 O.co2   
  10 C10           -3.6516    -0.7814     0.1776 C.2     
  11 C11           -4.8980    -0.2510     0.4274 C.2     
  12 C12           -5.8047    -1.3133     0.4073 C.2     
  13 C13           -5.0741    -2.4584     0.1445 C.2     
  14 O14           -3.7788    -2.1101     0.0043 O.3     
  15 O15           -2.6520    -3.8392     0.3152 O.2     
  16 C16           -3.2928    -4.8429     0.0614 C.2     
  17 C17           -4.7505    -4.8305    -0.0812 C.2     
  18 C18           -5.5959    -3.7668     0.0361 C.2     
  19 N19           -2.7238    -6.0241    -0.1117 N.am    
  20 C20           -3.4861    -7.0883    -0.3892 C.2     
  21 S21           -5.1634    -6.5184    -0.4428 S.3     
  22 O22           -3.1015    -8.2277    -0.5718 O.2     
  23 C23           -1.2699    -6.1664    -0.0009 C.3     
  24 C24           -0.9034    -6.4823     1.4263 C.ar    
  25 C25           -0.8322    -7.7976     1.8462 C.ar    
  26 C26           -0.4958    -8.0885     3.1547 C.ar    
  27 C27           -0.2300    -7.0621     4.0452 C.ar    
  28 C28           -0.3017    -5.7452     3.6235 C.ar    
  29 C29           -0.6332    -5.4569     2.3132 C.ar    
  30 F30            0.0985    -7.3453     5.3247 F       
  31 H31            0.9088    -0.4922    -0.4264 H       
  32 H32           -1.1823    -1.7541    -0.3065 H       
  33 H33           -3.3277     1.8772     0.5018 H       
  34 H34           -1.2360     3.1387     0.3875 H       
  35 H35           -5.1301     0.7886     0.6055 H       
  36 H36           -6.8712    -1.2525     0.5663 H       
  37 H37           -6.6643    -3.9246     0.0461 H       
  38 H38           -0.9335    -6.9749    -0.6499 H       
  39 H39           -0.7897    -5.2353    -0.3017 H       
  40 H40           -1.0398    -8.5980     1.1515 H       
  41 H41           -0.4405    -9.1160     3.4826 H       
  42 H42           -0.0947    -4.9438     4.3173 H       
  43 H43           -0.6892    -4.4298     1.9841 H       
@<TRIPOS>BOND
   1    1    2 ar
   2    1    7 1
   3    1    6 ar
   4    2    3 ar
   5    2   31 1
   6    3    4 ar
   7    3   32 1
   8    4    5 ar
   9    4   10 1
  10    5    6 ar
  11    5   33 1
  12    6   34 1
  13    7    8 ar
  14    7    9 ar
  15   10   11 2
  16   10   14 1
  17   11   12 1
  18   11   35 1
  19   12   13 2
  20   12   36 1
  21   13   14 1
  22   13   18 1
  23   15   16 2
  24   16   17 1
  25   16   19 am
  26   17   18 2
  27   17   21 1
  28   18   37 1
  29   19   20 am
  30   19   23 1
  31   20   21 1
  32   20   22 2
  33   23   24 1
  34   23   38 1
  35   23   39 1
  36   24   25 ar
  37   24   29 ar
  38   25   26 ar
  39   25   40 1
  40   26   27 ar
  41   26   41 1
  42   27   28 ar
  43   27   30 1
  44   28   29 ar
  45   28   42 1
  46   29   43 1

#	End of record

