#	Name: ASD03330145
#	Creating user name:	WinNT
#	Creation time:	15. 06. 2019 20:36

#	Modifying user name:	WinNT
#	Modification time:	15. 06. 2019 20:36

#	Program:	/corina/corina34_cracker 3.40 0067  02.08.2006

@<TRIPOS>MOLECULE
ASD03330145
  35   37    0    0    0
SMALL
NO_CHARGES


@<TRIPOS>ATOM
   1 C1             0.0153     1.4076    -0.0095 C.2     
   2 C2            -0.0243     0.0421    -0.0096 C.2     
   3 C3             1.2099    -0.5689    -0.0041 C.2     
   4 C4             2.2756     0.3046     0.0006 C.2     
   5 S5             1.6839     1.9600    -0.0021 S.3     
   6 C6            -1.1208     2.2536    -0.0200 C.2     
   7 O7            -2.2459     1.7684    -0.0301 O.co2   
   8 O8            -0.9784     3.4706    -0.0189 O.co2   
   9 C9             1.3777    -2.0420    -0.0033 C.ar    
  10 C10            0.7791    -2.8128     0.9923 C.ar    
  11 C11            0.9372    -4.1830     0.9902 C.ar    
  12 C12            1.6918    -4.7946    -0.0015 C.ar    
  13 C13            2.2896    -4.0300    -0.9939 C.ar    
  14 C14            2.1299    -2.6600    -1.0014 C.ar    
  15 O15            1.8461    -6.1449    -0.0004 O.3     
  16 C16            2.6352    -6.7085    -1.0501 C.3     
  17 C17            3.6970    -0.0895     0.0070 C.ar    
  18 C18            4.5865     0.4754    -0.9127 C.ar    
  19 C19            5.9149     0.1027    -0.9009 C.ar    
  20 C20            6.3676    -0.8293     0.0198 C.ar    
  21 C21            5.4903    -1.3922     0.9335 C.ar    
  22 C22            4.1616    -1.0242     0.9355 C.ar    
  23 F23            7.6693    -1.1908     0.0264 F       
  24 Cl24           4.0203     1.6423    -2.0667 Cl      
  25 H25           -0.9501    -0.5141    -0.0134 H       
  26 H26            0.1924    -2.3376     1.7646 H       
  27 H27            0.4737    -4.7807     1.7612 H       
  28 H28            2.8766    -4.5088    -1.7637 H       
  29 H29            2.5912    -2.0662    -1.7766 H       
  30 H30            2.6776    -7.7912    -0.9315 H       
  31 H31            2.1857    -6.4658    -2.0130 H       
  32 H32            3.6442    -6.2984    -1.0064 H       
  33 H33            6.6031     0.5376    -1.6106 H       
  34 H34            5.8493    -2.1181     1.6482 H       
  35 H35            3.4803    -1.4607     1.6508 H       
@<TRIPOS>BOND
   1    1    2 2
   2    1    5 1
   3    1    6 1
   4    2    3 1
   5    2   25 1
   6    3    4 2
   7    3    9 1
   8    4    5 1
   9    4   17 1
  10    6    7 ar
  11    6    8 ar
  12    9   10 ar
  13    9   14 ar
  14   10   11 ar
  15   10   26 1
  16   11   12 ar
  17   11   27 1
  18   12   13 ar
  19   12   15 1
  20   13   14 ar
  21   13   28 1
  22   14   29 1
  23   15   16 1
  24   16   30 1
  25   16   31 1
  26   16   32 1
  27   17   18 ar
  28   17   22 ar
  29   18   19 ar
  30   18   24 1
  31   19   20 ar
  32   19   33 1
  33   20   21 ar
  34   20   23 1
  35   21   22 ar
  36   21   34 1
  37   22   35 1

#	End of record

