#	Name: ASD01870009
#	Creating user name:	WinNT
#	Creation time:	15. 06. 2019 19:38

#	Modifying user name:	WinNT
#	Modification time:	15. 06. 2019 19:38

#	Program:	/corina/corina34_cracker 3.40 0067  02.08.2006

@<TRIPOS>MOLECULE
ASD01870009
  39   42    0    0    0
SMALL
NO_CHARGES


@<TRIPOS>ATOM
   1 C1            -0.0168     1.3891     0.0097 C.ar    
   2 C2             0.0021    -0.0041     0.0020 C.ar    
   3 C3             1.1784    -0.6890    -0.0125 C.ar    
   4 C4             2.3935     0.0164    -0.0203 C.ar    
   5 C5             2.3742     1.4337    -0.0130 C.ar    
   6 C6             1.1405     2.1058     0.0025 C.ar    
   7 C7             3.6277    -0.6558    -0.0347 C.ar    
   8 C8             4.7846     0.0608    -0.0415 C.ar    
   9 C9             4.7657     1.4544    -0.0344 C.ar    
  10 C10            3.5898     2.1393    -0.0205 C.ar    
  11 C11            6.0670     2.2144    -0.0424 C.3     
  12 C12            6.4944     2.4787    -1.4875 C.3     
  13 C13            7.8633     3.2056    -1.5368 C.3     
  14 C14            6.7079     1.1850    -2.2297 C.2     
  15 O15            7.9666     1.1279    -2.6904 O.3     
  16 C16            8.8122     2.0488    -1.9403 C.3     
  17 C17            7.7553     4.1568    -2.7451 C.3     
  18 C18            6.2869     4.4390    -2.9526 C.2     
  19 C19            5.4820     3.3753    -2.1996 C.3     
  20 C20            5.7840     5.4254    -3.6528 C.2     
  21 O21            5.8712     0.3275    -2.3861 O.2     
  22 H22           -0.9639     1.9082     0.0170 H       
  23 H23           -0.9305    -0.5487     0.0080 H       
  24 H24            1.1776    -1.7690    -0.0176 H       
  25 H25            1.1105     3.1854     0.0078 H       
  26 H26            3.6578    -1.7354    -0.0400 H       
  27 H27            5.7317    -0.4582    -0.0522 H       
  28 H28            3.5906     3.2192    -0.0155 H       
  29 H29            5.9367     3.1636     0.4773 H       
  30 H30            6.8342     1.6265     0.4616 H       
  31 H31            8.1385     3.6943    -0.6022 H       
  32 H32            9.6205     2.4216    -2.5695 H       
  33 H33            9.2143     1.5594    -1.0532 H       
  34 H34            8.2870     5.0852    -2.5367 H       
  35 H35            8.1718     3.6801    -3.6325 H       
  36 H36            4.8941     2.7890    -2.9057 H       
  37 H37            4.8211     3.8552    -1.4777 H       
  38 H38            6.4403     6.1271    -4.1459 H       
  39 H39            4.7131     5.5368    -3.7369 H       
@<TRIPOS>BOND
   1    1    2 ar
   2    1    6 ar
   3    1   22 1
   4    2    3 ar
   5    2   23 1
   6    3    4 ar
   7    3   24 1
   8    4    5 ar
   9    4    7 ar
  10    5    6 ar
  11    5   10 ar
  12    6   25 1
  13    7    8 ar
  14    7   26 1
  15    8    9 ar
  16    8   27 1
  17    9   10 ar
  18    9   11 1
  19   10   28 1
  20   11   12 1
  21   11   29 1
  22   11   30 1
  23   12   14 1
  24   12   13 1
  25   12   19 1
  26   13   16 1
  27   13   17 1
  28   13   31 1
  29   14   15 1
  30   14   21 2
  31   15   16 1
  32   16   32 1
  33   16   33 1
  34   17   18 1
  35   17   34 1
  36   17   35 1
  37   18   19 1
  38   18   20 2
  39   19   36 1
  40   19   37 1
  41   20   38 1
  42   20   39 1

#	End of record

