#	Name: ASD01881559
#	Creating user name:	WinNT
#	Creation time:	15. 06. 2019 19:42

#	Modifying user name:	WinNT
#	Modification time:	15. 06. 2019 19:42

#	Program:	/corina/corina34_cracker 3.40 0067  02.08.2006

@<TRIPOS>MOLECULE
ASD01881559
  41   44    0    0    0
SMALL
NO_CHARGES


@<TRIPOS>ATOM
   1 N1            -0.0154     1.2839     0.0091 N.pl3   
   2 N2             0.0021    -0.0041     0.0020 N.2     
   3 N3             1.2033    -0.4649    -0.0119 N.2     
   4 C4             2.0741     0.5645    -0.0147 C.ar    
   5 C5             1.2843     1.7298    -0.0009 C.ar    
   6 C6             3.4670     0.6759    -0.0271 C.ar    
   7 C7             4.0484     1.9285    -0.0255 C.ar    
   8 C8             3.2560     3.0739    -0.0118 C.ar    
   9 C9             1.8924     2.9784    -0.0004 C.ar    
  10 C10           -1.2133     2.1272     0.0196 C.3     
  11 C11           -1.6228     2.4135     1.4657 C.3     
  12 C12           -2.8016     3.3933     1.5897 C.3     
  13 C13           -3.3238     2.4983     2.7260 C.3     
  14 C14           -2.5506     1.3442     2.0664 C.3     
  15 F15           -2.8342     2.8518     3.9879 F       
  16 F16           -4.7119     2.3245     2.7095 F       
  17 Br17           4.5472    -0.8761    -0.0451 Br      
  18 O18            5.4033     2.0444    -0.0370 O.3     
  19 C19            5.9411     3.3683    -0.0346 C.3     
  20 C20            7.4465     3.2990    -0.0485 C.ar    
  21 C21            8.1262     3.2737    -1.2519 C.ar    
  22 C22            9.5070     3.2100    -1.2646 C.ar    
  23 C23           10.2081     3.1722    -0.0739 C.ar    
  24 C24            9.5285     3.1984     1.1296 C.ar    
  25 C25            8.1478     3.2664     1.1423 C.ar    
  26 H26            3.7236     4.0474    -0.0103 H       
  27 H27            1.2882     3.8735     0.0104 H       
  28 H28           -1.0007     3.0667    -0.4906 H       
  29 H29           -2.0254     1.6113    -0.4926 H       
  30 H30           -0.7758     2.6665     2.1033 H       
  31 H31           -2.5080     4.3901     1.9188 H       
  32 H32           -3.4498     3.4096     0.7136 H       
  33 H33           -3.1303     0.8003     1.3206 H       
  34 H34           -2.0545     0.6868     2.7803 H       
  35 H35            5.5939     3.9031    -0.9187 H       
  36 H36            5.6098     3.8935     0.8612 H       
  37 H37            7.5784     3.3032    -2.1822 H       
  38 H38           10.0380     3.1895    -2.2048 H       
  39 H39           11.2869     3.1217    -0.0838 H       
  40 H40           10.0762     3.1685     2.0599 H       
  41 H41            7.6170     3.2907     2.0825 H       
@<TRIPOS>BOND
   1    1    2 1
   2    1    5 1
   3    1   10 1
   4    2    3 2
   5    3    4 1
   6    4    5 ar
   7    4    6 ar
   8    5    9 ar
   9    6    7 ar
  10    6   17 1
  11    7    8 ar
  12    7   18 1
  13    8    9 ar
  14    8   26 1
  15    9   27 1
  16   10   11 1
  17   10   28 1
  18   10   29 1
  19   11   12 1
  20   11   14 1
  21   11   30 1
  22   12   13 1
  23   12   31 1
  24   12   32 1
  25   13   14 1
  26   13   15 1
  27   13   16 1
  28   14   33 1
  29   14   34 1
  30   18   19 1
  31   19   20 1
  32   19   35 1
  33   19   36 1
  34   20   21 ar
  35   20   25 ar
  36   21   22 ar
  37   21   37 1
  38   22   23 ar
  39   22   38 1
  40   23   24 ar
  41   23   39 1
  42   24   25 ar
  43   24   40 1
  44   25   41 1

#	End of record

