#	Name: ASD08070645
#	Creating user name:	WinNT
#	Creation time:	15. 06. 2019 21:15

#	Modifying user name:	WinNT
#	Modification time:	15. 06. 2019 21:15

#	Program:	/corina/corina34_cracker 3.40 0067  02.08.2006

@<TRIPOS>MOLECULE
ASD08070645
  41   41    0    0    0
SMALL
NO_CHARGES


@<TRIPOS>ATOM
   1 C1            -0.0179     1.4718     0.0101 C.2     
   2 C2             0.0021    -0.0041     0.0020 C.ar    
   3 C3             1.2206    -0.6881    -0.0133 C.ar    
   4 C4             1.2351    -2.0649    -0.0209 C.ar    
   5 C5             0.0396    -2.7744    -0.0138 C.ar    
   6 C6            -1.1742    -2.0979     0.0014 C.ar    
   7 C7            -1.1971    -0.7209     0.0154 C.ar    
   8 O8             1.0266     2.0940     0.0035 O.2     
   9 N9            -1.1942     2.1298     0.0193 N.am    
  10 C10           -1.2140     3.5946     0.0273 C.3     
  11 C11           -1.1021     4.1141    -1.4074 C.3     
  12 C12            0.2626     3.7309    -1.9835 C.3     
  13 C13            0.3746     4.2504    -3.4182 C.3     
  14 C14           -2.5253     4.0835     0.6459 C.3     
  15 C15           -2.5802     3.6698     2.1179 C.3     
  16 C16           -3.8915     4.1587     2.7364 C.3     
  17 C17            2.5485    -2.8035    -0.0374 C.3     
  18 O18            0.0580    -4.1314    -0.0222 O.3     
  19 H19            2.1498    -0.1376    -0.0195 H       
  20 H20           -2.1008    -2.6527     0.0069 H       
  21 H21           -2.1407    -0.1959     0.0317 H       
  22 H22           -2.0275     1.6334     0.0205 H       
  23 H23           -0.3744     3.9661     0.6148 H       
  24 H24           -1.8906     3.6720    -2.0164 H       
  25 H25           -1.2059     5.1991    -1.4101 H       
  26 H26            1.0511     4.1730    -1.3744 H       
  27 H27            0.3665     2.6459    -1.9808 H       
  28 H28            0.2707     5.3354    -3.4209 H       
  29 H29            1.3468     3.9775    -3.8286 H       
  30 H30           -0.4140     3.8084    -4.0273 H       
  31 H31           -2.5794     5.1696     0.5714 H       
  32 H32           -3.3661     3.6403     0.1123 H       
  33 H33           -2.5261     2.5837     2.1923 H       
  34 H34           -1.7394     4.1130     2.6514 H       
  35 H35           -3.9456     5.2448     2.6619 H       
  36 H36           -4.7323     3.7155     2.2028 H       
  37 H37           -3.9306     3.8640     3.7851 H       
  38 H38            2.8750    -2.9872     0.9862 H       
  39 H39            2.4240    -3.7546    -0.5552 H       
  40 H40            3.2965    -2.2031    -0.5551 H       
  41 H41            0.0718    -4.5300     0.8587 H       
@<TRIPOS>BOND
   1    1    2 1
   2    1    8 2
   3    1    9 am
   4    2    3 ar
   5    2    7 ar
   6    3    4 ar
   7    3   19 1
   8    4    5 ar
   9    4   17 1
  10    5    6 ar
  11    5   18 1
  12    6    7 ar
  13    6   20 1
  14    7   21 1
  15    9   10 1
  16    9   22 1
  17   10   11 1
  18   10   14 1
  19   10   23 1
  20   11   12 1
  21   11   24 1
  22   11   25 1
  23   12   13 1
  24   12   26 1
  25   12   27 1
  26   13   28 1
  27   13   29 1
  28   13   30 1
  29   14   15 1
  30   14   31 1
  31   14   32 1
  32   15   16 1
  33   15   33 1
  34   15   34 1
  35   16   35 1
  36   16   36 1
  37   16   37 1
  38   17   38 1
  39   17   39 1
  40   17   40 1
  41   18   41 1

#	End of record

