#	Name: ASD01884231
#	Creating user name:	WinNT
#	Creation time:	15. 06. 2019 19:47

#	Modifying user name:	WinNT
#	Modification time:	15. 06. 2019 19:47

#	Program:	/corina/corina34_cracker 3.40 0067  02.08.2006

@<TRIPOS>MOLECULE
ASD01884231
  55   58    0    0    0
SMALL
NO_CHARGES


@<TRIPOS>ATOM
   1 C1             0.0164     1.4390     0.5460 C.ar    
   2 C2             0.0519     0.0681     0.8017 C.ar    
   3 C3            -1.1028    -0.6255     1.0670 C.ar    
   4 C4            -2.3470     0.0254     1.0877 C.ar    
   5 C5            -2.3664     1.3980     0.8298 C.ar    
   6 C6            -1.2080     2.1026     0.5675 C.ar    
   7 N7            -3.5898    -0.5273     1.3369 N.am    
   8 C8            -4.6628     0.2688     1.3107 C.2     
   9 S9            -4.0621     1.8919     0.9332 S.3     
  10 C10            1.2685     2.1822     0.2606 C.ar    
  11 O11           -5.8195    -0.0559     1.5063 O.2     
  12 C12           -3.7276    -1.9574     1.6235 C.3     
  13 C13           -3.6116    -2.1888     3.1314 C.3     
  14 C14           -4.7174    -1.4154     3.8526 C.3     
  15 C15           -3.7555    -3.6823     3.4307 C.3     
  16 C16           -2.2462    -1.7002     3.6189 C.3     
  17 C17            1.2254     3.5518     0.0060 C.ar    
  18 C18            2.3914     4.2424    -0.2590 C.ar    
  19 C19            3.6037     3.5797    -0.2733 C.ar    
  20 C20            3.6563     2.2137    -0.0209 C.ar    
  21 C21            2.4903     1.5143     0.2522 C.ar    
  22 N22            4.8836     1.5469    -0.0372 N.3     
  23 C23            4.7473     0.2106    -0.6213 C.3     
  24 C24            5.4814     1.5149     1.2996 C.3     
  25 C25            6.9714     1.1746     1.1965 C.3     
  26 C26            6.1254    -0.3285    -1.0172 C.3     
  27 S27            7.1406    -0.4889     0.4826 S.o2    
  28 O28            8.4945    -0.6840     0.0976 O.2     
  29 O29            6.5207    -1.4242     1.3545 O.2     
  30 H30            0.9977    -0.4532     0.7906 H       
  31 H31           -1.0537    -1.6866     1.2620 H       
  32 H32           -1.2523     3.1637     0.3714 H       
  33 H33           -4.7003    -2.3055     1.2762 H       
  34 H34           -2.9398    -2.5084     1.1097 H       
  35 H35           -5.6901    -1.7635     3.5053 H       
  36 H36           -4.6348    -1.5802     4.9269 H       
  37 H37           -4.6149    -0.3514     3.6394 H       
  38 H38           -2.9677    -4.2334     2.9170 H       
  39 H39           -3.6729    -3.8472     4.5050 H       
  40 H40           -4.7282    -4.0305     3.0834 H       
  41 H41           -2.1437    -0.6361     3.4057 H       
  42 H42           -2.1636    -1.8650     4.6932 H       
  43 H43           -1.4585    -2.2512     3.1052 H       
  44 H44            0.2796     4.0731     0.0156 H       
  45 H45            2.3556     5.3037    -0.4560 H       
  46 H46            4.5128     4.1244    -0.4814 H       
  47 H47            2.5287     0.4530     0.4485 H       
  48 H48            4.2926    -0.4590     0.1087 H       
  49 H49            4.1122     0.2651    -1.5055 H       
  50 H50            5.3647     2.4904     1.7718 H       
  51 H51            4.9784     0.7595     1.9032 H       
  52 H52            7.4687     1.9008     0.5535 H       
  53 H53            7.4205     1.1938     2.1895 H       
  54 H54            6.0144    -1.3044    -1.4898 H       
  55 H55            6.6036     0.3638    -1.7101 H       
@<TRIPOS>BOND
   1    1    2 ar
   2    1   10 1
   3    1    6 ar
   4    2    3 ar
   5    2   30 1
   6    3    4 ar
   7    3   31 1
   8    4    5 ar
   9    4    7 1
  10    5    6 ar
  11    5    9 1
  12    6   32 1
  13    7    8 am
  14    7   12 1
  15    8    9 1
  16    8   11 2
  17   10   17 ar
  18   10   21 ar
  19   12   13 1
  20   12   33 1
  21   12   34 1
  22   13   14 1
  23   13   15 1
  24   13   16 1
  25   14   35 1
  26   14   36 1
  27   14   37 1
  28   15   38 1
  29   15   39 1
  30   15   40 1
  31   16   41 1
  32   16   42 1
  33   16   43 1
  34   17   18 ar
  35   17   44 1
  36   18   19 ar
  37   18   45 1
  38   19   20 ar
  39   19   46 1
  40   20   21 ar
  41   20   22 1
  42   21   47 1
  43   22   23 1
  44   22   24 1
  45   23   26 1
  46   23   48 1
  47   23   49 1
  48   24   25 1
  49   24   50 1
  50   24   51 1
  51   25   27 1
  52   25   52 1
  53   25   53 1
  54   26   27 1
  55   26   54 1
  56   26   55 1
  57   27   28 2
  58   27   29 2

#	End of record

