#	Name: ASD01814851
#	Creating user name:	WinNT
#	Creation time:	15. 06. 2019 19:33

#	Modifying user name:	WinNT
#	Modification time:	15. 06. 2019 19:33

#	Program:	/corina/corina34_cracker 3.40 0067  02.08.2006

@<TRIPOS>MOLECULE
ASD01814851
  47   50    0    0    0
SMALL
NO_CHARGES


@<TRIPOS>ATOM
   1 C1            -0.1959     1.1622     0.0757 C.2     
   2 C2            -0.1101    -0.2365     0.0729 C.2     
   3 C3             1.1160    -0.8339     0.0404 C.2     
   4 C4             2.2721    -0.0364     0.0104 C.2     
   5 N5             2.1588     1.3273     0.0142 N.am    
   6 C6             0.9281     1.9132     0.0464 C.2     
   7 C7             3.5333    -0.6479    -0.0229 C.2     
   8 C8             4.6627     0.1175    -0.0518 C.2     
   9 C9             4.5424     1.5196    -0.0483 C.2     
  10 C10            3.2601     2.1047    -0.0141 C.2     
  11 O11            3.1466     3.3188    -0.0111 O.2     
  12 C12            5.7389     2.3637    -0.0785 C.2     
  13 O13            5.6168     3.7071    -0.0749 O.3     
  14 O14            6.8427     1.8534    -0.1068 O.2     
  15 C15            3.6417    -2.1510    -0.0262 C.3     
  16 N16            3.7612    -2.6303    -1.4096 N.3     
  17 C17            4.1055    -4.0586    -1.4443 C.3     
  18 C18            4.1422    -4.5366    -2.8978 C.3     
  19 N19            5.1256    -3.7424    -3.6473 N.3     
  20 C20            4.7813    -2.3141    -3.6126 C.3     
  21 C21            4.7446    -1.8361    -2.1591 C.3     
  22 H22            5.0838    -4.2080    -0.9876 H       
  23 C23            5.2389    -4.1969    -4.9593 C.ar    
  24 C24            4.1519    -4.1421    -5.8322 C.ar    
  25 C25            6.4438    -4.7134    -5.4364 C.ar    
  26 C26            6.5144    -5.1528    -6.7429 C.ar    
  27 N27            5.4617    -5.0883    -7.5364 N.ar    
  28 C28            4.3058    -4.6022    -7.1243 C.ar    
  29 H29            4.4257    -5.5886    -2.9276 H       
  30 H30            3.1566    -4.4124    -3.3464 H       
  31 Cl31           7.8349    -4.8018    -4.4016 Cl      
  32 Cl32           2.6272    -3.5047    -5.3005 Cl      
  33 H33           -1.1633     1.6420     0.0967 H       
  34 H34           -1.0075    -0.8369     0.0966 H       
  35 H35            1.1971    -1.9109     0.0382 H       
  36 H36            0.8502     2.9904     0.0492 H       
  37 H37            5.6372    -0.3472    -0.0768 H       
  38 H38            6.4349     4.2223    -0.0956 H       
  39 H39            4.5227    -2.4530     0.5403 H       
  40 H40            2.7506    -2.5806     0.4315 H       
  41 H41            3.3560    -4.6268    -0.8934 H       
  42 H42            5.5308    -1.7459    -4.1635 H       
  43 H43            3.8030    -2.1647    -4.0694 H       
  44 H44            4.4610    -0.7840    -2.1293 H       
  45 H45            5.7302    -1.9603    -1.7105 H       
  46 H46            7.4431    -5.5542    -7.1209 H       
  47 H47            3.4687    -4.5674    -7.8058 H       
@<TRIPOS>BOND
   1    1    2 1
   2    1    6 2
   3    1   33 1
   4    2    3 2
   5    2   34 1
   6    3    4 1
   7    3   35 1
   8    4    5 1
   9    4    7 2
  10    5    6 1
  11    5   10 am
  12    6   36 1
  13    7   15 1
  14    7    8 1
  15    8    9 2
  16    8   37 1
  17    9   10 1
  18    9   12 1
  19   10   11 2
  20   12   13 1
  21   12   14 2
  22   13   38 1
  23   15   16 1
  24   15   39 1
  25   15   40 1
  26   16   17 1
  27   16   21 1
  28   17   18 1
  29   17   22 1
  30   17   41 1
  31   18   19 1
  32   18   29 1
  33   18   30 1
  34   19   20 1
  35   19   23 1
  36   20   21 1
  37   20   42 1
  38   20   43 1
  39   21   44 1
  40   21   45 1
  41   23   24 ar
  42   23   25 ar
  43   24   32 1
  44   24   28 ar
  45   25   26 ar
  46   25   31 1
  47   26   27 ar
  48   26   46 1
  49   27   28 ar
  50   28   47 1

#	End of record

