#	Name: ASD01900794
#	Creating user name:	WinNT
#	Creation time:	15. 06. 2019 19:52

#	Modifying user name:	WinNT
#	Modification time:	15. 06. 2019 19:52

#	Program:	/corina/corina34_cracker 3.40 0067  02.08.2006

@<TRIPOS>MOLECULE
ASD01900794
  29   31    0    0    0
SMALL
NO_CHARGES


@<TRIPOS>ATOM
   1 C1            -0.0161     1.3859     0.0171 C.ar    
   2 N2             0.0021    -0.0041     0.0020 N.pl3   
   3 C3             1.2217    -0.6889    -0.1193 C.2     
   4 C4            -1.2337     2.0597     0.0241 C.ar    
   5 N5             1.1255     2.0570     0.0302 N.ar    
   6 C6             1.1523     3.3763     0.0447 C.ar    
   7 C7            -0.0180     4.1083     0.0467 C.ar    
   8 C8            -1.2369     3.4425     0.0390 C.ar    
   9 N9             2.3620    -0.0602    -0.3195 N.2     
  10 C10            3.4331    -0.7957    -0.4169 C.2     
  11 S11            2.9886    -2.4910    -0.2397 S.3     
  12 C12            1.3017    -2.0246    -0.0332 C.2     
  13 C13            4.8040    -0.2880    -0.6414 C.2     
  14 C14            5.9388    -1.0429    -0.7463 C.2     
  15 C15            5.1789     1.0633    -0.7926 C.2     
  16 N16            6.4719     1.1074    -0.9721 N.2     
  17 N17            6.9711    -0.2003    -0.9470 N.pl3   
  18 C18            2.4778     4.0931     0.0597 C.3     
  19 H19           -0.8279    -0.5008     0.0753 H       
  20 H20           -2.1634     1.5102     0.0175 H       
  21 H21            0.0139     5.1877     0.0587 H       
  22 H22           -2.1664     3.9924     0.0401 H       
  23 H23            0.4740    -2.6990     0.1291 H       
  24 H24            5.9975    -2.1192    -0.6797 H       
  25 H25            4.5131     1.9132    -0.7647 H       
  26 H26            7.9005    -0.4560    -1.0555 H       
  27 H27            2.8030     4.2771    -0.9643 H       
  28 H28            2.3713     5.0431     0.5833 H       
  29 H29            3.2180     3.4775     0.5709 H       
@<TRIPOS>BOND
   1    1    2 1
   2    1    4 ar
   3    1    5 ar
   4    2    3 1
   5    2   19 1
   6    3    9 1
   7    3   12 2
   8    4    8 ar
   9    4   20 1
  10    5    6 ar
  11    6    7 ar
  12    6   18 1
  13    7    8 ar
  14    7   21 1
  15    8   22 1
  16    9   10 2
  17   10   11 1
  18   10   13 1
  19   11   12 1
  20   12   23 1
  21   13   14 2
  22   13   15 1
  23   14   17 1
  24   14   24 1
  25   15   16 2
  26   15   25 1
  27   16   17 1
  28   17   26 1
  29   18   27 1
  30   18   28 1
  31   18   29 1

#	End of record

