#	Name: ASD01917795
#	Creating user name:	WinNT
#	Creation time:	15. 06. 2019 20:10

#	Modifying user name:	WinNT
#	Modification time:	15. 06. 2019 20:10

#	Program:	/corina/corina34_cracker 3.40 0067  02.08.2006

@<TRIPOS>MOLECULE
ASD01917795
  42   45    0    0    0
SMALL
NO_CHARGES


@<TRIPOS>ATOM
   1 C1             0.0115     1.2554    -0.1071 C.2     
   2 C2            -0.0149    -0.0909    -0.0803 C.2     
   3 C3            -1.2721    -0.9202    -0.0107 C.3     
   4 C4            -2.4258    -0.0313     0.4704 C.3     
   5 N5            -2.3859     1.2461    -0.2572 N.am    
   6 C6            -1.2197     2.1263    -0.0608 C.3     
   7 C7            -3.3897     1.6029    -1.0828 C.2     
   8 O8            -4.2807     0.8149    -1.3320 O.2     
   9 C9            -3.4069     2.9544    -1.6858 C.ar    
  10 O10            1.2955     1.6310    -0.1738 O.3     
  11 C11            2.0430     0.5160    -0.1839 C.2     
  12 N12            1.2530    -0.5212    -0.1271 N.2     
  13 C13            3.5478     0.4695    -0.2504 C.3     
  14 O14            3.9631     0.4271    -1.6171 O.3     
  15 C15            5.3005     0.3819    -1.8544 C.ar    
  16 C16            5.7738     0.3392    -3.1577 C.ar    
  17 C17            7.1337     0.2932    -3.3963 C.ar    
  18 C18            8.0228     0.2898    -2.3374 C.ar    
  19 C19            7.5536     0.3319    -1.0375 C.ar    
  20 C20            6.1948     0.3842    -0.7938 C.ar    
  21 C21           -4.3674     3.2715    -2.6473 C.ar    
  22 C22           -4.3694     4.5452    -3.2029 C.ar    
  23 C23           -3.4136     5.4521    -2.7776 C.ar    
  24 C24           -2.4895     5.0674    -1.8179 C.ar    
  25 N25           -2.5116     3.8579    -1.3039 N.ar    
  26 F26           -5.2812     2.3539    -3.0325 F       
  27 H27           -1.5038    -1.3158    -0.9996 H       
  28 H28           -1.1286    -1.7431     0.6895 H       
  29 H29           -3.3753    -0.5307     0.2779 H       
  30 H30           -2.3210     0.1549     1.5393 H       
  31 H31           -1.2874     2.6212     0.9080 H       
  32 H32           -1.1783     2.8703    -0.8563 H       
  33 H33            3.9602     1.3583     0.2272 H       
  34 H34            3.9070    -0.4205     0.2663 H       
  35 H35            5.0797     0.3414    -3.9852 H       
  36 H36            7.5027     0.2596    -4.4108 H       
  37 H37            9.0856     0.2539    -2.5260 H       
  38 H38            8.2501     0.3285    -0.2121 H       
  39 H39            5.8287     0.4171     0.2217 H       
  40 H40           -5.0995     4.8212    -3.9494 H       
  41 H41           -3.3877     6.4500    -3.1899 H       
  42 H42           -1.7431     5.7733    -1.4849 H       
@<TRIPOS>BOND
   1    1    2 2
   2    1   10 1
   3    1    6 1
   4    2    3 1
   5    2   12 1
   6    3    4 1
   7    3   27 1
   8    3   28 1
   9    4    5 1
  10    4   29 1
  11    4   30 1
  12    5    6 1
  13    5    7 am
  14    6   31 1
  15    6   32 1
  16    7    8 2
  17    7    9 1
  18    9   21 ar
  19    9   25 ar
  20   10   11 1
  21   11   12 2
  22   11   13 1
  23   13   14 1
  24   13   33 1
  25   13   34 1
  26   14   15 1
  27   15   16 ar
  28   15   20 ar
  29   16   17 ar
  30   16   35 1
  31   17   18 ar
  32   17   36 1
  33   18   19 ar
  34   18   37 1
  35   19   20 ar
  36   19   38 1
  37   20   39 1
  38   21   22 ar
  39   21   26 1
  40   22   23 ar
  41   22   40 1
  42   23   24 ar
  43   23   41 1
  44   24   25 ar
  45   24   42 1

#	End of record

