#	Name: ASD01140716
#	Creating user name:	WinNT
#	Creation time:	15. 06. 2019 19:01

#	Modifying user name:	WinNT
#	Modification time:	15. 06. 2019 19:01

#	Program:	/corina/corina34_cracker 3.40 0067  02.08.2006

@<TRIPOS>MOLECULE
ASD01140716
  35   38    0    0    0
SMALL
NO_CHARGES


@<TRIPOS>ATOM
   1 C1            -0.0173     1.4248     0.0099 C.3     
   2 O2             0.0021    -0.0041     0.0020 O.3     
   3 C3             0.6058    -0.6071    -1.0557 C.ar    
   4 C4             1.1729     0.1616    -2.0623 C.ar    
   5 C5             1.7872    -0.4502    -3.1388 C.ar    
   6 C6             1.8384    -1.8282    -3.2165 C.ar    
   7 C7             1.2719    -2.6031    -2.2117 C.ar    
   8 C8             0.6605    -1.9904    -1.1269 C.ar    
   9 N9             1.3232    -3.9996    -2.2906 N.am    
  10 N10            0.7829    -4.8729    -1.3434 N.2     
  11 C11            0.9835    -6.1137    -1.6832 C.2     
  12 C12            1.7210    -6.1061    -2.9671 C.2     
  13 C13            2.0631    -7.2996    -3.5528 C.2     
  14 N14            1.7465    -8.4779    -2.9922 N.pl3   
  15 C15            1.0592    -8.5828    -1.7949 C.ar    
  16 C16            0.7598    -9.8322    -1.2635 C.ar    
  17 C17            0.0751    -9.9299    -0.0700 C.ar    
  18 C18           -0.3221    -8.7900     0.6121 C.ar    
  19 Cl19          -1.1829    -8.9347     2.1127 Cl      
  20 C20           -0.0344    -7.5398     0.1010 C.ar    
  21 C21            0.6552    -7.4294    -1.1019 C.ar    
  22 C22            1.8971    -4.6950    -3.2961 C.2     
  23 O23            2.4532    -4.2360    -4.2805 O.2     
  24 H24            1.0053     1.8021     0.0021 H       
  25 H25           -0.5445     1.7859    -0.8732 H       
  26 H26           -0.5275     1.7763     0.9067 H       
  27 H27            1.1338     1.2394    -2.0047 H       
  28 H28            2.2277     0.1504    -3.9208 H       
  29 H29            2.3187    -2.3038    -4.0588 H       
  30 H30            0.2236    -2.5902    -0.3422 H       
  31 H31            2.6007    -7.2906    -4.4895 H       
  32 H32            2.0112    -9.2928    -3.4469 H       
  33 H33            1.0634   -10.7274    -1.7860 H       
  34 H34           -0.1541   -10.9037     0.3369 H       
  35 H35           -0.3442    -6.6520     0.6322 H       
@<TRIPOS>BOND
   1    1    2 1
   2    1   24 1
   3    1   25 1
   4    1   26 1
   5    2    3 1
   6    3    8 ar
   7    3    4 ar
   8    4    5 ar
   9    4   27 1
  10    5    6 ar
  11    5   28 1
  12    6    7 ar
  13    6   29 1
  14    7    8 ar
  15    7    9 1
  16    8   30 1
  17    9   22 am
  18    9   10 1
  19   10   11 2
  20   11   21 1
  21   11   12 1
  22   12   13 2
  23   12   22 1
  24   13   14 1
  25   13   31 1
  26   14   15 1
  27   14   32 1
  28   15   21 ar
  29   15   16 ar
  30   16   17 ar
  31   16   33 1
  32   17   18 ar
  33   17   34 1
  34   18   19 1
  35   18   20 ar
  36   20   21 ar
  37   20   35 1
  38   22   23 2

#	End of record

