#	Name: ASD01330013
#	Creating user name:	WinNT
#	Creation time:	15. 06. 2019 19:16

#	Modifying user name:	WinNT
#	Modification time:	15. 06. 2019 19:16

#	Program:	/corina/corina34_cracker 3.40 0067  02.08.2006

@<TRIPOS>MOLECULE
ASD01330013
  12   11    0    0    0
SMALL
NO_CHARGES


@<TRIPOS>ATOM
   1 C1            -0.0179     1.4714     0.0101 C.2     
   2 C2             0.0021    -0.0041     0.0020 C.2     
   3 C3             1.1741    -0.6597    -0.0127 C.2     
   4 C4             1.1941    -2.1352    -0.0208 C.2     
   5 O5             1.0254     2.0929     0.0035 O.2     
   6 O6            -1.1939     2.1293     0.0193 O.3     
   7 O7             0.1507    -2.7567    -0.0142 O.2     
   8 O8             2.3701    -2.7930    -0.0356 O.3     
   9 H9            -0.9258    -0.5567     0.0079 H       
  10 H10            2.1020    -0.1070    -0.0186 H       
  11 H11           -1.1564     3.0955     0.0244 H       
  12 H12            2.3326    -3.7593    -0.0404 H       
@<TRIPOS>BOND
   1    1    2 1
   2    1    5 2
   3    1    6 1
   4    2    3 2
   5    2    9 1
   6    3    4 1
   7    3   10 1
   8    4    7 2
   9    4    8 1
  10    6   11 1
  11    8   12 1

#	End of record

