#	Name: ASD01812127
#	Creating user name:	WinNT
#	Creation time:	15. 06. 2019 19:28

#	Modifying user name:	WinNT
#	Modification time:	15. 06. 2019 19:28

#	Program:	/corina/corina34_cracker 3.40 0067  02.08.2006

@<TRIPOS>MOLECULE
ASD01812127
  54   59    0    0    0
SMALL
NO_CHARGES


@<TRIPOS>ATOM
   1 C1             0.3185     1.7007     0.0551 C.ar    
   2 C2             0.2123     0.3137     0.0397 C.ar    
   3 C3             1.3238    -0.4748     0.0127 C.ar    
   4 C4             2.5966     0.1159     0.0001 C.ar    
   5 C5             2.7009     1.5282     0.0158 C.ar    
   6 C6             1.5402     2.3080     0.0435 C.ar    
   7 C7             3.7648    -0.6743    -0.0282 C.ar    
   8 C8             4.9944    -0.1067    -0.0409 C.ar    
   9 C9             5.1532     1.2878    -0.0263 C.ar    
  10 C10            4.0294     2.1336     0.0026 C.ar    
  11 C11            6.4813     1.9142    -0.0408 C.2     
  12 N12            6.5333     3.2664    -0.0259 N.am    
  13 C13            5.3920     3.9989     0.0019 C.2     
  14 N14            4.2053     3.4655     0.0148 N.2     
  15 O15            7.4970     1.2426    -0.0649 O.2     
  16 C16            3.6424    -2.1763    -0.0442 C.3     
  17 C17            3.5367    -2.6867     1.3698 C.2     
  18 C18            2.4064    -2.7900     2.1027 C.2     
  19 C19            7.8320     3.9442    -0.0393 C.3     
  20 C20            7.9725     4.8063     1.2190 C.3     
  21 C21            9.2991     5.5696     1.1561 C.3     
  22 C22            9.3387     6.4036    -0.1270 C.3     
  23 O23            9.1717     5.5450    -1.2570 O.3     
  24 C24            7.9283     4.8410    -1.2763 C.3     
  25 O25            7.9574     3.9686     2.3766 O.3     
  26 N26            2.7201    -3.2838     3.3029 N.2     
  27 C27            4.0268    -3.4998     3.3565 C.2     
  28 N28            4.5667    -3.1379     2.1495 N.pl3   
  29 C29            4.8647    -4.0027     4.3720 C.2     
  30 C30            6.2001    -4.1156     4.1389 C.2     
  31 C31            6.7241    -3.7307     2.8938 C.2     
  32 C32            5.9081    -3.2578     1.9284 C.2     
  33 H33           -0.5771     2.3041     0.0719 H       
  34 H34           -0.7654    -0.1452     0.0496 H       
  35 H35            1.2253    -1.5503     0.0014 H       
  36 H36            1.6106     3.3856     0.0553 H       
  37 H37            5.8696    -0.7392    -0.0622 H       
  38 H38            5.4721     5.0759     0.0139 H       
  39 H39            2.7503    -2.4622    -0.6014 H       
  40 H40            4.5225    -2.6075    -0.5213 H       
  41 H41            1.4146    -2.5181     1.7728 H       
  42 H42            8.6306     3.2028    -0.0639 H       
  43 H43            7.1460     5.5152     1.2695 H       
  44 H44            9.3820     6.2277     2.0211 H       
  45 H45           10.1274     4.8610     1.1557 H       
  46 H46            8.5345     7.1392    -0.1074 H       
  47 H47           10.2982     6.9157    -0.1982 H       
  48 H48            7.8718     4.2274    -2.1754 H       
  49 H49            7.1056     5.5561    -1.2717 H       
  50 H50            8.0425     4.4494     3.2112 H       
  51 H51            4.4508    -4.2953     5.3256 H       
  52 H52            6.8545    -4.4990     4.9078 H       
  53 H53            7.7840    -3.8192     2.7060 H       
  54 H54            6.3214    -2.9647     0.9746 H       
@<TRIPOS>BOND
   1    1    2 ar
   2    1    6 ar
   3    1   33 1
   4    2    3 ar
   5    2   34 1
   6    3    4 ar
   7    3   35 1
   8    4    5 ar
   9    4    7 ar
  10    5    6 ar
  11    5   10 ar
  12    6   36 1
  13    7    8 ar
  14    7   16 1
  15    8    9 ar
  16    8   37 1
  17    9   10 ar
  18    9   11 1
  19   10   14 1
  20   11   12 am
  21   11   15 2
  22   12   13 1
  23   12   19 1
  24   13   14 2
  25   13   38 1
  26   16   17 1
  27   16   39 1
  28   16   40 1
  29   17   18 2
  30   17   28 1
  31   18   26 1
  32   18   41 1
  33   19   20 1
  34   19   24 1
  35   19   42 1
  36   20   21 1
  37   20   25 1
  38   20   43 1
  39   21   22 1
  40   21   44 1
  41   21   45 1
  42   22   23 1
  43   22   46 1
  44   22   47 1
  45   23   24 1
  46   24   48 1
  47   24   49 1
  48   25   50 1
  49   26   27 2
  50   27   28 1
  51   27   29 1
  52   28   32 1
  53   29   30 2
  54   29   51 1
  55   30   31 1
  56   30   52 1
  57   31   32 2
  58   31   53 1
  59   32   54 1

#	End of record

