#	Name: ASD07300244
#	Creating user name:	WinNT
#	Creation time:	15. 06. 2019 21:09

#	Modifying user name:	WinNT
#	Modification time:	15. 06. 2019 21:09

#	Program:	/corina/corina34_cracker 3.40 0067  02.08.2006

@<TRIPOS>MOLECULE
ASD07300244
  46   50    0    0    0
SMALL
NO_CHARGES


@<TRIPOS>ATOM
   1 C1            -0.3998     1.2444    -0.7085 C.ar    
   2 C2            -0.4690    -0.1238    -0.9887 C.ar    
   3 C3             0.6952    -0.8773    -0.9891 C.ar    
   4 C4             1.8926    -0.2352    -0.7084 C.ar    
   5 C5             1.8873     1.1207    -0.4402 C.ar    
   6 N6             0.7650     1.8138    -0.4464 N.ar    
   7 C7            -2.5236     0.7087    -1.0776 C.2     
   8 N8            -1.7010     1.7297    -0.7731 N.am    
   9 N9            -1.8083    -0.4234    -1.2196 N.am    
  10 O10           -3.7300     0.7964    -1.2094 O.2     
  11 C11           -2.3480    -1.7444    -1.5515 C.3     
  12 C12           -2.7154    -2.4835    -0.2632 C.3     
  13 C13           -2.0912     3.0598    -0.5566 C.ar    
  14 C14           -3.4301     3.4147    -0.6519 C.ar    
  15 C15           -3.8143     4.7234    -0.4389 C.ar    
  16 C16           -2.8614     5.6852    -0.1292 C.ar    
  17 C17           -1.5220     5.3299    -0.0340 C.ar    
  18 C18           -1.1391     4.0199    -0.2415 C.ar    
  19 N19           -3.2506     7.0124     0.0864 N.pl3   
  20 C20           -4.4970     7.2895     0.6096 C.2     
  21 N21           -5.3522     6.3919     1.0323 N.2     
  22 C22           -6.4761     7.0088     1.4826 C.ar    
  23 C23           -6.2833     8.3908     1.3182 C.ar    
  24 N24           -5.0205     8.5409     0.7693 N.pl3   
  25 C25           -7.6739     6.5419     2.0288 C.ar    
  26 C26           -8.6516     7.4381     2.3999 C.ar    
  27 C27           -8.4561     8.8010     2.2354 C.ar    
  28 C28           -7.2785     9.2783     1.6969 C.ar    
  29 H29            0.6704    -1.9359    -1.2018 H       
  30 H30            2.8196    -0.7893    -0.6992 H       
  31 H31            2.8187     1.6216    -0.2212 H       
  32 H32           -3.2378    -1.6283    -2.1702 H       
  33 H33           -1.5979    -2.3166    -2.0974 H       
  34 H34           -3.4655    -1.9113     0.2827 H       
  35 H35           -3.1169    -3.4663    -0.5101 H       
  36 H36           -1.8256    -2.5995     0.3555 H       
  37 H37           -4.1710     2.6668    -0.8930 H       
  38 H38           -4.8558     4.9994    -0.5134 H       
  39 H39           -0.7808     6.0776     0.2068 H       
  40 H40           -0.0982     3.7427    -0.1628 H       
  41 H41           -2.6442     7.7372    -0.1320 H       
  42 H42           -4.5891     9.3786     0.5388 H       
  43 H43           -7.8329     5.4817     2.1594 H       
  44 H44           -9.5777     7.0766     2.8218 H       
  45 H45           -9.2306     9.4935     2.5303 H       
  46 H46           -7.1323    10.3410     1.5715 H       
@<TRIPOS>BOND
   1    1    2 ar
   2    1    6 ar
   3    1    8 1
   4    2    3 ar
   5    2    9 1
   6    3    4 ar
   7    3   29 1
   8    4    5 ar
   9    4   30 1
  10    5    6 ar
  11    5   31 1
  12    7    8 am
  13    7    9 am
  14    7   10 2
  15    8   13 1
  16    9   11 1
  17   11   12 1
  18   11   32 1
  19   11   33 1
  20   12   34 1
  21   12   35 1
  22   12   36 1
  23   13   14 ar
  24   13   18 ar
  25   14   15 ar
  26   14   37 1
  27   15   16 ar
  28   15   38 1
  29   16   17 ar
  30   16   19 1
  31   17   18 ar
  32   17   39 1
  33   18   40 1
  34   19   20 1
  35   19   41 1
  36   20   21 2
  37   20   24 1
  38   21   22 1
  39   22   23 ar
  40   22   25 ar
  41   23   24 1
  42   23   28 ar
  43   24   42 1
  44   25   26 ar
  45   25   43 1
  46   26   27 ar
  47   26   44 1
  48   27   28 ar
  49   27   45 1
  50   28   46 1

#	End of record

