#	Name: ASD03731476
#	Creating user name:	WinNT
#	Creation time:	15. 06. 2019 20:45

#	Modifying user name:	WinNT
#	Modification time:	15. 06. 2019 20:45

#	Program:	/corina/corina34_cracker 3.40 0067  02.08.2006

@<TRIPOS>MOLECULE
ASD03731476
  62   68    0    0    0
SMALL
NO_CHARGES


@<TRIPOS>ATOM
   1 C1            -0.0179     1.4724     0.0101 C.2     
   2 C2             0.0021    -0.0041     0.0020 C.ar    
   3 C3             1.2204    -0.6877    -0.0133 C.ar    
   4 C4             1.2353    -2.0648    -0.0203 C.ar    
   5 C5             0.0397    -2.7748    -0.0123 C.ar    
   6 C6            -1.1748    -2.0977     0.0025 C.ar    
   7 C7            -1.1972    -0.7207     0.0155 C.ar    
   8 O8             1.0265     2.0946     0.0035 O.2     
   9 N9            -1.1942     2.1304     0.0193 N.am    
  10 N10            0.0586    -4.1730    -0.0195 N.pl3   
  11 N11            1.2016    -4.9830    -0.0342 N.2     
  12 C12            0.8176    -6.2336    -0.0361 C.2     
  13 C13           -0.5816    -6.2653    -0.0227 C.2     
  14 C14           -1.0278    -4.9883    -0.0075 C.2     
  15 C15           -1.2140     3.5952     0.0273 C.3     
  16 C16           -2.6633     4.0856     0.0369 C.3     
  17 C17           -2.6841     5.6154     0.0453 C.3     
  18 O18           -8.8975     2.7089     2.1987 O.3     
  19 C19          -10.3145     2.7625     2.4479 C.3     
  20 O20          -10.5197     4.0868     2.9742 O.3     
  21 C21           -9.5161     4.8490     2.4482 C.ar    
  22 C22           -8.5185     4.0012     1.9724 C.ar    
  23 C23           -9.3713     6.2200     2.3342 C.ar    
  24 C24           -8.2318     6.7622     1.7474 C.ar    
  25 C25           -7.2383     5.9054     1.2833 C.ar    
  26 C26           -7.3826     4.5378     1.3900 C.ar    
  27 O27           -7.9028     8.0669     1.5241 O.3     
  28 C28           -6.1399     6.7781     0.7376 C.3     
  29 C29           -6.4842     8.1664     1.2937 C.3     
  30 N30           -4.0718     6.0849     0.0544 N.am    
  31 C31           -4.7791     6.3204     1.1775 C.2     
  32 C32           -6.0966     6.7708    -0.7617 C.ar    
  33 C33           -7.0122     7.0837    -1.7415 C.ar    
  34 C34           -6.6638     6.9743    -3.0759 C.ar    
  35 C35           -5.3943     6.5493    -3.4232 C.ar    
  36 C36           -4.4740     6.2338    -2.4455 C.ar    
  37 C37           -4.8158     6.3414    -1.0997 C.ar    
  38 O38           -4.3921     6.1889     2.3194 O.2     
  39 H39            2.1493    -0.1369    -0.0199 H       
  40 H40            2.1767    -2.5940    -0.0325 H       
  41 H41           -2.1015    -2.6522     0.0084 H       
  42 H42           -2.1407    -0.1954     0.0314 H       
  43 H43           -2.0275     1.6340     0.0205 H       
  44 H44            1.4692    -7.0948    -0.0468 H       
  45 H45           -1.1967    -7.1530    -0.0213 H       
  46 H46           -2.0609    -4.6739     0.0088 H       
  47 H47           -0.7010     3.9607     0.9169 H       
  48 H48           -0.7094     3.9703    -0.8630 H       
  49 H49           -3.1764     3.7201    -0.8527 H       
  50 H50           -3.1679     3.7104     0.9272 H       
  51 H51           -2.1710     5.9808     0.9349 H       
  52 H52           -2.1794     5.9905    -0.8451 H       
  53 H53          -10.8718     2.6282     1.5208 H       
  54 H54          -10.6030     2.0098     3.1817 H       
  55 H55          -10.1476     6.8739     2.7030 H       
  56 H56           -6.6074     3.8839     1.0187 H       
  57 H57           -6.2646     8.9425     0.5605 H       
  58 H58           -5.9526     8.3524     2.2269 H       
  59 H59           -8.0030     7.4151    -1.4680 H       
  60 H60           -7.3814     7.2205    -3.8446 H       
  61 H61           -5.1224     6.4638    -4.4649 H       
  62 H62           -3.4848     5.9022    -2.7246 H       
@<TRIPOS>BOND
   1    1    2 1
   2    1    8 2
   3    1    9 am
   4    2    3 ar
   5    2    7 ar
   6    3    4 ar
   7    3   39 1
   8    4    5 ar
   9    4   40 1
  10    5    6 ar
  11    5   10 1
  12    6    7 ar
  13    6   41 1
  14    7   42 1
  15    9   15 1
  16    9   43 1
  17   10   11 1
  18   10   14 1
  19   11   12 2
  20   12   13 1
  21   12   44 1
  22   13   14 2
  23   13   45 1
  24   14   46 1
  25   15   16 1
  26   15   47 1
  27   15   48 1
  28   16   17 1
  29   16   49 1
  30   16   50 1
  31   17   30 1
  32   17   51 1
  33   17   52 1
  34   18   19 1
  35   18   22 1
  36   19   20 1
  37   19   53 1
  38   19   54 1
  39   20   21 1
  40   21   22 ar
  41   21   23 ar
  42   22   26 ar
  43   23   24 ar
  44   23   55 1
  45   24   25 ar
  46   24   27 1
  47   25   26 ar
  48   25   28 1
  49   26   56 1
  50   27   29 1
  51   28   29 1
  52   28   31 1
  53   28   32 1
  54   29   57 1
  55   29   58 1
  56   30   31 am
  57   30   37 1
  58   31   38 2
  59   32   33 ar
  60   32   37 ar
  61   33   34 ar
  62   33   59 1
  63   34   35 ar
  64   34   60 1
  65   35   36 ar
  66   35   61 1
  67   36   37 ar
  68   36   62 1

#	End of record

