#	Name: ASD03540184
#	Creating user name:	WinNT
#	Creation time:	15. 06. 2019 20:42

#	Modifying user name:	WinNT
#	Modification time:	15. 06. 2019 20:42

#	Program:	/corina/corina34_cracker 3.40 0067  02.08.2006

@<TRIPOS>MOLECULE
ASD03540184
  56   58    0    0    0
SMALL
NO_CHARGES


@<TRIPOS>ATOM
   1 S1            -0.1856     1.7855    -0.0276 S.o2    
   2 N2            -0.0481     0.1107    -0.0373 N.am    
   3 C3             1.2226    -0.3539    -0.0812 C.2     
   4 N4             2.3262     0.3755    -0.1153 N.am    
   5 C5             2.4995     1.7467    -0.1168 C.ar    
   6 C6             1.3902     2.6006    -0.0776 C.ar    
   7 C7             3.7714     2.3131    -0.1565 C.ar    
   8 C8             3.9178     3.6817    -0.1566 C.ar    
   9 C9             2.8005     4.5199    -0.1171 C.ar    
  10 C10            1.5164     3.9553    -0.0777 C.ar    
  11 C11            2.9693     5.9860    -0.1172 C.2     
  12 O12            1.9934     6.7104    -0.0827 O.2     
  13 N13            4.2054     6.5220    -0.1554 N.am    
  14 C14            4.3730     7.9774    -0.1555 C.3     
  15 O15            1.3641    -1.5615    -0.0896 O.2     
  16 O16           -0.8274     2.1220    -1.2499 O.2     
  17 O17           -0.7445     2.1143     1.2369 O.2     
  18 C18            3.5695    -0.3981    -0.1583 C.3     
  19 C19           -1.2127    -0.7773    -0.0008 C.3     
  20 C20           -1.5847    -1.1760    -1.4057 C.2     
  21 C21            5.8412     8.3139    -0.2020 C.ar    
  22 C22            6.4746     8.4725    -1.4208 C.ar    
  23 C23            7.8204     8.7810    -1.4662 C.ar    
  24 C24            8.5364     8.9317    -0.2875 C.ar    
  25 C25            7.8986     8.7720     0.9341 C.ar    
  26 C26            6.5513     8.4691     0.9741 C.ar    
  27 O27            9.8605     9.2347    -0.3295 O.3     
  28 C28           10.5340     9.3749     0.9230 C.3     
  29 C29           -2.8056    -0.9831    -1.8397 C.2     
  30 C30           -3.8712    -0.4874    -0.8963 C.3     
  31 C31           -3.1445    -1.2570    -3.2823 C.3     
  32 H32            4.6440     1.6775    -0.1869 H       
  33 H33            4.9076     4.1126    -0.1872 H       
  34 H34            0.6410     4.5870    -0.0464 H       
  35 H35            4.9839     5.9441    -0.1829 H       
  36 H36            3.8754     8.4004    -1.0281 H       
  37 H37            3.9334     8.3938     0.7509 H       
  38 H38            3.3354    -1.4626    -0.1536 H       
  39 H39            4.1199    -0.1511    -1.0661 H       
  40 H40            4.1783    -0.1560     0.7129 H       
  41 H41           -0.9717    -1.6689     0.5781 H       
  42 H42           -2.0511    -0.2582     0.4637 H       
  43 H43           -0.8448    -1.6207    -2.0547 H       
  44 H44            5.9168     8.3547    -2.3381 H       
  45 H45            8.3148     8.9044    -2.4184 H       
  46 H46            8.4538     8.8889     1.8531 H       
  47 H47            6.0543     8.3447     1.9249 H       
  48 H48           10.0685    10.1752     1.4983 H       
  49 H49           10.4650     8.4400     1.4793 H       
  50 H50           11.5822     9.6164     0.7469 H       
  51 H51           -3.8264     0.6001    -0.8368 H       
  52 H52           -4.8515    -0.7911    -1.2636 H       
  53 H53           -3.7064    -0.9126     0.0937 H       
  54 H54           -2.9467    -2.3046    -3.5094 H       
  55 H55           -4.1987    -1.0405    -3.4553 H       
  56 H56           -2.5333    -0.6241    -3.9256 H       
@<TRIPOS>BOND
   1    1    2 am
   2    1    6 1
   3    1   16 2
   4    1   17 2
   5    2    3 am
   6    2   19 1
   7    3    4 am
   8    3   15 2
   9    4    5 1
  10    4   18 1
  11    5    6 ar
  12    5    7 ar
  13    6   10 ar
  14    7    8 ar
  15    7   32 1
  16    8    9 ar
  17    8   33 1
  18    9   10 ar
  19    9   11 1
  20   10   34 1
  21   11   12 2
  22   11   13 am
  23   13   14 1
  24   13   35 1
  25   14   21 1
  26   14   36 1
  27   14   37 1
  28   18   38 1
  29   18   39 1
  30   18   40 1
  31   19   20 1
  32   19   41 1
  33   19   42 1
  34   20   29 2
  35   20   43 1
  36   21   22 ar
  37   21   26 ar
  38   22   23 ar
  39   22   44 1
  40   23   24 ar
  41   23   45 1
  42   24   25 ar
  43   24   27 1
  44   25   26 ar
  45   25   46 1
  46   26   47 1
  47   27   28 1
  48   28   48 1
  49   28   49 1
  50   28   50 1
  51   29   30 1
  52   29   31 1
  53   30   51 1
  54   30   52 1
  55   30   53 1
  56   31   54 1
  57   31   55 1
  58   31   56 1

#	End of record

