#	Name: ASD01028184
#	Creating user name:	WinNT
#	Creation time:	15. 06. 2019 18:56

#	Modifying user name:	WinNT
#	Modification time:	15. 06. 2019 18:56

#	Program:	/corina/corina34_cracker 3.40 0067  02.08.2006

@<TRIPOS>MOLECULE
ASD01028184
  42   46    0    0    0
SMALL
NO_CHARGES


@<TRIPOS>ATOM
   1 N1            -0.0157     1.3079     0.0092 N.ar    
   2 C2             0.0021    -0.0041     0.0020 C.ar    
   3 C3             1.1924    -0.7210    -0.0127 C.ar    
   4 C4             2.3994    -0.0459    -0.0206 C.ar    
   5 C5             2.3676     1.3675    -0.0131 C.ar    
   6 C6             3.5482     2.1238    -0.0208 C.ar    
   7 C7             3.4765     3.4844    -0.0137 C.ar    
   8 C8             2.2448     4.1339     0.0014 C.ar    
   9 C9             1.0797     3.4296     0.0096 C.ar    
  10 C10            1.1138     2.0247     0.0023 C.ar    
  11 O11            3.5765    -0.7186    -0.0345 O.3     
  12 C12            3.5080    -2.1459    -0.0407 C.3     
  13 C13            6.8414    -3.5081     0.5393 C.2     
  14 C14            7.8416    -3.9171     1.4416 C.2     
  15 C15            7.6077    -3.8224     2.7771 C.2     
  16 C16            6.3753    -3.3200     3.2459 C.2     
  17 N17            5.4409    -2.9371     2.4041 N.2     
  18 N18            5.6510    -3.0223     1.0263 N.pl3   
  19 N19            5.6096    -3.0010    -1.1214 N.2     
  20 N20            6.7598    -3.4683    -0.7805 N.2     
  21 C21            4.9030    -2.7157    -0.0561 C.2     
  22 C22            6.1314    -3.2218     4.7060 C.ar    
  23 C23            4.9181    -2.7272     5.1807 C.ar    
  24 C24            4.6967    -2.6381     6.5400 C.ar    
  25 C25            5.6765    -3.0382     7.4307 C.ar    
  26 C26            6.8828    -3.5295     6.9651 C.ar    
  27 C27            7.1125    -3.6293     5.6079 C.ar    
  28 H28           -0.9345    -0.5418     0.0081 H       
  29 H29            1.1750    -1.8009    -0.0177 H       
  30 H30            4.5090     1.6307    -0.0318 H       
  31 H31            4.3862     4.0664    -0.0196 H       
  32 H32            2.2133     5.2134     0.0071 H       
  33 H33            0.1327     3.9487     0.0221 H       
  34 H34            2.9855    -2.4884     0.8525 H       
  35 H35            2.9692    -2.4800    -0.9273 H       
  36 H36            8.7828    -4.3016     1.0772 H       
  37 H37            8.3662    -4.1326     3.4807 H       
  38 H38            4.1527    -2.4139     4.4862 H       
  39 H39            3.7568    -2.2549     6.9090 H       
  40 H40            5.4991    -2.9664     8.4936 H       
  41 H41            7.6446    -3.8398     7.6650 H       
  42 H42            8.0529    -4.0175     5.2454 H       
@<TRIPOS>BOND
   1    1    2 ar
   2    1   10 ar
   3    2    3 ar
   4    2   28 1
   5    3    4 ar
   6    3   29 1
   7    4    5 ar
   8    4   11 1
   9    5    6 ar
  10    5   10 ar
  11    6    7 ar
  12    6   30 1
  13    7    8 ar
  14    7   31 1
  15    8    9 ar
  16    8   32 1
  17    9   10 ar
  18    9   33 1
  19   11   12 1
  20   12   21 1
  21   12   34 1
  22   12   35 1
  23   13   14 1
  24   13   18 1
  25   13   20 2
  26   14   15 2
  27   14   36 1
  28   15   16 1
  29   15   37 1
  30   16   17 2
  31   16   22 1
  32   17   18 1
  33   18   21 1
  34   19   20 1
  35   19   21 2
  36   22   23 ar
  37   22   27 ar
  38   23   24 ar
  39   23   38 1
  40   24   25 ar
  41   24   39 1
  42   25   26 ar
  43   25   40 1
  44   26   27 ar
  45   26   41 1
  46   27   42 1

#	End of record

