#	Name: ASD08178185
#	Creating user name:	WinNT
#	Creation time:	15. 06. 2019 21:18

#	Modifying user name:	WinNT
#	Modification time:	15. 06. 2019 21:18

#	Program:	/corina/corina34_cracker 3.40 0067  02.08.2006

@<TRIPOS>MOLECULE
ASD08178185
  75   78    0    0    0
SMALL
NO_CHARGES


@<TRIPOS>ATOM
   1 C1            -0.0191     1.5027     0.0207 C.ar    
   2 C2             0.0010    -0.0042     0.0166 C.3     
   3 C3            -0.8034    -0.5283     1.2078 C.3     
   4 C4            -0.7830    -2.0581     1.2036 C.3     
   5 C5            -1.5874    -2.5822     2.3949 C.3     
   6 C6            -1.5673    -4.0891     2.3907 C.2     
   7 N7            -0.6926    -4.8430     2.9773 N.2     
   8 N8            -0.8493    -6.0898     2.8558 N.2     
   9 C9            -1.8644    -6.5050     2.1598 C.2     
  10 S10           -2.7350    -5.1430     1.5925 S.3     
  11 N11           -2.1931    -7.8348     1.9197 N.am    
  12 C12           -1.4281    -8.8206     2.4289 C.2     
  13 C13           -1.7844   -10.2616     2.1687 C.3     
  14 O14           -0.4530    -8.5481     3.0966 O.2     
  15 C15           -0.7780   -11.1576     2.8435 C.ar    
  16 C16            1.1728     2.2124     0.0064 C.ar    
  17 C17            1.1067     3.5974     0.0109 C.ar    
  18 C18           -0.1542     4.1903     0.0295 C.ar    
  19 N19           -1.2376     3.4283     0.0422 N.ar    
  20 N20           -1.1697     2.1466     0.0324 N.ar    
  21 N21           -0.2749     5.5795     0.0353 N.am    
  22 C22           -0.9904   -11.5806     4.1423 C.ar    
  23 C23           -0.0672   -12.4024     4.7613 C.ar    
  24 C24            1.0682   -12.8017     4.0814 C.ar    
  25 C25            1.2802   -12.3795     2.7823 C.ar    
  26 C26            0.3549   -11.5612     2.1618 C.ar    
  27 C27           -1.4926     6.1505    -0.0517 C.2     
  28 O28           -2.4744     5.4610    -0.2290 O.2     
  29 C29           -1.6342     7.6458     0.0713 C.3     
  30 C30           -3.0867     8.0253    -0.0606 C.ar    
  31 C31           -3.8891     8.0890     1.0630 C.ar    
  32 C32           -5.2216     8.4372     0.9420 C.ar    
  33 C33           -5.7512     8.7220    -0.3025 C.ar    
  34 C34           -4.9484     8.6591    -1.4263 C.ar    
  35 C35           -3.6152     8.3153    -1.3048 C.ar    
  36 C36           -5.5259     8.9692    -2.7832 C.3     
  37 N37           -5.3811    10.4005    -3.0602 N.am    
  38 C38           -5.8298    10.9104    -4.2243 C.2     
  39 O39           -5.6966    12.2258    -4.4788 O.3     
  40 O40           -6.3544    10.1830    -5.0441 O.2     
  41 C41           -6.2026    12.7052    -5.7525 C.3     
  42 C42           -5.9641    14.2126    -5.8612 C.3     
  43 H43           -0.4409    -0.3709    -0.9099 H       
  44 H44            1.0307    -0.3540     0.0913 H       
  45 H45           -0.3615    -0.1615     2.1343 H       
  46 H46           -1.8331    -0.1785     1.1331 H       
  47 H47           -1.2249    -2.4249     0.2772 H       
  48 H48            0.2467    -2.4079     1.2784 H       
  49 H49           -1.1455    -2.2155     3.3213 H       
  50 H50           -2.6171    -2.2324     2.3201 H       
  51 H51           -2.9730    -8.0528     1.3857 H       
  52 H52           -2.7782   -10.4676     2.5661 H       
  53 H53           -1.7761   -10.4498     1.0951 H       
  54 H54            2.1241     1.7012    -0.0074 H       
  55 H55            2.0044     4.1978     0.0007 H       
  56 H56            0.5176     6.1349     0.1018 H       
  57 H57           -1.8775   -11.2686     4.6736 H       
  58 H58           -0.2328   -12.7323     5.7763 H       
  59 H59            1.7898   -13.4432     4.5652 H       
  60 H60            2.1674   -12.6912     2.2511 H       
  61 H61            0.5205   -11.2313     1.1468 H       
  62 H62           -1.2615     7.9672     1.0438 H       
  63 H63           -1.0588     8.1313    -0.7169 H       
  64 H64           -3.4752     7.8665     2.0354 H       
  65 H65           -5.8487     8.4863     1.8199 H       
  66 H66           -6.7923     8.9933    -0.3971 H       
  67 H67           -2.9880     8.2662    -2.1827 H       
  68 H68           -4.9950     8.3964    -3.5436 H       
  69 H69           -6.5824     8.7013    -2.7983 H       
  70 H70           -4.9623    10.9812    -2.4057 H       
  71 H71           -5.6838    12.1958    -6.5646 H       
  72 H72           -7.2712    12.5007    -5.8193 H       
  73 H73           -6.3440    14.5726    -6.8174 H       
  74 H74           -6.4830    14.7220    -5.0492 H       
  75 H75           -4.8956    14.4172    -5.7945 H       
@<TRIPOS>BOND
   1    1    2 1
   2    1   16 ar
   3    1   20 ar
   4    2    3 1
   5    2   43 1
   6    2   44 1
   7    3    4 1
   8    3   45 1
   9    3   46 1
  10    4    5 1
  11    4   47 1
  12    4   48 1
  13    5    6 1
  14    5   49 1
  15    5   50 1
  16    6    7 2
  17    6   10 1
  18    7    8 1
  19    8    9 2
  20    9   10 1
  21    9   11 1
  22   11   12 am
  23   11   51 1
  24   12   13 1
  25   12   14 2
  26   13   15 1
  27   13   52 1
  28   13   53 1
  29   15   22 ar
  30   15   26 ar
  31   16   17 ar
  32   16   54 1
  33   17   18 ar
  34   17   55 1
  35   18   19 ar
  36   18   21 1
  37   19   20 ar
  38   21   27 am
  39   21   56 1
  40   22   23 ar
  41   22   57 1
  42   23   24 ar
  43   23   58 1
  44   24   25 ar
  45   24   59 1
  46   25   26 ar
  47   25   60 1
  48   26   61 1
  49   27   28 2
  50   27   29 1
  51   29   30 1
  52   29   62 1
  53   29   63 1
  54   30   31 ar
  55   30   35 ar
  56   31   32 ar
  57   31   64 1
  58   32   33 ar
  59   32   65 1
  60   33   34 ar
  61   33   66 1
  62   34   35 ar
  63   34   36 1
  64   35   67 1
  65   36   37 1
  66   36   68 1
  67   36   69 1
  68   37   38 am
  69   37   70 1
  70   38   39 1
  71   38   40 2
  72   39   41 1
  73   41   42 1
  74   41   71 1
  75   41   72 1
  76   42   73 1
  77   42   74 1
  78   42   75 1

#	End of record

