#	Name: ASD01913949
#	Creating user name:	WinNT
#	Creation time:	15. 06. 2019 20:02

#	Modifying user name:	WinNT
#	Modification time:	15. 06. 2019 20:02

#	Program:	/corina/corina34_cracker 3.40 0067  02.08.2006

@<TRIPOS>MOLECULE
ASD01913949
  38   41    0    0    0
SMALL
NO_CHARGES


@<TRIPOS>ATOM
   1 C1            -0.0709     1.2614    -0.9301 C.ar    
   2 C2            -0.0449    -0.0938    -0.6432 C.ar    
   3 C3             1.1666    -0.7378    -0.4546 C.ar    
   4 C4             2.3452    -0.0180    -0.5550 C.ar    
   5 C5             2.3248     1.3556    -0.8639 C.ar    
   6 C6             1.1030     1.9828    -1.0404 C.ar    
   7 F7            -1.2008    -0.7867    -0.5471 F       
   8 C8             3.6730    -0.6174    -0.3255 C.2     
   9 C9             4.7666     0.2134    -0.1737 C.2     
  10 C10            4.6325     1.7076    -0.2313 C.3     
  11 O11            3.4823     2.0457    -1.0121 O.3     
  12 N12            4.1195    -1.8797    -0.2186 N.pl3   
  13 N13            5.3959    -1.8750    -0.0183 N.2     
  14 C14            5.8563    -0.6327     0.0199 C.2     
  15 C15            3.2853    -3.0802    -0.3141 C.3     
  16 C16            7.2600    -0.2227     0.2276 C.2     
  17 N17            8.2160    -1.1566     0.4024 N.am    
  18 C18            9.5572    -0.7737     0.5042 C.ar    
  19 C19            9.8959     0.4108     1.1445 C.ar    
  20 C20           11.2227     0.7863     1.2432 C.ar    
  21 C21           12.2121    -0.0174     0.7046 C.ar    
  22 C22           11.8770    -1.1975     0.0664 C.ar    
  23 C23           10.5538    -1.5807    -0.0303 C.ar    
  24 Cl24          11.6479     2.2673     2.0429 Cl      
  25 O25            7.5531     0.9571     0.2410 O.2     
  26 H26           -1.0188     1.7588    -1.0736 H       
  27 H27            1.1920    -1.7940    -0.2304 H       
  28 H28            1.0672     3.0386    -1.2652 H       
  29 H29            4.5154     2.1021     0.7780 H       
  30 H30            5.5237     2.1360    -0.6899 H       
  31 H31            3.1435    -3.3417    -1.3627 H       
  32 H32            3.7752    -3.9052     0.2030 H       
  33 H33            2.3164    -2.8870     0.1464 H       
  34 H34            7.9737    -2.0942     0.4577 H       
  35 H35            9.1237     1.0383     1.5645 H       
  36 H36           13.2481     0.2779     0.7824 H       
  37 H37           12.6515    -1.8226    -0.3529 H       
  38 H38           10.2932    -2.5025    -0.5289 H       
@<TRIPOS>BOND
   1    1    2 ar
   2    1    6 ar
   3    1   26 1
   4    2    3 ar
   5    2    7 1
   6    3    4 ar
   7    3   27 1
   8    4    5 ar
   9    4    8 1
  10    5    6 ar
  11    5   11 1
  12    6   28 1
  13    8    9 2
  14    8   12 1
  15    9   10 1
  16    9   14 1
  17   10   11 1
  18   10   29 1
  19   10   30 1
  20   12   13 1
  21   12   15 1
  22   13   14 2
  23   14   16 1
  24   15   31 1
  25   15   32 1
  26   15   33 1
  27   16   17 am
  28   16   25 2
  29   17   18 1
  30   17   34 1
  31   18   19 ar
  32   18   23 ar
  33   19   20 ar
  34   19   35 1
  35   20   21 ar
  36   20   24 1
  37   21   22 ar
  38   21   36 1
  39   22   23 ar
  40   22   37 1
  41   23   38 1

#	End of record

