#	Name: ASD01910002
#	Creating user name:	WinNT
#	Creation time:	15. 06. 2019 19:55

#	Modifying user name:	WinNT
#	Modification time:	15. 06. 2019 19:55

#	Program:	/corina/corina34_cracker 3.40 0067  02.08.2006

@<TRIPOS>MOLECULE
ASD01910002
  42   45    0    0    0
SMALL
NO_CHARGES


@<TRIPOS>ATOM
   1 C1             0.1134     0.5036     0.4068 C.ar    
   2 C2             0.3437    -0.8586     0.4532 C.ar    
   3 C3             1.6362    -1.3552     0.3889 C.ar    
   4 C4             2.7040    -0.4792     0.2773 C.ar    
   5 C5             2.4691     0.9098     0.2299 C.ar    
   6 C6             1.1716     1.3918     0.2952 C.ar    
   7 C7             4.1700    -0.6448     0.1862 C.2     
   8 N8             4.7340     0.5730     0.0929 N.am    
   9 C9             3.8003     1.5413     0.1117 C.2     
  10 C10            6.1752     0.8130    -0.0142 C.3     
  11 C11            6.6005     0.6832    -1.4541 C.ar    
  12 C12            6.4501     1.7562    -2.3227 C.ar    
  13 C13            6.8436     1.6331    -3.6492 C.ar    
  14 C14            7.3830     0.4449    -4.1005 C.ar    
  15 C15            7.5317    -0.6228    -3.2327 C.ar    
  16 C16            7.1455    -0.5013    -1.9098 C.ar    
  17 N17            5.9030     2.9585    -1.8629 N.am    
  18 C18            5.3565     3.8277    -2.7360 C.2     
  19 C19            4.8832     5.1504    -2.2662 C.ar    
  20 C20            4.3194     6.0443    -3.1735 C.ar    
  21 C21            3.8811     7.2784    -2.7190 C.ar    
  22 C22            4.0221     7.5752    -1.3726 C.ar    
  23 C23            4.5925     6.6374    -0.5263 C.ar    
  24 N24            4.9951     5.4719    -0.9830 N.ar    
  25 O25            4.0152     2.7346     0.0422 O.2     
  26 O26            4.7657    -1.7031     0.1946 O.2     
  27 O27            5.2521     3.5263    -3.9086 O.2     
  28 Br28           8.2708    -2.2485    -3.8545 Br      
  29 H29           -0.8985     0.8782     0.4533 H       
  30 H30           -0.4891    -1.5406     0.5406 H       
  31 H31            1.8103    -2.4204     0.4260 H       
  32 H32            0.9857     2.4551     0.2591 H       
  33 H33            6.4038     1.8171     0.3431 H       
  34 H34            6.7113     0.0815     0.5904 H       
  35 H35            6.7275     2.4659    -4.3270 H       
  36 H36            7.6888     0.3485    -5.1318 H       
  37 H37            7.2629    -1.3361    -1.2347 H       
  38 H38            5.9168     3.1667    -0.9156 H       
  39 H39            4.2254     5.7799    -4.2164 H       
  40 H40            3.4401     7.9925    -3.3987 H       
  41 H41            3.6910     8.5280    -0.9867 H       
  42 H42            4.7039     6.8654     0.5235 H       
@<TRIPOS>BOND
   1    1    2 ar
   2    1    6 ar
   3    1   29 1
   4    2    3 ar
   5    2   30 1
   6    3    4 ar
   7    3   31 1
   8    4    5 ar
   9    4    7 1
  10    5    6 ar
  11    5    9 1
  12    6   32 1
  13    7    8 am
  14    7   26 2
  15    8    9 am
  16    8   10 1
  17    9   25 2
  18   10   11 1
  19   10   33 1
  20   10   34 1
  21   11   12 ar
  22   11   16 ar
  23   12   13 ar
  24   12   17 1
  25   13   14 ar
  26   13   35 1
  27   14   15 ar
  28   14   36 1
  29   15   16 ar
  30   15   28 1
  31   16   37 1
  32   17   18 am
  33   17   38 1
  34   18   19 1
  35   18   27 2
  36   19   20 ar
  37   19   24 ar
  38   20   21 ar
  39   20   39 1
  40   21   22 ar
  41   21   40 1
  42   22   23 ar
  43   22   41 1
  44   23   24 ar
  45   23   42 1

#	End of record

