#	Name: ASD09720015
#	Creating user name:	WinNT
#	Creation time:	15. 06. 2019 21:22

#	Modifying user name:	WinNT
#	Modification time:	15. 06. 2019 21:22

#	Program:	/corina/corina34_cracker 3.40 0067  02.08.2006

@<TRIPOS>MOLECULE
ASD09720015
  24   25    0    0    0
SMALL
NO_CHARGES


@<TRIPOS>ATOM
   1 C1            -0.2511     0.3312     0.8694 C.2     
   2 S2             0.1834     1.1168    -0.6387 S.3     
   3 C3            -1.4300     1.5667    -0.9541 C.2     
   4 C4            -2.2543     1.1398     0.0386 C.2     
   5 C5            -1.5601     0.4231     1.0830 C.2     
   6 Cl6            0.8709    -0.4619     1.9305 Cl      
   7 Cl7           -1.9502     2.4514    -2.3542 Cl      
   8 C8            -3.7074     1.3798     0.0464 C.2     
   9 N9            -4.5290     0.3828    -0.0486 N.2     
  10 C10           -4.2383     2.7851     0.1650 C.3     
  11 O11           -4.0331    -0.9244    -0.2734 O.3     
  12 S12           -6.0519     2.7500     0.1455 S.3     
  13 C13           -6.4829     4.4522     0.2911 C.2     
  14 C14           -7.7348     4.9340     0.3220 C.2     
  15 C15           -7.8225     6.3114     0.4427 C.2     
  16 C16           -6.6529     6.9462     0.5095 C.2     
  17 S17           -5.3385     5.7809     0.4259 S.3     
  18 H18           -2.0525     0.0106     1.9512 H       
  19 H19           -3.8936     3.2260     1.1003 H       
  20 H20           -3.8774     3.3818    -0.6727 H       
  21 H21           -4.7210    -1.6017    -0.3297 H       
  22 H22           -8.6055     4.2982     0.2575 H       
  23 H23           -8.7682     6.8317     0.4795 H       
  24 H24           -6.5307     8.0151     0.6046 H       
@<TRIPOS>BOND
   1    1    2 1
   2    1    6 1
   3    1    5 2
   4    2    3 1
   5    3    4 2
   6    3    7 1
   7    4    5 1
   8    4    8 1
   9    5   18 1
  10    8    9 2
  11    8   10 1
  12    9   11 1
  13   10   12 1
  14   10   19 1
  15   10   20 1
  16   11   21 1
  17   12   13 1
  18   13   14 2
  19   13   17 1
  20   14   15 1
  21   14   22 1
  22   15   16 2
  23   15   23 1
  24   16   17 1
  25   16   24 1

#	End of record

