#	Name: ASD01230542
#	Creating user name:	WinNT
#	Creation time:	15. 06. 2019 19:14

#	Modifying user name:	WinNT
#	Modification time:	15. 06. 2019 19:14

#	Program:	/corina/corina34_cracker 3.40 0067  02.08.2006

@<TRIPOS>MOLECULE
ASD01230542
  45   48    0    0    0
SMALL
NO_CHARGES


@<TRIPOS>ATOM
   1 S1             0.0211     1.6418     0.0273 S.o2    
   2 N2             0.0270    -0.0056     0.0116 N.am    
   3 C3             1.0762    -0.7238     0.0797 C.2     
   4 N4             2.3474    -0.2270     0.2165 N.pl3   
   5 C5             2.5934     1.0983     0.7740 C.3     
   6 C6             1.7650     2.1329     0.0097 C.3     
   7 C7             0.9718    -2.2393     0.0236 C.3     
   8 C8             2.0435    -2.8048     0.9591 C.3     
   9 C9             3.4410    -2.4131     0.4980 C.3     
  10 C10            3.4580    -1.0745    -0.2301 C.3     
  11 O11           -0.3236    -2.6539     0.4617 O.3     
  12 C12           -2.5629    -3.1746    -0.1469 C.ar    
  13 C13           -1.3124    -2.6758    -0.4704 C.ar    
  14 C14           -1.0742    -2.1982    -1.7509 C.ar    
  15 C15           -2.0851    -2.2219    -2.6881 C.ar    
  16 C16           -3.3401    -2.7208    -2.3628 C.ar    
  17 C17           -4.3984    -2.7075    -3.4350 C.3     
  18 C18           -5.5390    -3.6574    -3.0758 C.3     
  19 C19           -6.0047    -3.3374    -1.6506 C.3     
  20 C20           -4.9092    -3.7686    -0.6776 C.3     
  21 C21           -3.5776    -3.2001    -1.0934 C.ar    
  22 O22           -0.6064     1.9979    -1.1968 O.2     
  23 O23           -0.5748     1.9744     1.2737 O.2     
  24 H24            2.3076     1.1089     1.8259 H       
  25 H25            3.6522     1.3405     0.6823 H       
  26 H26            2.1160     2.1901    -1.0207 H       
  27 H27            1.8728     3.1079     0.4850 H       
  28 H28            1.1484    -2.5857    -0.9947 H       
  29 H29            1.8784    -2.4196     1.9653 H       
  30 H30            1.9648    -3.8918     0.9766 H       
  31 H31            4.0950    -2.3503     1.3677 H       
  32 H32            3.8207    -3.1844    -0.1721 H       
  33 H33            3.3685    -1.2480    -1.3024 H       
  34 H34            4.4010    -0.5672    -0.0267 H       
  35 H35           -2.7489    -3.5504     0.8483 H       
  36 H36           -0.1012    -1.8092    -2.0123 H       
  37 H37           -1.8996    -1.8487    -3.6845 H       
  38 H38           -4.7920    -1.6963    -3.5389 H       
  39 H39           -3.9555    -3.0190    -4.3810 H       
  40 H40           -6.3659    -3.5179    -3.7722 H       
  41 H41           -5.1875    -4.6880    -3.1244 H       
  42 H42           -6.1808    -2.2660    -1.5537 H       
  43 H43           -6.9236    -3.8820    -1.4336 H       
  44 H44           -5.1559    -3.4119     0.3224 H       
  45 H45           -4.8474    -4.8568    -0.6653 H       
@<TRIPOS>BOND
   1    1    2 am
   2    1    6 1
   3    1   22 2
   4    1   23 2
   5    2    3 2
   6    3    4 1
   7    3    7 1
   8    4    5 1
   9    4   10 1
  10    5    6 1
  11    5   24 1
  12    5   25 1
  13    6   26 1
  14    6   27 1
  15    7    8 1
  16    7   11 1
  17    7   28 1
  18    8    9 1
  19    8   29 1
  20    8   30 1
  21    9   10 1
  22    9   31 1
  23    9   32 1
  24   10   33 1
  25   10   34 1
  26   11   13 1
  27   12   13 ar
  28   12   21 ar
  29   12   35 1
  30   13   14 ar
  31   14   15 ar
  32   14   36 1
  33   15   16 ar
  34   15   37 1
  35   16   17 1
  36   16   21 ar
  37   17   18 1
  38   17   38 1
  39   17   39 1
  40   18   19 1
  41   18   40 1
  42   18   41 1
  43   19   20 1
  44   19   42 1
  45   19   43 1
  46   20   21 1
  47   20   44 1
  48   20   45 1

#	End of record

