#	Name: ASD00311518
#	Creating user name:	WinNT
#	Creation time:	15. 06. 2019 18:34

#	Modifying user name:	WinNT
#	Modification time:	15. 06. 2019 18:34

#	Program:	/corina/corina34_cracker 3.40 0067  02.08.2006

@<TRIPOS>MOLECULE
ASD00311518
  46   50    0    0    0
SMALL
NO_CHARGES


@<TRIPOS>ATOM
   1 C1            -0.0167     1.3778     0.0096 C.2     
   2 C2             0.0021    -0.0041     0.0020 C.2     
   3 C3             1.2589    -0.6766    -0.0139 C.2     
   4 C4             2.4316     0.0673    -0.0214 C.2     
   5 C5             2.3574     1.4753    -0.0131 C.2     
   6 N6             1.1648     2.0904     0.0022 N.am    
   7 C7            -1.3431    -0.5750     0.0126 C.2     
   8 C8            -2.3223     0.3256     0.0274 C.2     
   9 S9            -1.6794     1.9560     0.0358 S.3     
  10 O10            3.3822     2.1374    -0.0196 O.2     
  11 C11            3.7477    -0.6119    -0.0375 C.ar    
  12 C12            4.5932    -0.4744    -1.1382 C.ar    
  13 C13            5.8183    -1.1092    -1.1470 C.ar    
  14 C14            6.2085    -1.8808    -0.0671 C.ar    
  15 C15            5.3741    -2.0213     1.0274 C.ar    
  16 C16            4.1491    -1.3868     1.0505 C.ar    
  17 O17            1.3089    -2.0291    -0.0212 O.3     
  18 C18           -2.7003    -3.9678     0.9248 C.ar    
  19 C19           -2.4680    -2.5961     0.9362 C.ar    
  20 C20           -1.5955    -2.0356     0.0073 C.ar    
  21 C21           -0.9596    -2.8516    -0.9288 C.ar    
  22 C22           -1.1944    -4.2120    -0.9347 C.ar    
  23 C23           -2.0592    -4.7731    -0.0153 C.ar    
  24 C24           -3.6243    -4.5735     1.9157 C.ar    
  25 C25           -3.8579    -5.9470     1.9055 C.ar    
  26 C26           -4.7182    -6.5050     2.8293 C.ar    
  27 C27           -5.3484    -5.7032     3.7638 C.ar    
  28 C28           -5.1201    -4.3390     3.7784 C.ar    
  29 C29           -4.2569    -3.7714     2.8632 C.ar    
  30 H30            1.1326     3.0599     0.0077 H       
  31 H31           -3.3749     0.0838     0.0365 H       
  32 H32            4.2895     0.1274    -1.9820 H       
  33 H33            6.4737    -1.0038    -1.9989 H       
  34 H34            7.1684    -2.3757    -0.0786 H       
  35 H35            5.6841    -2.6252     1.8674 H       
  36 H36            3.5005    -1.4933     1.9076 H       
  37 H37            2.2062    -2.3895    -0.0320 H       
  38 H38           -2.9629    -1.9685     1.6625 H       
  39 H39           -0.2827    -2.4182    -1.6502 H       
  40 H40           -0.7000    -4.8399    -1.6611 H       
  41 H41           -2.2387    -5.8381    -0.0245 H       
  42 H42           -3.3669    -6.5739     1.1758 H       
  43 H43           -4.9000    -7.5696     2.8223 H       
  44 H44           -6.0214    -6.1438     4.4844 H       
  45 H45           -5.6150    -3.7175     4.5100 H       
  46 H46           -4.0759    -2.7068     2.8783 H       
@<TRIPOS>BOND
   1    1    2 2
   2    1    6 1
   3    1    9 1
   4    2    3 1
   5    2    7 1
   6    3    4 2
   7    3   17 1
   8    4    5 1
   9    4   11 1
  10    5    6 am
  11    5   10 2
  12    6   30 1
  13    7    8 2
  14    7   20 1
  15    8    9 1
  16    8   31 1
  17   11   12 ar
  18   11   16 ar
  19   12   13 ar
  20   12   32 1
  21   13   14 ar
  22   13   33 1
  23   14   15 ar
  24   14   34 1
  25   15   16 ar
  26   15   35 1
  27   16   36 1
  28   17   37 1
  29   18   19 ar
  30   18   23 ar
  31   18   24 1
  32   19   20 ar
  33   19   38 1
  34   20   21 ar
  35   21   22 ar
  36   21   39 1
  37   22   23 ar
  38   22   40 1
  39   23   41 1
  40   24   25 ar
  41   24   29 ar
  42   25   26 ar
  43   25   42 1
  44   26   27 ar
  45   26   43 1
  46   27   28 ar
  47   27   44 1
  48   28   29 ar
  49   28   45 1
  50   29   46 1

#	End of record

