#	Name: ASD05323001
#	Creating user name:	WinNT
#	Creation time:	15. 06. 2019 20:59

#	Modifying user name:	WinNT
#	Modification time:	15. 06. 2019 20:59

#	Program:	/corina/corina34_cracker 3.40 0067  02.08.2006

@<TRIPOS>MOLECULE
ASD05323001
  55   57    0    0    0
SMALL
NO_CHARGES


@<TRIPOS>ATOM
   1 C1            -0.0187     1.5258     0.0104 C.3     
   2 C2             0.0021    -0.0041     0.0020 C.3     
   3 P3             1.6916     2.1568    -0.0025 P.3     
   4 O4             1.6705     3.7619    -0.1260 O.3     
   5 O5             2.4302     1.7333     1.3640 O.3     
   6 O6             2.4205     1.5828    -1.1556 O.2     
   7 O7            -3.6873    -2.5652     0.5221 O.3     
   8 C8            -2.8362    -3.1693     1.5180 C.3     
   9 O9            -1.5540    -2.5338     1.3855 O.3     
  10 C10           -1.4413    -2.0811     0.0271 C.3     
  11 C11           -2.8179    -2.4094    -0.6232 C.3     
  12 O12           -2.1070    -0.1960    -1.2175 O.3     
  13 C13           -1.4333    -0.5336     0.0129 C.3     
  14 C14           -3.2036    -1.1135    -1.3597 C.3     
  15 C15           -3.4046    -2.9214     2.9167 C.3     
  16 C16           -2.7082    -4.6719     1.2596 C.3     
  17 C17           -4.6625    -1.2259    -3.3009 C.2     
  18 N18           -4.9028    -1.4789    -4.6008 N.am    
  19 C19           -3.9098    -1.9105    -5.4043 C.2     
  20 C20           -2.6121    -2.0950    -4.8677 C.2     
  21 C21           -2.3989    -1.8342    -3.5599 C.2     
  22 N22           -3.4345    -1.3971    -2.7784 N.am    
  23 O23           -4.1268    -2.1399    -6.5805 O.2     
  24 O24           -5.5668    -0.8324    -2.5898 O.2     
  25 Br25          -1.1974    -2.6998    -5.9673 Br      
  26 C26            2.8560     4.5473    -0.2664 C.3     
  27 C27            2.4794     6.0275    -0.3564 C.3     
  28 C28            3.8140     1.9894     1.6123 C.3     
  29 C29            4.1898     1.4605     2.9980 C.3     
  30 H30           -0.5990    -2.5276    -0.5013 H       
  31 H31           -2.7936    -3.2893    -1.2662 H       
  32 H32           -0.5459     1.8868    -0.8726 H       
  33 H33           -0.5289     1.8773     0.9072 H       
  34 H34            0.5123    -0.3556    -0.8948 H       
  35 H35            0.5293    -0.3651     0.8851 H       
  36 H36           -1.9808    -0.1403     0.8694 H       
  37 H37           -4.1028    -0.6879    -0.9142 H       
  38 H38           -4.3906    -3.3795     2.9946 H       
  39 H39           -2.7405    -3.3597     3.6617 H       
  40 H40           -3.4876    -1.8485     3.0902 H       
  41 H41           -2.2993    -4.8356     0.2626 H       
  42 H42           -2.0430    -5.1129     2.0020 H       
  43 H43           -3.6912    -5.1377     1.3302 H       
  44 H44           -5.7942    -1.3504    -4.9610 H       
  45 H45           -1.4161    -1.9690    -3.1328 H       
  46 H46            3.5015     4.3885     0.5974 H       
  47 H47            3.3830     4.2507    -1.1733 H       
  48 H48            3.3837     6.6266    -0.4635 H       
  49 H49            1.8339     6.1863    -1.2202 H       
  50 H50            1.9524     6.3241     0.5504 H       
  51 H51            4.4177     1.4879     0.8560 H       
  52 H52            3.9979     3.0629     1.5710 H       
  53 H53            5.2453     1.6558     3.1874 H       
  54 H54            3.5860     1.9620     3.7543 H       
  55 H55            4.0058     0.3869     3.0393 H       
@<TRIPOS>BOND
   1    1    2 1
   2    1    3 1
   3    1   32 1
   4    1   33 1
   5    2   13 1
   6    2   34 1
   7    2   35 1
   8    3    4 1
   9    3    5 1
  10    3    6 2
  11    4   26 1
  12    5   28 1
  13    7    8 1
  14    7   11 1
  15    8    9 1
  16    8   15 1
  17    8   16 1
  18    9   10 1
  19   10   11 1
  20   10   30 1
  21   10   13 1
  22   11   31 1
  23   11   14 1
  24   12   13 1
  25   12   14 1
  26   13   36 1
  27   14   22 1
  28   14   37 1
  29   15   38 1
  30   15   39 1
  31   15   40 1
  32   16   41 1
  33   16   42 1
  34   16   43 1
  35   17   18 am
  36   17   22 am
  37   17   24 2
  38   18   19 am
  39   18   44 1
  40   19   20 1
  41   19   23 2
  42   20   21 2
  43   20   25 1
  44   21   22 1
  45   21   45 1
  46   26   27 1
  47   26   46 1
  48   26   47 1
  49   27   48 1
  50   27   49 1
  51   27   50 1
  52   28   29 1
  53   28   51 1
  54   28   52 1
  55   29   53 1
  56   29   54 1
  57   29   55 1

#	End of record

