#	Name: ASD00170492
#	Creating user name:	WinNT
#	Creation time:	15. 06. 2019 18:32

#	Modifying user name:	WinNT
#	Modification time:	15. 06. 2019 18:32

#	Program:	/corina/corina34_cracker 3.40 0067  02.08.2006

@<TRIPOS>MOLECULE
ASD00170492
  42   45    0    0    0
SMALL
NO_CHARGES


@<TRIPOS>ATOM
   1 C1            -0.0167     1.3817     0.0096 C.ar    
   2 C2             0.0021    -0.0041     0.0020 C.ar    
   3 C3             1.2178    -0.6956     0.0023 C.ar    
   4 C4             2.4169     0.0129     0.0093 C.ar    
   5 C5             2.3794     1.4047    -0.0132 C.ar    
   6 C6             1.1716     2.0887     0.0021 C.ar    
   7 O7            -1.1678    -0.6951    -0.0053 O.3     
   8 C8            -2.3739     0.0711    -0.0046 C.3     
   9 C9             1.2301    -2.1788    -0.0045 C.ar    
  10 C10            0.7292    -2.8764    -1.1024 C.ar    
  11 C11            0.7419    -4.2555    -1.1057 C.ar    
  12 C12            1.2525    -4.9489    -0.0168 C.ar    
  13 C13            1.7518    -4.2570     1.0783 C.ar    
  14 C14            1.7479    -2.8779     1.0846 C.ar    
  15 O15            1.2633    -6.3077    -0.0228 O.3     
  16 C16            1.8031    -6.9573     1.1299 C.3     
  17 C17            3.7254    -0.7254     0.0817 C.3     
  18 C18            4.8169    -0.0253    -0.7261 C.3     
  19 C19            4.8077     1.4504    -0.4185 C.2     
  20 C20            3.6790     2.1391    -0.0973 C.2     
  21 S21            6.1690     2.5567    -0.4046 S.3     
  22 C22            5.0906     3.8835     0.0183 C.2     
  23 N23            3.8771     3.4391     0.1187 N.2     
  24 N24            5.4794     5.1988     0.2140 N.pl3   
  25 H25           -0.9591     1.9092     0.0170 H       
  26 H26            1.1601     3.1686     0.0073 H       
  27 H27           -2.4077     0.6947     0.8887 H       
  28 H28           -2.4025     0.7046    -0.8912 H       
  29 H29           -3.2317    -0.6015    -0.0109 H       
  30 H30            0.3311    -2.3374    -1.9494 H       
  31 H31            0.3539    -4.7965    -1.9560 H       
  32 H32            2.1480    -4.7993     1.9240 H       
  33 H33            2.1363    -2.3401     1.9369 H       
  34 H34            2.8423    -6.6567     1.2631 H       
  35 H35            1.2270    -6.6728     2.0104 H       
  36 H36            1.7517    -8.0377     0.9956 H       
  37 H37            4.0400    -0.7893     1.1233 H       
  38 H38            3.5863    -1.7337    -0.3084 H       
  39 H39            5.7881    -0.4446    -0.4633 H       
  40 H40            4.6335    -0.1752    -1.7900 H       
  41 H41            6.4120     5.4481     0.1193 H       
  42 H42            4.8190     5.8704     0.4457 H       
@<TRIPOS>BOND
   1    1    2 ar
   2    1    6 ar
   3    1   25 1
   4    2    3 ar
   5    2    7 1
   6    3    4 ar
   7    3    9 1
   8    4    5 ar
   9    4   17 1
  10    5    6 ar
  11    5   20 1
  12    6   26 1
  13    7    8 1
  14    8   27 1
  15    8   28 1
  16    8   29 1
  17    9   10 ar
  18    9   14 ar
  19   10   11 ar
  20   10   30 1
  21   11   12 ar
  22   11   31 1
  23   12   13 ar
  24   12   15 1
  25   13   14 ar
  26   13   32 1
  27   14   33 1
  28   15   16 1
  29   16   34 1
  30   16   35 1
  31   16   36 1
  32   17   18 1
  33   17   37 1
  34   17   38 1
  35   18   19 1
  36   18   39 1
  37   18   40 1
  38   19   20 2
  39   19   21 1
  40   20   23 1
  41   21   22 1
  42   22   23 2
  43   22   24 1
  44   24   41 1
  45   24   42 1

#	End of record

