#	Name: ASD04430066
#	Creating user name:	WinNT
#	Creation time:	15. 06. 2019 20:49

#	Modifying user name:	WinNT
#	Modification time:	15. 06. 2019 20:49

#	Program:	/corina/corina34_cracker 3.40 0067  02.08.2006

@<TRIPOS>MOLECULE
ASD04430066
  41   43    0    0    0
SMALL
NO_CHARGES


@<TRIPOS>ATOM
   1 C1             0.0073     1.2917     0.1843 C.2     
   2 N2             0.0194    -0.0082     0.1315 N.2     
   3 C3             1.1641    -0.7035     0.0519 C.2     
   4 C4             2.3853    -0.0113     0.0248 C.2     
   5 C5             2.3506     1.4497     0.0854 C.2     
   6 N6             1.1367     2.0436     0.1636 N.am    
   7 N7             2.8607    -2.1571    -0.0822 N.2     
   8 N8             1.4676    -2.0287    -0.0146 N.pl3   
   9 C9             3.4093    -0.9733    -0.0596 C.2     
  10 O10            3.3759     2.1076     0.0657 O.2     
  11 C11            0.6516    -4.1147    -0.9444 C.ar    
  12 C12            0.5452    -3.0830    -0.0148 C.ar    
  13 C13           -0.4882    -3.1150     0.9118 C.ar    
  14 N14           -1.3576    -4.1058     0.9153 N.ar    
  15 C15           -1.2845    -5.0972     0.0490 C.ar    
  16 C16           -0.2839    -5.1353    -0.9046 C.ar    
  17 C17           -1.3229     1.9952     0.2660 C.3     
  18 C18           -2.4485     0.9590     0.2695 C.3     
  19 C19           -3.7903     1.6642     0.4777 C.3     
  20 C20           -4.9009     0.6197     0.6058 C.3     
  21 C21           -2.4640     0.2182    -1.0692 C.3     
  22 C22            1.7539    -4.1174    -1.9721 C.3     
  23 H23            1.0739     3.0107     0.2053 H       
  24 H24            4.4686    -0.7669    -0.0996 H       
  25 H25           -0.5804    -2.3203     1.6373 H       
  26 H26           -2.0162    -5.8908     0.0850 H       
  27 H27           -0.2325    -5.9513    -1.6101 H       
  28 H28           -1.3673     2.5830     1.1829 H       
  29 H29           -1.4386     2.6545    -0.5942 H       
  30 H30           -2.2835     0.2461     1.0773 H       
  31 H31           -3.7485     2.2635     1.3871 H       
  32 H32           -3.9967     2.3113    -0.3748 H       
  33 H33           -5.8568     1.1220     0.7541 H       
  34 H34           -4.9427     0.0203    -0.3036 H       
  35 H35           -4.6944    -0.0275     1.4583 H       
  36 H36           -1.5081    -0.2841    -1.2175 H       
  37 H37           -3.2659    -0.5200    -1.0667 H       
  38 H38           -2.6289     0.9312    -1.8770 H       
  39 H39            2.6530    -4.5560    -1.5394 H       
  40 H40            1.4432    -4.7042    -2.8365 H       
  41 H41            1.9626    -3.0940    -2.2837 H       
@<TRIPOS>BOND
   1    1    2 2
   2    1    6 1
   3    1   17 1
   4    2    3 1
   5    3    4 2
   6    3    8 1
   7    4    5 1
   8    4    9 1
   9    5    6 am
  10    5   10 2
  11    6   23 1
  12    7    8 1
  13    7    9 2
  14    8   12 1
  15    9   24 1
  16   11   12 ar
  17   11   16 ar
  18   11   22 1
  19   12   13 ar
  20   13   14 ar
  21   13   25 1
  22   14   15 ar
  23   15   16 ar
  24   15   26 1
  25   16   27 1
  26   17   18 1
  27   17   28 1
  28   17   29 1
  29   18   19 1
  30   18   21 1
  31   18   30 1
  32   19   20 1
  33   19   31 1
  34   19   32 1
  35   20   33 1
  36   20   34 1
  37   20   35 1
  38   21   36 1
  39   21   37 1
  40   21   38 1
  41   22   39 1
  42   22   40 1
  43   22   41 1

#	End of record

