#	Name: ASD01420095
#	Creating user name:	WinNT
#	Creation time:	15. 06. 2019 19:20

#	Modifying user name:	WinNT
#	Modification time:	15. 06. 2019 19:20

#	Program:	/corina/corina34_cracker 3.40 0067  02.08.2006

@<TRIPOS>MOLECULE
ASD01420095
  44   46    0    0    0
SMALL
NO_CHARGES


@<TRIPOS>ATOM
   1 C1            -0.0144     1.2120     0.0087 C.2     
   2 O2            -0.1032     0.1930    -0.6492 O.2     
   3 C3             1.2386     1.9864     0.0017 C.ar    
   4 C4             2.4742     1.3281     0.0985 C.ar    
   5 C5             3.6467     2.0634     0.0907 C.ar    
   6 C6             3.5986     3.4460    -0.0125 C.ar    
   7 C7             2.3743     4.1000    -0.1085 C.ar    
   8 C8             1.2020     3.3798    -0.1072 C.ar    
   9 C9             2.3324     5.6023    -0.2198 C.3     
  10 C10            1.6470     5.9978    -1.5293 C.3     
  11 C11            1.5486     6.1795     0.9607 C.3     
  12 O12            4.7505     4.1636    -0.0193 O.3     
  13 O13            2.5191    -0.0239     0.1998 O.3     
  14 C14           -0.9537     2.7921     1.6355 C.3     
  15 N15           -1.0644     1.6357     0.7398 N.am    
  16 C16           -2.3691     0.9568     0.6716 C.3     
  17 C17           -2.6581     0.3562     2.0464 C.3     
  18 C18           -2.4030     1.3640     3.1361 C.ar    
  19 C19           -2.9956     1.1392     4.3730 C.ar    
  20 C20           -2.7959     2.0181     5.4168 C.ar    
  21 C21           -1.9990     3.1331     5.2341 C.ar    
  22 C22           -1.4125     3.3607     4.0064 C.ar    
  23 C23           -1.6159     2.4787     2.9536 C.ar    
  24 H24            4.5996     1.5605     0.1654 H       
  25 H25            0.2538     3.8908    -0.1864 H       
  26 H26            3.3487     5.9960    -0.2084 H       
  27 H27            0.6306     5.6041    -1.5407 H       
  28 H28            1.6166     7.0844    -1.6097 H       
  29 H29            2.2053     5.5866    -2.3702 H       
  30 H30            2.0369     5.8977     1.8936 H       
  31 H31            1.5183     7.2661     0.8802 H       
  32 H32            0.5323     5.7858     0.9493 H       
  33 H33            5.1193     4.3070    -0.9017 H       
  34 H34            2.5666    -0.4807    -0.6511 H       
  35 H35            0.0986     3.0212     1.8036 H       
  36 H36           -1.4432     3.6525     1.1792 H       
  37 H37           -3.1461     1.6761     0.4126 H       
  38 H38           -2.3343     0.1651    -0.0768 H       
  39 H39           -3.7003     0.0398     2.0876 H       
  40 H40           -2.0149    -0.5101     2.2016 H       
  41 H41           -3.6182     0.2687     4.5179 H       
  42 H42           -3.2611     1.8360     6.3743 H       
  43 H43           -1.8367     3.8230     6.0490 H       
  44 H44           -0.7906     4.2320     3.8629 H       
@<TRIPOS>BOND
   1    1    2 2
   2    1    3 1
   3    1   15 am
   4    3    4 ar
   5    3    8 ar
   6    4    5 ar
   7    4   13 1
   8    5    6 ar
   9    5   24 1
  10    6    7 ar
  11    6   12 1
  12    7    8 ar
  13    7    9 1
  14    8   25 1
  15    9   10 1
  16    9   11 1
  17    9   26 1
  18   10   27 1
  19   10   28 1
  20   10   29 1
  21   11   30 1
  22   11   31 1
  23   11   32 1
  24   12   33 1
  25   13   34 1
  26   14   15 1
  27   14   23 1
  28   14   35 1
  29   14   36 1
  30   15   16 1
  31   16   17 1
  32   16   37 1
  33   16   38 1
  34   17   18 1
  35   17   39 1
  36   17   40 1
  37   18   19 ar
  38   18   23 ar
  39   19   20 ar
  40   19   41 1
  41   20   21 ar
  42   20   42 1
  43   21   22 ar
  44   21   43 1
  45   22   23 ar
  46   22   44 1

#	End of record

