#	Name: ASD01200068
#	Creating user name:	WinNT
#	Creation time:	15. 06. 2019 19:08

#	Modifying user name:	WinNT
#	Modification time:	15. 06. 2019 19:08

#	Program:	/corina/corina34_cracker 3.40 0067  02.08.2006

@<TRIPOS>MOLECULE
ASD01200068
  30   32    0    0    0
SMALL
NO_CHARGES


@<TRIPOS>ATOM
   1 C1            -0.0028     2.2890    -0.6503 C.ar    
   2 C2            -0.3060     0.9435    -0.7084 C.ar    
   3 C3             0.6844     0.0215    -0.4200 C.ar    
   4 C4             1.9355     0.4549    -0.0508 C.ar    
   5 C5             2.2369     1.8017     0.1204 C.ar    
   6 C6             1.2552     2.7183    -0.2752 C.ar    
   7 S7             3.2413    -0.7315     0.1362 S.o2    
   8 N8             4.5929     0.2576     0.0353 N.am    
   9 C9             4.5271     1.3942     0.9733 C.3     
  10 N10            3.4103     2.2866     0.6823 N.3     
  11 C11            3.0895     2.9419     1.9573 C.3     
  12 O12            3.1784    -1.2156     1.4658 O.2     
  13 O13            3.2350    -1.5448    -1.0237 O.2     
  14 C14            2.8237     2.0429     3.1665 C.3     
  15 C15            4.1234     2.8456     3.0809 C.3     
  16 C16            1.5498     4.1937    -0.3922 C.3     
  17 H17           -0.7569     3.0205    -0.9058 H       
  18 H18           -1.2985     0.6144    -0.9737 H       
  19 H19            0.4712    -1.0354    -0.4847 H       
  20 H20            5.3235     0.0927    -0.5695 H       
  21 H21            4.4189     1.0136     1.9929 H       
  22 H22            5.4591     1.9635     0.9141 H       
  23 H23            2.5143     3.8645     1.8800 H       
  24 H24            2.0739     2.3743     3.8848 H       
  25 H25            2.8869     0.9652     3.0159 H       
  26 H26            5.0417     2.2959     2.8741 H       
  27 H27            4.2287     3.7050     3.7431 H       
  28 H28            1.7927     4.4348    -1.4271 H       
  29 H29            0.6747     4.7647    -0.0818 H       
  30 H30            2.3948     4.4473     0.2479 H       
@<TRIPOS>BOND
   1    1    2 ar
   2    1    6 ar
   3    1   17 1
   4    2    3 ar
   5    2   18 1
   6    3    4 ar
   7    3   19 1
   8    4    5 ar
   9    4    7 1
  10    5    6 ar
  11    5   10 1
  12    6   16 1
  13    7    8 am
  14    7   12 2
  15    7   13 2
  16    8    9 1
  17    8   20 1
  18    9   10 1
  19    9   21 1
  20    9   22 1
  21   10   11 1
  22   11   14 1
  23   11   15 1
  24   11   23 1
  25   14   15 1
  26   14   24 1
  27   14   25 1
  28   15   26 1
  29   15   27 1
  30   16   28 1
  31   16   29 1
  32   16   30 1

#	End of record

