#	Name: ASD09080023
#	Creating user name:	WinNT
#	Creation time:	15. 06. 2019 21:20

#	Modifying user name:	WinNT
#	Modification time:	15. 06. 2019 21:20

#	Program:	/corina/corina34_cracker 3.40 0067  02.08.2006

@<TRIPOS>MOLECULE
ASD09080023
  56   57    0    0    0
SMALL
NO_CHARGES


@<TRIPOS>ATOM
   1 C1            -0.1970     1.1651     0.4798 C.ar    
   2 C2            -0.2035    -0.2184     0.4392 C.ar    
   3 C3            -1.4008    -0.9071     0.3491 C.ar    
   4 C4            -2.5958    -0.2158     0.2997 C.ar    
   5 C5            -2.5945     1.1768     0.3407 C.ar    
   6 C6            -1.3871     1.8653     0.4367 C.ar    
   7 Cl7            1.3088     2.0217     0.5922 Cl      
   8 Cl8           -1.4006    -2.6423     0.2976 Cl      
   9 C9            -3.8754     1.9243     0.2875 C.ar    
  10 C10           -3.8744     3.3170     0.3285 C.ar    
  11 C11           -5.0686     4.0072     0.2781 C.ar    
  12 C12           -6.2649     3.3187     0.1871 C.ar    
  13 C13           -6.2717     1.9361     0.1465 C.ar    
  14 C14           -5.0830     1.2361     0.1905 C.ar    
  15 C15           -7.5656     4.0778     0.1325 C.3     
  16 C16           -7.9207     4.3770    -1.3254 C.3     
  17 C17           -9.2997     5.0365    -1.3894 C.3     
  18 N18           -6.9197     5.2818    -1.8960 N.am    
  19 C19           -9.6332     5.3812    -2.8423 C.3     
  20 C20          -10.9916     6.0309    -2.9053 C.2     
  21 O21          -11.8997     5.4778    -3.4792 O.2     
  22 C22           -6.1335     4.8648    -2.9082 C.2     
  23 C23           -5.0239     5.7500    -3.4144 C.3     
  24 O24           -6.3190     3.7771    -3.4116 O.2     
  25 O25           -4.3385     5.0916    -4.4815 O.3     
  26 C26           -3.2616     5.8498    -5.0359 C.3     
  27 O27           -9.6399     4.1862    -3.6258 O.3     
  28 O28           -9.2930     6.2315    -0.6058 O.3     
  29 O29          -11.1926     7.2239    -2.3240 O.3     
  30 C30          -12.5617     9.1412    -1.7077 C.3     
  31 C31          -12.5259     7.7899    -2.4245 C.3     
  32 H32            0.7287    -0.7624     0.4776 H       
  33 H33           -3.5295    -0.7540     0.2291 H       
  34 H34           -1.3810     2.9448     0.4692 H       
  35 H35           -2.9410     3.8555     0.3998 H       
  36 H36           -5.0691     5.0867     0.3102 H       
  37 H37           -7.2086     1.4036     0.0762 H       
  38 H38           -5.0895     0.1565     0.1587 H       
  39 H39           -8.3559     3.4774     0.5830 H       
  40 H40           -7.4632     5.0141     0.6810 H       
  41 H41           -7.9359     3.4471    -1.8938 H       
  42 H42          -10.0497     4.3494    -0.9976 H       
  43 H43           -6.8227     6.1809    -1.5453 H       
  44 H44           -8.8833     6.0684    -3.2340 H       
  45 H45           -5.4443     6.6882    -3.7767 H       
  46 H46           -4.3239     5.9544    -2.6043 H       
  47 H47           -2.7930     5.2815    -5.8394 H       
  48 H48           -3.6454     6.7900    -5.4319 H       
  49 H49           -2.5250     6.0562    -4.2595 H       
  50 H50          -10.2850     3.5278    -3.3335 H       
  51 H51           -8.6021     6.8609    -0.8542 H       
  52 H52          -13.5627     9.5661    -1.7832 H       
  53 H53          -12.3041     9.0025    -0.6578 H       
  54 H54          -11.8439     9.8177    -2.1717 H       
  55 H55          -12.7835     7.9286    -3.4745 H       
  56 H56          -13.2437     7.1134    -1.9606 H       
@<TRIPOS>BOND
   1    1    2 ar
   2    1    7 1
   3    1    6 ar
   4    2    3 ar
   5    2   32 1
   6    3    4 ar
   7    3    8 1
   8    4    5 ar
   9    4   33 1
  10    5    6 ar
  11    5    9 1
  12    6   34 1
  13    9   10 ar
  14    9   14 ar
  15   10   11 ar
  16   10   35 1
  17   11   12 ar
  18   11   36 1
  19   12   13 ar
  20   12   15 1
  21   13   14 ar
  22   13   37 1
  23   14   38 1
  24   15   16 1
  25   15   39 1
  26   15   40 1
  27   16   17 1
  28   16   18 1
  29   16   41 1
  30   17   19 1
  31   17   28 1
  32   17   42 1
  33   18   22 am
  34   18   43 1
  35   19   20 1
  36   19   27 1
  37   19   44 1
  38   20   21 2
  39   20   29 1
  40   22   23 1
  41   22   24 2
  42   23   25 1
  43   23   45 1
  44   23   46 1
  45   25   26 1
  46   26   47 1
  47   26   48 1
  48   26   49 1
  49   27   50 1
  50   28   51 1
  51   29   31 1
  52   30   31 1
  53   30   52 1
  54   30   53 1
  55   30   54 1
  56   31   55 1
  57   31   56 1

#	End of record

