#	Name: ASD01410599
#	Creating user name:	WinNT
#	Creation time:	15. 06. 2019 19:18

#	Modifying user name:	WinNT
#	Modification time:	15. 06. 2019 19:18

#	Program:	/corina/corina34_cracker 3.40 0067  02.08.2006

@<TRIPOS>MOLECULE
ASD01410599
  75   78    0    0    0
SMALL
NO_CHARGES


@<TRIPOS>ATOM
   1 C1             1.3652    -2.0006     1.9510 C.ar    
   2 O2             0.9886    -2.2416     0.6701 O.3     
   3 C3            -0.3292    -2.4714     0.4244 C.ar    
   4 C4            -1.2012    -1.3988     0.2557 C.ar    
   5 C5            -2.5425    -1.6224     0.0056 C.ar    
   6 C6            -3.0281    -2.9189    -0.0784 C.ar    
   7 C7            -2.1534    -4.0037     0.0909 C.ar    
   8 C8            -0.7975    -3.7680     0.3374 C.ar    
   9 N9            -4.3807    -3.1440    -0.3297 N.am    
  10 C10           -5.2319    -3.3469     0.6954 C.2     
  11 C11           -4.8770    -3.1600    -1.7080 C.3     
  12 O12           -6.3937    -3.6162     0.4747 O.2     
  13 C13           -4.7401    -3.2391     2.1158 C.3     
  14 C14           -5.6237    -4.0928     3.0276 C.3     
  15 C15           -5.1244    -3.9834     4.4697 C.3     
  16 C16           -5.1862    -2.5229     4.9214 C.3     
  17 C17           -4.3026    -1.6692     4.0096 C.3     
  18 C18           -4.8020    -1.7786     2.5675 C.3     
  19 C19           -4.6869    -2.4134     6.3635 C.3     
  20 C20           -4.0570    -4.1534    -2.5337 C.3     
  21 C21           -5.2627    -1.7782    -3.7534 C.3     
  22 C22           -4.7445    -1.7614    -2.3140 C.3     
  23 C23           -4.5753    -4.1701    -3.9731 C.3     
  24 F24           -0.7344    -0.1337     0.3372 F       
  25 C25            2.7109    -1.8648     2.2565 C.ar    
  26 C26            3.0825    -1.6179     3.5733 C.ar    
  27 C27            2.0800    -1.5168     4.5367 C.ar    
  28 C28            0.7631    -1.6636     4.1556 C.ar    
  29 N29            0.4436    -1.8920     2.8953 N.ar    
  30 O30            4.3895    -1.4793     3.9126 O.3     
  31 C31            4.6792    -1.2273     5.2891 C.3     
  32 C32           -4.4428    -2.7715    -4.5792 C.3     
  33 O33           -4.9268    -2.7872    -5.9236 O.3     
  34 C34           -3.9269    -3.0921    -6.8979 C.3     
  35 C35            3.7556    -1.9836     1.1770 C.3     
  36 F36            3.2183    -1.5542    -0.0413 F       
  37 F37            4.8588    -1.1886     1.5061 F       
  38 F38            4.1597    -3.3182     1.0639 F       
  39 C39           -2.6605    -5.3835     0.0038 C.2     
  40 O40           -3.8512    -5.5859    -0.1317 O.2     
  41 O41           -1.8042    -6.4219     0.0742 O.3     
  42 H42           -3.2134    -0.7860    -0.1243 H       
  43 H43           -0.1192    -4.5981     0.4686 H       
  44 H44           -5.9247    -3.4606    -1.7134 H       
  45 H45           -3.7108    -3.5935     2.1718 H       
  46 H46           -6.6530    -3.7384     2.9717 H       
  47 H47           -5.5796    -5.1333     2.7059 H       
  48 H48           -5.7539    -4.5915     5.1193 H       
  49 H49           -4.0951    -4.3377     4.5257 H       
  50 H50           -6.2155    -2.1685     4.8654 H       
  51 H51           -4.3467    -0.6287     4.3314 H       
  52 H52           -3.2734    -2.0235     4.0656 H       
  53 H53           -4.1725    -1.1704     1.9179 H       
  54 H54           -5.8312    -1.4243     2.5115 H       
  55 H55           -3.6576    -2.7678     6.4195 H       
  56 H56           -4.7310    -1.3729     6.6853 H       
  57 H57           -5.3164    -3.0216     7.0131 H       
  58 H58           -3.0093    -3.8528    -2.5282 H       
  59 H59           -4.1514    -5.1498    -2.1019 H       
  60 H60           -6.3104    -2.0788    -3.7589 H       
  61 H61           -5.1683    -0.7818    -4.1852 H       
  62 H62           -5.3286    -1.0537    -1.7257 H       
  63 H63           -3.6968    -1.4608    -2.3085 H       
  64 H64           -3.9912    -4.8779    -4.5614 H       
  65 H65           -5.6230    -4.4707    -3.9786 H       
  66 H66            2.3319    -1.3260     5.5694 H       
  67 H67           -0.0179    -1.5862     4.8976 H       
  68 H68            4.1964    -0.3003     5.5982 H       
  69 H69            4.3049    -2.0518     5.8960 H       
  70 H70            5.7572    -1.1378     5.4230 H       
  71 H71           -3.3951    -2.4709    -4.5737 H       
  72 H72           -3.1337    -2.3460    -6.8502 H       
  73 H73           -3.5104    -4.0786    -6.6945 H       
  74 H74           -4.3739    -3.0843    -7.8920 H       
  75 H75           -2.1839    -7.3091     0.0123 H       
@<TRIPOS>BOND
   1    1    2 1
   2    1   25 ar
   3    1   29 ar
   4    2    3 1
   5    3    4 ar
   6    3    8 ar
   7    4    5 ar
   8    4   24 1
   9    5    6 ar
  10    5   42 1
  11    6    7 ar
  12    6    9 1
  13    7    8 ar
  14    7   39 1
  15    8   43 1
  16    9   10 am
  17    9   11 1
  18   10   12 2
  19   10   13 1
  20   11   20 1
  21   11   22 1
  22   11   44 1
  23   13   14 1
  24   13   18 1
  25   13   45 1
  26   14   15 1
  27   14   46 1
  28   14   47 1
  29   15   16 1
  30   15   48 1
  31   15   49 1
  32   16   17 1
  33   16   19 1
  34   16   50 1
  35   17   18 1
  36   17   51 1
  37   17   52 1
  38   18   53 1
  39   18   54 1
  40   19   55 1
  41   19   56 1
  42   19   57 1
  43   20   23 1
  44   20   58 1
  45   20   59 1
  46   21   22 1
  47   21   32 1
  48   21   60 1
  49   21   61 1
  50   22   62 1
  51   22   63 1
  52   23   32 1
  53   23   64 1
  54   23   65 1
  55   25   26 ar
  56   25   35 1
  57   26   27 ar
  58   26   30 1
  59   27   28 ar
  60   27   66 1
  61   28   29 ar
  62   28   67 1
  63   30   31 1
  64   31   68 1
  65   31   69 1
  66   31   70 1
  67   32   33 1
  68   32   71 1
  69   33   34 1
  70   34   72 1
  71   34   73 1
  72   34   74 1
  73   35   36 1
  74   35   37 1
  75   35   38 1
  76   39   40 2
  77   39   41 1
  78   41   75 1

#	End of record

