#	Name: ASD05310007
#	Creating user name:	WinNT
#	Creation time:	15. 06. 2019 20:58

#	Modifying user name:	WinNT
#	Modification time:	15. 06. 2019 20:58

#	Program:	/corina/corina34_cracker 3.40 0067  02.08.2006

@<TRIPOS>MOLECULE
ASD05310007
 109  112    0    0    0
SMALL
NO_CHARGES


@<TRIPOS>ATOM
   1 C1             1.9532     1.2104     2.0346 C.ar    
   2 C2             3.2951     1.5554     1.8838 C.ar    
   3 C3             4.1929     0.6316     1.4318 C.ar    
   4 C4             3.7633    -0.6656     1.1191 C.ar    
   5 C5             2.4126    -1.0083     1.2723 C.ar    
   6 C6             1.5217    -0.0782     1.7249 C.ar    
   7 N7             1.0440     2.1521     2.5004 N.pl3   
   8 C8             1.2549     3.5122     2.2491 C.ar    
   9 C9             4.7257    -1.6630     0.6319 C.2     
  10 C10            5.7999    -2.1398     1.5141 C.ar    
  11 C11            4.6189    -2.1621    -0.6804 C.2     
  12 C12            5.5129    -3.0450     2.5453 C.ar    
  13 C13            7.1152    -1.6953     1.3234 C.ar    
  14 C14            8.1104    -2.1414     2.1453 C.ar    
  15 C15            7.8198    -3.0373     3.1719 C.ar    
  16 C16            6.5141    -3.4856     3.3622 C.ar    
  17 C17            3.8301    -1.4790    -1.6328 C.2     
  18 C18            3.7260    -1.9569    -2.8949 C.2     
  19 C19            4.4091    -3.1431    -3.2607 C.2     
  20 C20            5.2000    -3.8264    -2.3039 C.2     
  21 C21            5.3052    -3.3421    -1.0444 C.2     
  22 C22            3.1038    -0.2174    -1.2432 C.3     
  23 C23            4.1014    -3.5306     2.7521 C.3     
  24 N24            8.8358    -3.4892     4.0053 N.pl3   
  25 C25           10.2102    -3.0235     3.8037 C.3     
  26 C26            8.5327    -4.4312     5.0855 C.3     
  27 C27            8.6701    -5.8639     4.5663 C.3     
  28 C28           10.4421    -1.7758     4.6164 C.ar    
  29 C29           10.1807    -0.5344     4.0668 C.ar    
  30 C30           10.9107    -1.8727     5.9130 C.ar    
  31 C31           11.1235    -0.7280     6.6585 C.ar    
  32 C32           10.8681     0.5133     6.1070 C.ar    
  33 C33           10.3934     0.6100     4.8121 C.ar    
  34 N34            4.3082    -3.6134    -4.4963 N.2     
  35 C35            5.1407    -4.7415    -4.9211 C.3     
  36 C36            3.3640    -3.0048    -5.4368 C.3     
  37 C37            6.1038    -4.2804    -6.0169 C.3     
  38 C38            2.2964    -4.0061    -5.7955 C.ar    
  39 C39            1.1398    -4.0827    -5.0428 C.ar    
  40 C40            0.1604    -5.0013    -5.3718 C.ar    
  41 C41            0.3377    -5.8428    -6.4539 C.ar    
  42 C42            1.4943    -5.7656    -7.2074 C.ar    
  43 C43            2.4715    -4.8443    -6.8810 C.ar    
  44 S44           -1.3136    -5.0997    -4.4115 S.o2    
  45 O45           -1.7667    -6.4804    -4.4788 O.co2   
  46 O46           -0.9585    -4.7071    -3.0566 O.co2   
  47 O47           -2.2683    -4.1819    -5.0133 O.co2   
  48 S48           10.0609     2.1922     4.1115 S.o2    
  49 O49           10.9817     3.1293     4.7360 O.co2   
  50 O50           10.2901     2.0735     2.6799 O.co2   
  51 O51            8.6735     2.5035     4.4183 O.co2   
  52 C52            2.1425     5.2528     0.8580 C.ar    
  53 C53            1.9352     3.9102     1.1054 C.ar    
  54 C54            0.7791     4.4655     3.1402 C.ar    
  55 C55            0.9874     5.8076     2.8911 C.ar    
  56 C56            1.6712     6.2040     1.7510 C.ar    
  57 O57            1.8758     7.5259     1.5065 O.3     
  58 C58            1.3634     8.4504     2.4682 C.3     
  59 C59            1.6877     9.8787     2.0257 C.3     
  60 H60            3.6251     2.5552     2.1246 H       
  61 H61            5.2325     0.8999     1.3150 H       
  62 H62            2.0774    -2.0066     1.0326 H       
  63 H63            0.4809    -0.3413     1.8433 H       
  64 H64            0.2630     1.8666     2.9998 H       
  65 H65            7.3416    -1.0014     0.5274 H       
  66 H66            9.1244    -1.7994     1.9991 H       
  67 H67            6.2939    -4.1830     4.1570 H       
  68 H68            3.1223    -1.4347    -3.6224 H       
  69 H69            5.7213    -4.7309    -2.5805 H       
  70 H70            5.9082    -3.8624    -0.3149 H       
  71 H71            3.7119     0.3489    -0.5378 H       
  72 H72            2.9216     0.3863    -2.1322 H       
  73 H73            2.1524    -0.4749    -0.7776 H       
  74 H74            3.9373    -4.4323     2.1622 H       
  75 H75            3.9447    -3.7534     3.8075 H       
  76 H76            3.4012    -2.7573     2.4361 H       
  77 H77           10.9069    -3.7991     4.1218 H       
  78 H78           10.3682    -2.8040     2.7478 H       
  79 H79            9.2286    -4.2752     5.9097 H       
  80 H80            7.5132    -4.2676     5.4349 H       
  81 H81            7.9741    -6.0200     3.7421 H       
  82 H82            9.6895    -6.0275     4.2170 H       
  83 H83            8.4445    -6.5648     5.3700 H       
  84 H84            9.8107    -0.4588     3.0550 H       
  85 H85           11.1103    -2.8427     6.3439 H       
  86 H86           11.4890    -0.8038     7.6720 H       
  87 H87           11.0340     1.4075     6.6895 H       
  88 H88            5.7105    -5.1135    -4.0696 H       
  89 H89            4.5043    -5.5373    -5.3080 H       
  90 H90            2.9029    -2.1318    -4.9749 H       
  91 H91            3.8949    -2.7007    -6.3390 H       
  92 H92            6.7232    -5.1198    -6.3330 H       
  93 H93            5.5340    -3.9085    -6.8685 H       
  94 H94            6.7402    -3.4846    -5.6301 H       
  95 H95            1.0013    -3.4251    -4.1973 H       
  96 H96           -0.4270    -6.5609    -6.7105 H       
  97 H97            1.6330    -6.4234    -8.0527 H       
  98 H98            3.3750    -4.7840    -7.4697 H       
  99 H99            2.6718     5.5624    -0.0310 H       
 100 H100           2.3023     3.1698     0.4101 H       
 101 H101           0.2462     4.1571     4.0275 H       
 102 H102           0.6175     6.5490     3.5839 H       
 103 H103           0.2829     8.3310     2.5472 H       
 104 H104           1.8222     8.2575     3.4380 H       
 105 H105           2.7683     9.9981     1.9467 H       
 106 H106           1.2290    10.0716     1.0560 H       
 107 H107           1.2969    10.5839     2.7593 H       
 108 Na108         16.4890    15.5839    12.6720 Du      
 109 Na109         21.4890    20.5839    17.6720 Du      
@<TRIPOS>BOND
   1    1    2 ar
   2    1    6 ar
   3    1    7 1
   4    2    3 ar
   5    2   60 1
   6    3    4 ar
   7    3   61 1
   8    4    5 ar
   9    4    9 1
  10    5    6 ar
  11    5   62 1
  12    6   63 1
  13    7    8 1
  14    7   64 1
  15    8   54 ar
  16    8   53 ar
  17    9   10 1
  18    9   11 2
  19   10   13 ar
  20   10   12 ar
  21   11   17 1
  22   11   21 1
  23   12   16 ar
  24   12   23 1
  25   13   14 ar
  26   13   65 1
  27   14   15 ar
  28   14   66 1
  29   15   16 ar
  30   15   24 1
  31   16   67 1
  32   17   18 2
  33   17   22 1
  34   18   19 1
  35   18   68 1
  36   19   20 1
  37   19   34 2
  38   20   21 2
  39   20   69 1
  40   21   70 1
  41   22   71 1
  42   22   72 1
  43   22   73 1
  44   23   74 1
  45   23   75 1
  46   23   76 1
  47   24   25 1
  48   24   26 1
  49   25   28 1
  50   25   77 1
  51   25   78 1
  52   26   27 1
  53   26   79 1
  54   26   80 1
  55   27   81 1
  56   27   82 1
  57   27   83 1
  58   28   30 ar
  59   28   29 ar
  60   29   33 ar
  61   29   84 1
  62   30   31 ar
  63   30   85 1
  64   31   32 ar
  65   31   86 1
  66   32   33 ar
  67   32   87 1
  68   33   48 1
  69   34   35 1
  70   34   36 1
  71   35   37 1
  72   35   88 1
  73   35   89 1
  74   36   38 1
  75   36   90 1
  76   36   91 1
  77   37   92 1
  78   37   93 1
  79   37   94 1
  80   38   39 ar
  81   38   43 ar
  82   39   40 ar
  83   39   95 1
  84   40   41 ar
  85   40   44 1
  86   41   42 ar
  87   41   96 1
  88   42   43 ar
  89   42   97 1
  90   43   98 1
  91   44   45 ar
  92   44   46 ar
  93   44   47 ar
  94   48   49 ar
  95   48   50 ar
  96   48   51 ar
  97   52   53 ar
  98   52   56 ar
  99   52   99 1
 100   53  100 1
 101   54   55 ar
 102   54  101 1
 103   55   56 ar
 104   55  102 1
 105   56   57 1
 106   57   58 1
 107   58   59 1
 108   58  103 1
 109   58  104 1
 110   59  105 1
 111   59  106 1
 112   59  107 1

#	End of record

