#	Name: ASD05730016
#	Creating user name:	WinNT
#	Creation time:	15. 06. 2019 21:02

#	Modifying user name:	WinNT
#	Modification time:	15. 06. 2019 21:02

#	Program:	/corina/corina34_cracker 3.40 0067  02.08.2006

@<TRIPOS>MOLECULE
ASD05730016
  51   54    0    0    0
SMALL
NO_CHARGES


@<TRIPOS>ATOM
   1 N1            -0.0152     1.3237     0.0078 N.ar    
   2 C2             0.0024    -0.0045     0.0076 C.ar    
   3 N3             1.1295    -0.7008     0.0058 N.ar    
   4 C4             2.3021    -0.0793     0.0037 C.ar    
   5 C5             2.3209     1.3315     0.0033 C.ar    
   6 C6             1.1066     2.0223     0.0057 C.ar    
   7 N7             3.4847    -0.7740     0.0022 N.am    
   8 C8             4.6678    -0.1358     0.0005 C.2     
   9 C9             4.7552     1.2722     0.0005 C.2     
  10 C10            3.6123     2.0294     0.0004 C.2     
  11 N11           -1.1998    -0.6854     0.0098 N.pl3   
  12 C12           -2.4035     0.0196     0.1308 C.ar    
  13 C13           -3.5374    -0.4219    -0.5384 C.ar    
  14 C14           -4.7241     0.2740    -0.4186 C.ar    
  15 C15           -4.7836     1.4140     0.3695 C.ar    
  16 C16           -3.6514     1.8557     1.0382 C.ar    
  17 C17           -2.4654     1.1574     0.9244 C.ar    
  18 O18           -5.9523     2.0992     0.4862 O.3     
  19 O19            5.6944    -0.7924    -0.0007 O.2     
  20 C20            3.4581    -2.2387     0.0031 C.3     
  21 C21            4.1692    -2.7797    -1.2496 C.3     
  22 C22            5.3545    -3.6314    -0.7503 C.3     
  23 C23            4.9444    -4.0494     0.6837 C.3     
  24 C24            4.2360    -2.7807     1.2201 C.3     
  25 C25           -5.9416     3.2640     1.3140 C.3     
  26 C26           -7.3348     3.8964     1.3226 C.3     
  27 N27           -8.2864     2.9760     1.9592 N.3     
  28 C28            3.6766     3.4600     0.0005 C.1     
  29 N29            3.7275     4.5948     0.0006 N.1     
  30 H30            1.0851     3.1021     0.0059 H       
  31 H31            5.7220     1.7534    -0.0006 H       
  32 H32           -1.2099    -1.6519    -0.0724 H       
  33 H33           -3.4911    -1.3090    -1.1526 H       
  34 H34           -5.6061    -0.0692    -0.9389 H       
  35 H35           -3.6985     2.7433     1.6516 H       
  36 H36           -1.5840     1.5012     1.4454 H       
  37 H37            2.4276    -2.5931     0.0298 H       
  38 H38            3.4842    -3.3972    -1.8305 H       
  39 H39            4.5342    -1.9523    -1.8582 H       
  40 H40            5.4851    -4.5106    -1.3812 H       
  41 H41            6.2683    -3.0376    -0.7279 H       
  42 H42            4.2563    -4.8943     0.6579 H       
  43 H43            5.8235    -4.2839     1.2840 H       
  44 H44            4.9692    -2.0495     1.5606 H       
  45 H45            3.5503    -3.0390     2.0270 H       
  46 H46           -5.6629     2.9850     2.3302 H       
  47 H47           -5.2196     3.9809     0.9231 H       
  48 H48           -7.3056     4.8322     1.8808 H       
  49 H49           -7.6504     4.0941     0.2982 H       
  50 H50           -7.9816     2.7262     2.8881 H       
  51 H51           -9.2147     3.3711     1.9772 H       
@<TRIPOS>BOND
   1    1    2 ar
   2    1    6 ar
   3    2    3 ar
   4    2   11 1
   5    3    4 ar
   6    4    5 ar
   7    4    7 1
   8    5    6 ar
   9    5   10 1
  10    6   30 1
  11    7    8 am
  12    7   20 1
  13    8    9 1
  14    8   19 2
  15    9   10 2
  16    9   31 1
  17   10   28 1
  18   11   12 1
  19   11   32 1
  20   12   13 ar
  21   12   17 ar
  22   13   14 ar
  23   13   33 1
  24   14   15 ar
  25   14   34 1
  26   15   16 ar
  27   15   18 1
  28   16   17 ar
  29   16   35 1
  30   17   36 1
  31   18   25 1
  32   20   21 1
  33   20   24 1
  34   20   37 1
  35   21   22 1
  36   21   38 1
  37   21   39 1
  38   22   23 1
  39   22   40 1
  40   22   41 1
  41   23   24 1
  42   23   42 1
  43   23   43 1
  44   24   44 1
  45   24   45 1
  46   25   26 1
  47   25   46 1
  48   25   47 1
  49   26   27 1
  50   26   48 1
  51   26   49 1
  52   27   50 1
  53   27   51 1
  54   28   29 3

#	End of record

