#	Name: ASD08150551
#	Creating user name:	WinNT
#	Creation time:	15. 06. 2019 21:16

#	Modifying user name:	WinNT
#	Modification time:	15. 06. 2019 21:16

#	Program:	/corina/corina34_cracker 3.40 0067  02.08.2006

@<TRIPOS>MOLECULE
ASD08150551
  43   47    0    0    0
SMALL
NO_CHARGES


@<TRIPOS>ATOM
   1 N1            -0.0155     1.2942     0.0092 N.2     
   2 C2             0.0021    -0.0041     0.0020 C.2     
   3 N3             1.1488    -0.7361    -0.0129 N.am    
   4 C4             2.3561    -0.1245    -0.0211 C.2     
   5 C5             2.3703     1.3456    -0.0133 C.ar    
   6 C6             3.5602     2.0707    -0.0203 C.ar    
   7 C7             3.5159     3.4484    -0.0121 C.ar    
   8 C8             2.2970     4.1158     0.0031 C.ar    
   9 C9             1.1108     3.4174     0.0107 C.ar    
  10 C10            1.1298     2.0211     0.0021 C.ar    
  11 O11            3.3902    -0.7667    -0.0340 O.2     
  12 C12            1.0793    -2.1353    -0.0193 C.ar    
  13 C13            1.0565    -2.8370     1.1803 C.ar    
  14 C14            0.9879    -4.2172     1.1699 C.ar    
  15 C15            0.9425    -4.8995    -0.0322 C.ar    
  16 C16            0.9656    -4.2038    -1.2268 C.ar    
  17 C17            1.0274    -2.8237    -1.2235 C.ar    
  18 Cl18           1.1146    -1.9809     2.6894 Cl      
  19 Br19           5.1269     4.4385    -0.0208 Br      
  20 C20           -1.3145    -0.7373     0.0112 C.3     
  21 N21           -3.4548     0.3000    -0.8699 N.pl3   
  22 C22           -2.4445     0.2596     0.0277 C.2     
  23 N23           -2.5906     1.2085     0.9102 N.2     
  24 C24           -3.7017     1.9179     0.6367 C.ar    
  25 N25           -4.3051     2.9686     1.2013 N.ar    
  26 C26           -5.4141     3.4566     0.6909 C.ar    
  27 N27           -5.9842     2.9478    -0.3862 N.ar    
  28 C28           -5.4547     1.9015    -1.0149 C.ar    
  29 C29           -4.2766     1.3475    -0.5110 C.ar    
  30 N30           -6.0593     1.3734    -2.1442 N.pl3   
  31 H31            4.5102     1.5571    -0.0317 H       
  32 H32            2.2802     5.1956     0.0094 H       
  33 H33            0.1696     3.9471     0.0225 H       
  34 H34            0.9701    -4.7636     2.1014 H       
  35 H35            0.8894    -5.9782    -0.0378 H       
  36 H36            0.9304    -4.7398    -2.1637 H       
  37 H37            1.0401    -2.2810    -2.1572 H       
  38 H38           -1.3908    -1.3582    -0.8815 H       
  39 H39           -1.3731    -1.3678     0.8984 H       
  40 H40           -3.5765    -0.2940    -1.6271 H       
  41 H41           -5.8770     4.3060     1.1713 H       
  42 H42           -6.8779     1.7667    -2.4849 H       
  43 H43           -5.6639     0.6104    -2.5941 H       
@<TRIPOS>BOND
   1    1    2 2
   2    1   10 1
   3    2    3 1
   4    2   20 1
   5    3    4 am
   6    3   12 1
   7    4    5 1
   8    4   11 2
   9    5    6 ar
  10    5   10 ar
  11    6    7 ar
  12    6   31 1
  13    7    8 ar
  14    7   19 1
  15    8    9 ar
  16    8   32 1
  17    9   10 ar
  18    9   33 1
  19   12   13 ar
  20   12   17 ar
  21   13   14 ar
  22   13   18 1
  23   14   15 ar
  24   14   34 1
  25   15   16 ar
  26   15   35 1
  27   16   17 ar
  28   16   36 1
  29   17   37 1
  30   20   22 1
  31   20   38 1
  32   20   39 1
  33   21   22 1
  34   21   29 1
  35   21   40 1
  36   22   23 2
  37   23   24 1
  38   24   25 ar
  39   24   29 ar
  40   25   26 ar
  41   26   27 ar
  42   26   41 1
  43   27   28 ar
  44   28   29 ar
  45   28   30 1
  46   30   42 1
  47   30   43 1

#	End of record

