#	Name: ASD01884014
#	Creating user name:	WinNT
#	Creation time:	15. 06. 2019 19:47

#	Modifying user name:	WinNT
#	Modification time:	15. 06. 2019 19:47

#	Program:	/corina/corina34_cracker 3.40 0067  02.08.2006

@<TRIPOS>MOLECULE
ASD01884014
  55   59    0    0    0
SMALL
NO_CHARGES


@<TRIPOS>ATOM
   1 F1             4.4499     6.1386     5.9017 F       
   2 C2             4.3392     4.9366     5.1945 C.3     
   3 F3             4.3343     5.2024     3.8210 F       
   4 F4             5.4247     4.1108     5.5058 F       
   5 C5             3.0364     4.2345     5.5828 C.3     
   6 C6             1.8493     5.1377     5.2423 C.3     
   7 N7             0.6019     4.4654     5.6141 N.am    
   8 C8            -0.1827     3.5800     4.7464 C.3     
   9 C9            -1.3710     3.1333     5.5617 C.ar    
  10 C10           -2.4406     2.3093     5.2909 C.ar    
  11 C11           -3.4010     2.0780     6.2575 C.ar    
  12 C12           -3.2888     2.6798     7.5129 C.ar    
  13 C13           -2.2079     3.5140     7.7916 C.ar    
  14 C14           -1.2428     3.7440     6.8131 C.ar    
  15 C15           -0.0089     4.5539     6.8081 C.2     
  16 O16            0.3958     5.2092     7.7485 O.2     
  17 C17           -4.3169     2.4321     8.5458 C.2     
  18 C18           -5.1961     1.3663     8.5736 C.2     
  19 C19           -6.0024     1.5088     9.7066 C.2     
  20 C20           -5.6071     2.6497    10.3440 C.2     
  21 C21           -6.0953     3.2808    11.5768 C.2     
  22 O22           -6.8706     2.7133    12.3240 O.2     
  23 N23           -5.6364     4.5276    11.8381 N.am    
  24 C24           -5.8973     5.1215    13.1516 C.3     
  25 C25           -4.7545     4.7700    14.1063 C.3     
  26 C26           -3.5814     5.7629    14.0548 C.3     
  27 C27           -3.5005     5.6254    15.5843 C.3     
  28 C28           -4.9900     5.2443    15.5501 C.3     
  29 C29           -4.8893     5.2958    10.8486 C.3     
  30 C30           -3.8916     4.4370    10.0718 C.3     
  31 N31           -4.5545     3.2071     9.6294 N.pl3   
  32 H32            2.9502     3.2980     5.0318 H       
  33 H33            3.0403     4.0275     6.6529 H       
  34 H34            1.9355     6.0742     5.7933 H       
  35 H35            1.8454     5.3447     4.1722 H       
  36 H36           -0.5177     4.1227     3.8624 H       
  37 H37            0.4154     2.7175     4.4525 H       
  38 H38           -2.5294     1.8430     4.3208 H       
  39 H39           -4.2391     1.4319     6.0417 H       
  40 H40           -2.1189     3.9808     8.7614 H       
  41 H41           -5.2507     0.5668     7.8495 H       
  42 H42           -6.7915     0.8410    10.0193 H       
  43 H43           -5.9682     6.2047    13.0530 H       
  44 H44           -6.8346     4.7305    13.5475 H       
  45 H45           -4.4484     3.7263    14.0340 H       
  46 H46           -2.7048     5.3765    13.5348 H       
  47 H47           -3.8677     6.7601    13.7206 H       
  48 H48           -2.8502     4.8161    15.9162 H       
  49 H49           -3.3023     6.5665    16.0975 H       
  50 H50           -5.6614     6.0997    15.6246 H       
  51 H51           -5.2506     4.4392    16.2371 H       
  52 H52           -5.5920     5.7430    10.1455 H       
  53 H53           -4.3472     6.0930    11.3573 H       
  54 H54           -3.5313     4.9911     9.2050 H       
  55 H55           -3.0511     4.1812    10.7171 H       
@<TRIPOS>BOND
   1    1    2 1
   2    2    3 1
   3    2    4 1
   4    2    5 1
   5    5    6 1
   6    5   32 1
   7    5   33 1
   8    6    7 1
   9    6   34 1
  10    6   35 1
  11    7   15 am
  12    7    8 1
  13    8    9 1
  14    8   36 1
  15    8   37 1
  16    9   14 ar
  17    9   10 ar
  18   10   11 ar
  19   10   38 1
  20   11   12 ar
  21   11   39 1
  22   12   13 ar
  23   12   17 1
  24   13   14 ar
  25   13   40 1
  26   14   15 1
  27   15   16 2
  28   17   31 1
  29   17   18 2
  30   18   19 1
  31   18   41 1
  32   19   20 2
  33   19   42 1
  34   20   31 1
  35   20   21 1
  36   21   22 2
  37   21   23 am
  38   23   24 1
  39   23   29 1
  40   24   25 1
  41   24   43 1
  42   24   44 1
  43   25   28 1
  44   25   26 1
  45   25   45 1
  46   26   27 1
  47   26   46 1
  48   26   47 1
  49   27   28 1
  50   27   48 1
  51   27   49 1
  52   28   50 1
  53   28   51 1
  54   29   30 1
  55   29   52 1
  56   29   53 1
  57   30   31 1
  58   30   54 1
  59   30   55 1

#	End of record

