#	Name: ASD01880933
#	Creating user name:	WinNT
#	Creation time:	15. 06. 2019 19:41

#	Modifying user name:	WinNT
#	Modification time:	15. 06. 2019 19:41

#	Program:	/corina/corina34_cracker 3.40 0067  02.08.2006

@<TRIPOS>MOLECULE
ASD01880933
  35   37    0    0    0
SMALL
NO_CHARGES


@<TRIPOS>ATOM
   1 N1            -0.0158     1.3136     0.0093 N.ar    
   2 C2             0.0021    -0.0041     0.0020 C.ar    
   3 N3             1.1319    -0.6827    -0.0124 N.ar    
   4 C4             2.2989    -0.0581    -0.0202 C.ar    
   5 C5             2.3222     1.3269    -0.0130 C.ar    
   6 C6             1.1127     2.0071     0.0022 C.ar    
   7 C7             3.6294     2.0768    -0.0210 C.3     
   8 O8             4.7129     1.1452    -0.0359 O.3     
   9 C9             5.9684     1.6604    -0.0446 C.ar    
  10 C10            7.0691     0.8087    -0.0593 C.ar    
  11 C11            8.3387     1.3299    -0.0686 C.ar    
  12 C12            8.5355     2.7151    -0.0634 C.ar    
  13 C13            7.4261     3.5672    -0.0487 C.ar    
  14 C14            6.1531     3.0372    -0.0447 C.ar    
  15 C15            9.7116     0.7052    -0.0851 C.3     
  16 N16           10.6678     1.8182    -0.0888 N.am    
  17 C17            9.9846     2.9756    -0.0762 C.2     
  18 O18           10.4913     4.0809    -0.0759 O.2     
  19 Cl19           7.6515     5.2885    -0.0416 Cl      
  20 Cl20           1.0791     3.7428     0.0113 Cl      
  21 C21           12.6206     1.6519    -1.5518 C.3     
  22 C22           12.1270     1.6892    -0.1041 C.3     
  23 H23           -0.9342    -0.5424     0.0084 H       
  24 H24            3.2206    -0.6208    -0.0317 H       
  25 H25            3.6807     2.7080    -0.9081 H       
  26 H26            3.6971     2.6985     0.8718 H       
  27 H27            6.9243    -0.2616    -0.0630 H       
  28 H28            5.2966     3.6949    -0.0337 H       
  29 H29            9.8546     0.0912     0.8040 H       
  30 H30            9.8372     0.1003    -0.9831 H       
  31 H31           13.7063     1.5559    -1.5632 H       
  32 H32           12.1751     0.8002    -2.0658 H       
  33 H33           12.3320     2.5732    -2.0578 H       
  34 H34           12.5725     2.5409     0.4099 H       
  35 H35           12.4156     0.7679     0.4020 H       
@<TRIPOS>BOND
   1    1    2 ar
   2    1    6 ar
   3    2    3 ar
   4    2   23 1
   5    3    4 ar
   6    4    5 ar
   7    4   24 1
   8    5    6 ar
   9    5    7 1
  10    6   20 1
  11    7    8 1
  12    7   25 1
  13    7   26 1
  14    8    9 1
  15    9   10 ar
  16    9   14 ar
  17   10   11 ar
  18   10   27 1
  19   11   12 ar
  20   11   15 1
  21   12   13 ar
  22   12   17 1
  23   13   14 ar
  24   13   19 1
  25   14   28 1
  26   15   16 1
  27   15   29 1
  28   15   30 1
  29   16   17 am
  30   16   22 1
  31   17   18 2
  32   21   22 1
  33   21   31 1
  34   21   32 1
  35   21   33 1
  36   22   34 1
  37   22   35 1

#	End of record

