#	Name: ASD06660071
#	Creating user name:	WinNT
#	Creation time:	15. 06. 2019 21:07

#	Modifying user name:	WinNT
#	Modification time:	15. 06. 2019 21:07

#	Program:	/corina/corina34_cracker 3.40 0067  02.08.2006

@<TRIPOS>MOLECULE
ASD06660071
  77   80    0    0    0
SMALL
NO_CHARGES


@<TRIPOS>ATOM
   1 C1             0.0328     1.6468     0.9566 C.2     
   2 C2            -0.0051     0.2521     0.3871 C.3     
   3 C3            -1.0768     0.1749    -0.7021 C.3     
   4 O4             1.0470     2.3000     0.8881 O.2     
   5 O5            -1.0617     2.1655     1.5350 O.3     
   6 C6            -1.2064    -1.2487    -1.1793 C.ar    
   7 C7            -2.0727    -2.1151    -0.5381 C.ar    
   8 C8            -2.1938    -3.4203    -0.9728 C.ar    
   9 C9            -1.4443    -3.8625    -2.0556 C.ar    
  10 C10           -0.5750    -2.9895    -2.6974 C.ar    
  11 C11           -0.4629    -1.6840    -2.2610 C.ar    
  12 N12           -1.5640    -5.1820    -2.4976 N.3     
  13 C13           -0.6863    -5.4334    -3.6477 C.3     
  14 C14           -0.9493    -6.8384    -4.1944 C.3     
  15 C15           -0.6846    -7.8676    -3.0919 C.3     
  16 C16           -1.5765    -7.5543    -1.8874 C.3     
  17 C17           -1.2952    -6.1286    -1.4076 C.3     
  18 C18           -0.9995    -9.2487    -3.6062 C.2     
  19 N19           -0.8398   -10.3193    -2.8033 N.am    
  20 O20           -1.3966    -9.3967    -4.7422 O.2     
  21 C21           -1.1285   -11.5855    -3.2747 C.2     
  22 N22           -1.5538   -11.8064    -4.4739 N.2     
  23 C23           -1.7701   -13.2457    -4.6762 C.3     
  24 C24           -1.3808   -13.8747    -3.3235 C.3     
  25 N25           -0.9826   -12.7117    -2.5129 N.pl3   
  26 N26            1.3013    -0.0757    -0.1892 N.am    
  27 C27            2.3259    -0.4199     0.6159 C.2     
  28 C28            3.6691    -0.6626     0.0422 C.ar    
  29 C29            4.0807    -1.9656    -0.2426 C.ar    
  30 C30            5.3303    -2.1928    -0.7759 C.ar    
  31 C31            6.1864    -1.1174    -1.0325 C.ar    
  32 C32            5.7728     0.1870    -0.7473 C.ar    
  33 C33            4.5203     0.4120    -0.2187 C.ar    
  34 O34            2.1473    -0.5310     1.8128 O.2     
  35 C35            4.0720     1.8187     0.0836 C.3     
  36 C36            3.1579    -3.1245     0.0341 C.3     
  37 C37            2.2340    -3.3386    -1.1666 C.3     
  38 C38            7.5239    -1.3591    -1.6027 C.2     
  39 O39            7.8821    -2.4906    -1.8495 O.2     
  40 C40            8.4460    -0.1996    -1.8790 C.3     
  41 H41           -0.2409    -0.4578     1.1799 H       
  42 H42           -2.0314     0.5105    -0.2969 H       
  43 H43           -0.7921     0.8138    -1.5380 H       
  44 H44           -0.9891     3.0637     1.8858 H       
  45 H45           -2.6549    -1.7708     0.3039 H       
  46 H46           -2.8703    -4.0966    -0.4714 H       
  47 H47            0.0091    -3.3301    -3.5395 H       
  48 H48            0.2091    -1.0034    -2.7625 H       
  49 H49           -0.8876    -4.6973    -4.4260 H       
  50 H50            0.3547    -5.3547    -3.3342 H       
  51 H51           -1.9866    -6.9135    -4.5209 H       
  52 H52           -0.2867    -7.0305    -5.0383 H       
  53 H53            0.3623    -7.8193    -2.7924 H       
  54 H54           -2.6236    -7.6407    -2.1776 H       
  55 H55           -1.3620    -8.2580    -1.0830 H       
  56 H56           -0.2514    -6.0467    -1.1045 H       
  57 H57           -1.9389    -5.8974    -0.5588 H       
  58 H58           -0.5221   -10.2009    -1.8944 H       
  59 H59           -2.8169   -13.4466    -4.9040 H       
  60 H60           -1.1261   -13.6209    -5.4716 H       
  61 H61           -2.2340   -14.3854    -2.8770 H       
  62 H62           -0.5417   -14.5598    -3.4451 H       
  63 H63           -0.6723   -12.7394    -1.5943 H       
  64 H64            1.4289    -0.0451    -1.1503 H       
  65 H65            5.6488    -3.2012    -0.9955 H       
  66 H66            6.4331     1.0185    -0.9450 H       
  67 H67            4.3542     2.0786     1.1038 H       
  68 H68            4.5482     2.5093    -0.6123 H       
  69 H69            2.9892     1.8855    -0.0221 H       
  70 H70            3.7471    -4.0255     0.2044 H       
  71 H71            2.5593    -2.9090     0.9192 H       
  72 H72            1.7177    -2.4070    -1.3985 H       
  73 H73            2.8243    -3.6510    -2.0280 H       
  74 H74            1.5019    -4.1102    -0.9286 H       
  75 H75            9.0572    -0.0036    -0.9981 H       
  76 H76            9.0920    -0.4422    -2.7228 H       
  77 H77            7.8557     0.6855    -2.1160 H       
@<TRIPOS>BOND
   1    1    2 1
   2    1    4 2
   3    1    5 1
   4    2    3 1
   5    2   26 1
   6    2   41 1
   7    3    6 1
   8    3   42 1
   9    3   43 1
  10    5   44 1
  11    6    7 ar
  12    6   11 ar
  13    7    8 ar
  14    7   45 1
  15    8    9 ar
  16    8   46 1
  17    9   10 ar
  18    9   12 1
  19   10   11 ar
  20   10   47 1
  21   11   48 1
  22   12   13 1
  23   12   17 1
  24   13   14 1
  25   13   49 1
  26   13   50 1
  27   14   15 1
  28   14   51 1
  29   14   52 1
  30   15   16 1
  31   15   18 1
  32   15   53 1
  33   16   17 1
  34   16   54 1
  35   16   55 1
  36   17   56 1
  37   17   57 1
  38   18   19 am
  39   18   20 2
  40   19   21 1
  41   19   58 1
  42   21   22 2
  43   21   25 1
  44   22   23 1
  45   23   24 1
  46   23   59 1
  47   23   60 1
  48   24   25 1
  49   24   61 1
  50   24   62 1
  51   25   63 1
  52   26   27 am
  53   26   64 1
  54   27   28 1
  55   27   34 2
  56   28   29 ar
  57   28   33 ar
  58   29   30 ar
  59   29   36 1
  60   30   31 ar
  61   30   65 1
  62   31   32 ar
  63   31   38 1
  64   32   33 ar
  65   32   66 1
  66   33   35 1
  67   35   67 1
  68   35   68 1
  69   35   69 1
  70   36   37 1
  71   36   70 1
  72   36   71 1
  73   37   72 1
  74   37   73 1
  75   37   74 1
  76   38   39 2
  77   38   40 1
  78   40   75 1
  79   40   76 1
  80   40   77 1

#	End of record

