#	Name: ASD01816673
#	Creating user name:	WinNT
#	Creation time:	15. 06. 2019 19:35

#	Modifying user name:	WinNT
#	Modification time:	15. 06. 2019 19:35

#	Program:	/corina/corina34_cracker 3.40 0067  02.08.2006

@<TRIPOS>MOLECULE
ASD01816673
  70   75    0    0    0
SMALL
NO_CHARGES


@<TRIPOS>ATOM
   1 C1            -0.0167     1.3960     0.0157 C.2     
   2 C2             0.0025    -0.0052    -0.0025 C.2     
   3 C3             1.1989    -0.6602    -0.0248 C.2     
   4 C4             2.3921     0.0815    -0.0292 C.2     
   5 N5             2.3439     1.4491    -0.0107 N.am    
   6 C6             1.1421     2.0927     0.0111 C.2     
   7 C7             3.6230    -0.5886    -0.0521 C.2     
   8 C8             4.7879     0.1231    -0.0565 C.2     
   9 C9             4.7340     1.5284    -0.0380 C.2     
  10 C10            3.4813     2.1731    -0.0149 C.2     
  11 C11            3.6604    -2.0950    -0.0712 C.3     
  12 O12            3.4256     3.3913     0.0013 O.2     
  13 C13            5.9710     2.3159    -0.0418 C.2     
  14 N14            7.1647     1.6963     0.0459 N.am    
  15 O15            5.9198     3.5292    -0.1241 O.2     
  16 N16            3.7770    -2.5644    -1.4583 N.3     
  17 C17            4.0539    -4.0068    -1.5047 C.3     
  18 C18            4.0889    -4.4702    -2.9630 C.3     
  19 N19            5.1194    -3.7154    -3.6896 N.3     
  20 C20            4.8424    -2.2729    -3.6432 C.3     
  21 C21            4.8075    -1.8095    -2.1849 C.3     
  22 C22            5.2294    -4.1585    -4.9991 C.ar    
  23 C23            8.4025     2.4710    -0.0711 C.3     
  24 C24            8.7701     3.0545     1.2947 C.3     
  25 C25            9.5310     1.5590    -0.5565 C.3     
  26 C26           10.8238     2.3681    -0.6787 C.3     
  27 C27           11.1914     2.9516     0.6871 C.3     
  28 C28           10.0629     3.8636     1.1725 C.3     
  29 O29            9.1878     1.0141    -1.8321 O.3     
  30 N30            4.4516    -5.1374    -5.4133 N.ar    
  31 C31            4.5246    -5.5942    -6.6669 C.ar    
  32 C32            5.4514    -5.0227    -7.5746 C.ar    
  33 C33            6.2866    -3.9757    -7.1397 C.ar    
  34 C34            6.1628    -3.5486    -5.8516 C.ar    
  35 C35            3.7019    -6.6381    -7.1229 C.ar    
  36 N36            3.8030    -7.0606    -8.3613 N.ar    
  37 C37            4.6612    -6.5429    -9.2290 C.ar    
  38 C38            5.5033    -5.5257    -8.8845 C.ar    
  39 Cl39           4.7155    -7.1753   -10.8448 Cl      
  40 H40           -0.9603     1.9212     0.0290 H       
  41 H41           -0.9228    -0.5622     0.0015 H       
  42 H42            1.2286    -1.7397    -0.0387 H       
  43 H43            1.1154     3.1723     0.0255 H       
  44 H44            5.7397    -0.3869    -0.0738 H       
  45 H45            4.5179    -2.4445     0.5038 H       
  46 H46            2.7436    -2.4869     0.3691 H       
  47 H47            7.2041     0.7373     0.1865 H       
  48 H48            5.0175    -4.2074    -1.0362 H       
  49 H49            3.2706    -4.5449    -0.9709 H       
  50 H50            4.3229    -5.5341    -3.0010 H       
  51 H51            3.1168    -4.2947    -3.4238 H       
  52 H52            5.6258    -1.7348    -4.1770 H       
  53 H53            3.8789    -2.0724    -4.1117 H       
  54 H54            4.5735    -0.7456    -2.1469 H       
  55 H55            5.7795    -1.9851    -1.7241 H       
  56 H56            8.2577     3.2815    -0.7854 H       
  57 H57            7.9661     3.7042     1.6405 H       
  58 H58            8.9149     2.2439     2.0090 H       
  59 H59            9.6758     0.7485     0.1578 H       
  60 H60           11.6278     1.7184    -1.0245 H       
  61 H61           10.6790     3.1786    -1.3930 H       
  62 H62           11.3362     2.1410     1.4014 H       
  63 H63           12.1124     3.5280     0.6000 H       
  64 H64            9.9181     4.6741     0.4582 H       
  65 H65           10.3247     4.2792     2.1455 H       
  66 H66            9.8594     0.4247    -2.2017 H       
  67 H67            7.0022    -3.5216    -7.8090 H       
  68 H68            6.7877    -2.7477    -5.4850 H       
  69 H69            2.9863    -7.0931    -6.4540 H       
  70 H70            6.1958    -5.1160    -9.6049 H       
@<TRIPOS>BOND
   1    1    2 1
   2    1    6 2
   3    1   40 1
   4    2    3 2
   5    2   41 1
   6    3    4 1
   7    3   42 1
   8    4    5 1
   9    4    7 2
  10    5    6 1
  11    5   10 am
  12    6   43 1
  13    7    8 1
  14    7   11 1
  15    8    9 2
  16    8   44 1
  17    9   10 1
  18    9   13 1
  19   10   12 2
  20   11   16 1
  21   11   45 1
  22   11   46 1
  23   13   14 am
  24   13   15 2
  25   14   23 1
  26   14   47 1
  27   16   17 1
  28   16   21 1
  29   17   18 1
  30   17   48 1
  31   17   49 1
  32   18   19 1
  33   18   50 1
  34   18   51 1
  35   19   20 1
  36   19   22 1
  37   20   21 1
  38   20   52 1
  39   20   53 1
  40   21   54 1
  41   21   55 1
  42   22   30 ar
  43   22   34 ar
  44   23   24 1
  45   23   25 1
  46   23   56 1
  47   24   28 1
  48   24   57 1
  49   24   58 1
  50   25   26 1
  51   25   29 1
  52   25   59 1
  53   26   27 1
  54   26   60 1
  55   26   61 1
  56   27   28 1
  57   27   62 1
  58   27   63 1
  59   28   64 1
  60   28   65 1
  61   29   66 1
  62   30   31 ar
  63   31   32 ar
  64   31   35 ar
  65   32   33 ar
  66   32   38 ar
  67   33   34 ar
  68   33   67 1
  69   34   68 1
  70   35   36 ar
  71   35   69 1
  72   36   37 ar
  73   37   38 ar
  74   37   39 1
  75   38   70 1

#	End of record

