#	Name: ASD00071055
#	Creating user name:	WinNT
#	Creation time:	15. 06. 2019 18:30

#	Modifying user name:	WinNT
#	Modification time:	15. 06. 2019 18:30

#	Program:	/corina/corina34_cracker 3.40 0067  02.08.2006

@<TRIPOS>MOLECULE
ASD00071055
  61   64    0    0    0
SMALL
NO_CHARGES


@<TRIPOS>ATOM
   1 C1             0.1638     0.9736    -1.0372 C.2     
   2 C2            -0.0089    -0.0427     0.0309 C.2     
   3 C3             1.0057    -0.2979     0.8951 C.2     
   4 C4             0.7955    -1.2061     2.0221 C.2     
   5 O5             1.1784     1.6533    -1.0756 O.co2   
   6 O6            -0.7064     1.1270    -1.8810 O.co2   
   7 O7            -0.2653    -1.8074     2.1342 O.co2   
   8 O8             1.6802    -1.3652     2.8535 O.co2   
   9 N9            -1.1976    -0.7259     0.1447 N.pl3   
  10 N10           -2.3624     1.2869     0.3455 N.ar    
  11 C11           -2.3819    -0.0296     0.3495 C.ar    
  12 C12           -3.5699    -0.7455     0.5552 C.ar    
  13 C13           -4.7391    -0.0759     0.7574 C.ar    
  14 C14           -4.7114     1.3341     0.7523 C.ar    
  15 C15           -5.8793     2.0839     0.9537 C.ar    
  16 C16           -5.8122     3.4608     0.9414 C.ar    
  17 C17           -4.5917     4.1114     0.7303 C.ar    
  18 C18           -3.4469     3.4044     0.5328 C.ar    
  19 C19           -3.4786     1.9990     0.5389 C.ar    
  20 N20           -6.9727     4.2128     1.1411 N.3     
  21 C21           -6.6826     5.6525     1.0903 C.3     
  22 C22           -7.9879     6.4386     1.2334 C.3     
  23 N23           -8.6365     6.0794     2.5023 N.3     
  24 C24           -8.9266     4.6397     2.5530 C.3     
  25 C25           -7.6213     3.8536     2.4099 C.3     
  26 C26           -9.8566     6.8701     2.7122 C.3     
  27 C27           -3.5535    -2.2524     0.5522 C.3     
  28 C28           -4.9189    -2.7703     0.9245 C.ar    
  29 C29           -5.8272    -3.1030    -0.0652 C.ar    
  30 C30           -7.0818    -3.5784     0.2778 C.ar    
  31 C31           -7.4288    -3.7213     1.6084 C.ar    
  32 C32           -6.5248    -3.3907     2.5990 C.ar    
  33 C33           -5.2646    -2.9194     2.2591 C.ar    
  34 O34           -4.3725    -2.5988     3.2329 O.3     
  35 C35           -4.7548    -2.8797     4.5809 C.3     
  36 F36           -5.4901    -2.9636    -1.3660 F       
  37 H37            1.9685     0.1697     0.7507 H       
  38 H38           -1.2087    -1.6938     0.0819 H       
  39 H39           -5.6635    -0.6111     0.9171 H       
  40 H40           -6.8240     1.5866     1.1168 H       
  41 H41           -4.5583     5.1908     0.7236 H       
  42 H42           -2.5133     3.9226     0.3709 H       
  43 H43           -6.0080     5.9165     1.9048 H       
  44 H44           -6.2143     5.8957     0.1366 H       
  45 H45           -7.7719     7.5070     1.2252 H       
  46 H46           -8.6519     6.1952     0.4040 H       
  47 H47           -9.3949     4.3965     3.5068 H       
  48 H48           -9.6012     4.3758     1.7386 H       
  49 H49           -7.8374     2.7853     2.4182 H       
  50 H50           -6.9573     4.0971     3.2394 H       
  51 H51          -10.5557     6.6828     1.8971 H       
  52 H52          -10.3165     6.5843     3.6582 H       
  53 H53           -9.6030     7.9299     2.7371 H       
  54 H54           -3.2877    -2.6108    -0.4423 H       
  55 H55           -2.8200    -2.6092     1.2751 H       
  56 H56           -7.7901    -3.8374    -0.4952 H       
  57 H57           -8.4081    -4.0916     1.8735 H       
  58 H58           -6.7973    -3.5025     3.6381 H       
  59 H59           -3.9221    -2.6577     5.2484 H       
  60 H60           -5.6118    -2.2629     4.8515 H       
  61 H61           -5.0220    -3.9326     4.6709 H       
@<TRIPOS>BOND
   1    1    2 1
   2    1    5 ar
   3    1    6 ar
   4    2    3 2
   5    2    9 1
   6    3    4 1
   7    3   37 1
   8    4    7 ar
   9    4    8 ar
  10    9   11 1
  11    9   38 1
  12   10   11 ar
  13   10   19 ar
  14   11   12 ar
  15   12   13 ar
  16   12   27 1
  17   13   14 ar
  18   13   39 1
  19   14   15 ar
  20   14   19 ar
  21   15   16 ar
  22   15   40 1
  23   16   17 ar
  24   16   20 1
  25   17   18 ar
  26   17   41 1
  27   18   19 ar
  28   18   42 1
  29   20   21 1
  30   20   25 1
  31   21   22 1
  32   21   43 1
  33   21   44 1
  34   22   23 1
  35   22   45 1
  36   22   46 1
  37   23   24 1
  38   23   26 1
  39   24   25 1
  40   24   47 1
  41   24   48 1
  42   25   49 1
  43   25   50 1
  44   26   51 1
  45   26   52 1
  46   26   53 1
  47   27   28 1
  48   27   54 1
  49   27   55 1
  50   28   29 ar
  51   28   33 ar
  52   29   30 ar
  53   29   36 1
  54   30   31 ar
  55   30   56 1
  56   31   32 ar
  57   31   57 1
  58   32   33 ar
  59   32   58 1
  60   33   34 1
  61   34   35 1
  62   35   59 1
  63   35   60 1
  64   35   61 1

#	End of record

