#	Name: ASD04590093
#	Creating user name:	WinNT
#	Creation time:	15. 06. 2019 20:50

#	Modifying user name:	WinNT
#	Modification time:	15. 06. 2019 20:50

#	Program:	/corina/corina34_cracker 3.40 0067  02.08.2006

@<TRIPOS>MOLECULE
ASD04590093
  60   63    0    0    0
SMALL
NO_CHARGES


@<TRIPOS>ATOM
   1 C1            -0.0172     1.4148     0.0098 C.2     
   2 C2             0.0021    -0.0041     0.0020 C.2     
   3 C3             1.2886     1.7938    -0.0006 C.2     
   4 N4             2.0329     0.6583    -0.0138 N.pl3   
   5 N5             1.2682    -0.3737    -0.0121 N.2     
   6 N6            -1.1444     2.2494     0.0200 N.am    
   7 C7            -0.9914     3.5885     0.0265 C.2     
   8 C8            -1.1720    -0.8970     0.0092 C.2     
   9 N9            -1.0019    -2.2339     0.0003 N.am    
  10 C10           -2.1680    -3.1207     0.0074 C.3     
  11 C11           -1.7888    -4.4668    -0.6134 C.3     
  12 C12           -3.0067    -5.3929    -0.6060 C.3     
  13 C13           -3.4741    -5.6093     0.8347 C.3     
  14 C14           -3.8532    -4.2633     1.4555 C.3     
  15 C15           -2.6354    -3.3371     1.4481 C.3     
  16 O16            0.1236     4.0729     0.0236 O.2     
  17 C17           -2.1795     4.4682     0.0372 C.ar    
  18 C18           -2.0238     5.8545     0.0440 C.ar    
  19 C19           -3.4609     3.9145     0.0348 C.ar    
  20 C20           -4.5686     4.7379     0.0443 C.ar    
  21 C21           -4.4146     6.1112     0.0563 C.ar    
  22 C22           -3.1428     6.6729     0.0535 C.ar    
  23 O23           -2.2933    -0.4268     0.0231 O.2     
  24 N24           -2.9924     8.0618     0.0661 N.3     
  25 C25           -4.2997     8.7329     0.0812 C.3     
  26 C26           -2.1844     8.5144    -1.0749 C.3     
  27 C27           -1.9768    10.0279    -0.9811 C.3     
  28 N28           -3.2841    10.6990    -0.9660 N.3     
  29 C29           -4.0921    10.2464     0.1750 C.3     
  30 C30           -3.1259    12.1594    -0.9528 C.3     
  31 H31            1.6631     2.8069     0.0007 H       
  32 H32            3.0025     0.6304    -0.0235 H       
  33 H33           -2.0341     1.8629     0.0223 H       
  34 H34           -0.1074    -2.6090    -0.0108 H       
  35 H35           -2.9727    -2.6675    -0.5715 H       
  36 H36           -1.4558    -4.3126    -1.6397 H       
  37 H37           -0.9841    -4.9200    -0.0345 H       
  38 H38           -3.8114    -4.9397    -1.1848 H       
  39 H39           -2.7365    -6.3519    -1.0482 H       
  40 H40           -4.3417    -6.2691     0.8400 H       
  41 H41           -2.6694    -6.0626     1.4136 H       
  42 H42           -4.6580    -3.8100     0.8766 H       
  43 H43           -4.1862    -4.4174     2.4819 H       
  44 H44           -1.8307    -3.7904     2.0269 H       
  45 H45           -2.9055    -2.3782     1.8903 H       
  46 H46           -1.0350     6.2887     0.0421 H       
  47 H47           -3.5855     2.8417     0.0250 H       
  48 H48           -5.5591     4.3074     0.0420 H       
  49 H49           -5.2851     6.7504     0.0637 H       
  50 H50           -4.8406     8.4962    -0.8350 H       
  51 H51           -4.8743     8.3907     0.9419 H       
  52 H52           -1.2168     8.0128    -1.0570 H       
  53 H53           -2.7013     8.2751    -2.0042 H       
  54 H54           -1.4359    10.2647    -0.0649 H       
  55 H55           -1.4022    10.3701    -1.8418 H       
  56 H56           -5.0597    10.7480     0.1571 H       
  57 H57           -3.5752    10.4857     1.1043 H       
  58 H58           -2.5818    12.4741    -1.8433 H       
  59 H59           -4.1085    12.6312    -0.9418 H       
  60 H60           -2.5702    12.4566    -0.0634 H       
@<TRIPOS>BOND
   1    1    2 1
   2    1    3 2
   3    1    6 1
   4    2    8 1
   5    2    5 2
   6    3    4 1
   7    3   31 1
   8    4    5 1
   9    4   32 1
  10    6    7 am
  11    6   33 1
  12    7   16 2
  13    7   17 1
  14    8    9 am
  15    8   23 2
  16    9   10 1
  17    9   34 1
  18   10   11 1
  19   10   15 1
  20   10   35 1
  21   11   12 1
  22   11   36 1
  23   11   37 1
  24   12   13 1
  25   12   38 1
  26   12   39 1
  27   13   14 1
  28   13   40 1
  29   13   41 1
  30   14   15 1
  31   14   42 1
  32   14   43 1
  33   15   44 1
  34   15   45 1
  35   17   18 ar
  36   17   19 ar
  37   18   22 ar
  38   18   46 1
  39   19   20 ar
  40   19   47 1
  41   20   21 ar
  42   20   48 1
  43   21   22 ar
  44   21   49 1
  45   22   24 1
  46   24   25 1
  47   24   26 1
  48   25   29 1
  49   25   50 1
  50   25   51 1
  51   26   27 1
  52   26   52 1
  53   26   53 1
  54   27   28 1
  55   27   54 1
  56   27   55 1
  57   28   29 1
  58   28   30 1
  59   29   56 1
  60   29   57 1
  61   30   58 1
  62   30   59 1
  63   30   60 1

#	End of record

