#	Name: ASD04880423
#	Creating user name:	WinNT
#	Creation time:	15. 06. 2019 20:53

#	Modifying user name:	WinNT
#	Modification time:	15. 06. 2019 20:53

#	Program:	/corina/corina34_cracker 3.40 0067  02.08.2006

@<TRIPOS>MOLECULE
ASD04880423
  41   43    0    0    0
SMALL
NO_CHARGES


@<TRIPOS>ATOM
   1 C1            -0.0144     1.2118     0.0087 C.2     
   2 O2             0.0250     0.0106     0.1934 O.2     
   3 C3             1.2307     2.0070     0.0495 C.ar    
   4 C4             2.4682     1.3672     0.1388 C.ar    
   5 C5             3.6282     2.1168     0.1760 C.ar    
   6 C6             3.5635     3.5004     0.1254 C.ar    
   7 C7             2.3395     4.1383     0.0369 C.ar    
   8 C8             1.1744     3.4005    -0.0069 C.ar    
   9 F9             4.8272     1.5004     0.2624 F       
  10 N10           -1.1928     1.8172    -0.2387 N.am    
  11 N11           -1.3797     3.1872    -0.4110 N.2     
  12 C12           -2.6019     3.5274    -0.6375 C.2     
  13 C13           -3.4762     2.2939    -0.6452 C.3     
  14 C14           -2.4913     1.1387    -0.3772 C.3     
  15 C15           -3.0745     4.9063    -0.8550 C.ar    
  16 C16           -2.1685     5.9735    -0.8250 C.ar    
  17 C17           -2.6249     7.2695    -1.0318 C.ar    
  18 C18           -3.9714     7.5012    -1.2664 C.ar    
  19 C19           -4.8673     6.4466    -1.2957 C.ar    
  20 C20           -4.4281     5.1544    -1.0979 C.ar    
  21 O21           -1.7506     8.3109    -1.0036 O.3     
  22 C22           -2.2889     9.6161    -1.2242 C.3     
  23 O23           -0.8492     5.7429    -0.5943 O.3     
  24 C24           -0.0236     5.5017    -1.7355 C.3     
  25 H25            2.5188     0.2891     0.1790 H       
  26 H26            4.4725     4.0827     0.1554 H       
  27 H27            2.2959     5.2168    -0.0019 H       
  28 H28            0.2200     3.9007    -0.0801 H       
  29 H29           -4.2266     2.3522     0.1432 H       
  30 H30           -3.9514     2.1682    -1.6181 H       
  31 H31           -2.4736     0.4444    -1.2172 H       
  32 H32           -2.7533     0.6200     0.5450 H       
  33 H33           -4.3232     8.5096    -1.4268 H       
  34 H34           -5.9147     6.6362    -1.4784 H       
  35 H35           -5.1309     4.3348    -1.1262 H       
  36 H36           -2.7582     9.6542    -2.2073 H       
  37 H37           -3.0321     9.8368    -0.4581 H       
  38 H38           -1.4871    10.3528    -1.1756 H       
  39 H39           -0.3862     4.6217    -2.2668 H       
  40 H40           -0.0582     6.3663    -2.3983 H       
  41 H41            1.0035     5.3330    -1.4117 H       
@<TRIPOS>BOND
   1    1    2 2
   2    1    3 1
   3    1   10 am
   4    3    4 ar
   5    3    8 ar
   6    4    5 ar
   7    4   25 1
   8    5    6 ar
   9    5    9 1
  10    6    7 ar
  11    6   26 1
  12    7    8 ar
  13    7   27 1
  14    8   28 1
  15   10   11 1
  16   10   14 1
  17   11   12 2
  18   12   13 1
  19   12   15 1
  20   13   14 1
  21   13   29 1
  22   13   30 1
  23   14   31 1
  24   14   32 1
  25   15   16 ar
  26   15   20 ar
  27   16   17 ar
  28   16   23 1
  29   17   18 ar
  30   17   21 1
  31   18   19 ar
  32   18   33 1
  33   19   20 ar
  34   19   34 1
  35   20   35 1
  36   21   22 1
  37   22   36 1
  38   22   37 1
  39   22   38 1
  40   23   24 1
  41   24   39 1
  42   24   40 1
  43   24   41 1

#	End of record

