#	Name: ASD01912365
#	Creating user name:	WinNT
#	Creation time:	15. 06. 2019 19:59

#	Modifying user name:	WinNT
#	Modification time:	15. 06. 2019 19:59

#	Program:	/corina/corina34_cracker 3.40 0067  02.08.2006

@<TRIPOS>MOLECULE
ASD01912365
  41   43    0    0    0
SMALL
NO_CHARGES


@<TRIPOS>ATOM
   1 C1            -0.0863     1.5117    -0.7408 C.ar    
   2 C2            -0.0669     0.1184    -0.8532 C.ar    
   3 C3             1.1481    -0.5268    -0.9929 C.ar    
   4 C4             2.3069     0.2382    -1.0162 C.ar    
   5 C5             2.2163     1.6132    -0.9000 C.ar    
   6 N6             1.0476     2.2061    -0.7678 N.ar    
   7 C7             3.4726     2.4452    -0.9251 C.3     
   8 C8            -1.3362     2.1964    -0.6015 C.1     
   9 C9            -2.3609     2.7578    -0.4873 C.1     
  10 C10           -3.6109     3.4426    -0.3479 C.2     
  11 N11           -3.6046     7.1911     1.0674 N.am    
  12 C12           -4.8518     6.4192     1.1413 C.3     
  13 C13           -4.9449     5.5123    -0.0924 C.3     
  14 C14           -3.6347     4.7703    -0.2404 C.2     
  15 C15           -2.3523     5.5727    -0.2638 C.3     
  16 C16           -2.3242     6.4781     0.9741 C.3     
  17 O17           -0.8575    10.8532     0.8422 O.3     
  18 C18           -2.1110    10.5007     0.5409 C.2     
  19 C19           -2.3770     9.3036     1.1387 C.2     
  20 C20           -1.1465     8.9367     1.8547 C.2     
  21 C21           -0.2748     9.9302     1.6231 C.2     
  22 C22           -3.6352     8.5385     1.0796 C.2     
  23 O23           -4.7011     9.1229     1.0419 O.2     
  24 H24           -0.9875    -0.4459    -0.8309 H       
  25 H25            1.1948    -1.6021    -1.0817 H       
  26 H26            3.2708    -0.2369    -1.1238 H       
  27 H27            3.7013     2.7271    -1.9528 H       
  28 H28            3.3254     3.3438    -0.3259 H       
  29 H29            4.2999     1.8663    -0.5145 H       
  30 H30           -4.5343     2.8827    -0.3300 H       
  31 H31           -4.8508     5.8087     2.0443 H       
  32 H32           -5.7026     7.1003     1.1591 H       
  33 H33           -5.7583     4.7985     0.0374 H       
  34 H34           -5.1258     6.1181    -0.9804 H       
  35 H35           -1.4966     4.8977    -0.2443 H       
  36 H36           -2.3180     6.1835    -1.1660 H       
  37 H37           -1.5109     7.1980     0.8820 H       
  38 H38           -2.1780     5.8710     1.8676 H       
  39 H39           -2.7968    11.0673    -0.0713 H       
  40 H40           -0.9785     8.0490     2.4464 H       
  41 H41            0.7347     9.9789     2.0037 H       
@<TRIPOS>BOND
   1    1    2 ar
   2    1    6 ar
   3    1    8 1
   4    2    3 ar
   5    2   24 1
   6    3    4 ar
   7    3   25 1
   8    4    5 ar
   9    4   26 1
  10    5    6 ar
  11    5    7 1
  12    7   27 1
  13    7   28 1
  14    7   29 1
  15    8    9 3
  16    9   10 1
  17   10   14 2
  18   10   30 1
  19   11   12 1
  20   11   16 1
  21   11   22 am
  22   12   13 1
  23   12   31 1
  24   12   32 1
  25   13   14 1
  26   13   33 1
  27   13   34 1
  28   14   15 1
  29   15   16 1
  30   15   35 1
  31   15   36 1
  32   16   37 1
  33   16   38 1
  34   17   18 1
  35   17   21 1
  36   18   19 2
  37   18   39 1
  38   19   20 1
  39   19   22 1
  40   20   21 2
  41   20   40 1
  42   21   41 1
  43   22   23 2

#	End of record

