#	Name: ASD01910563
#	Creating user name:	WinNT
#	Creation time:	15. 06. 2019 19:56

#	Modifying user name:	WinNT
#	Modification time:	15. 06. 2019 19:56

#	Program:	/corina/corina34_cracker 3.40 0067  02.08.2006

@<TRIPOS>MOLECULE
ASD01910563
  41   44    0    0    0
SMALL
NO_CHARGES


@<TRIPOS>ATOM
   1 O1            -0.0212     3.1622     0.8113 O.3     
   2 C2            -0.3526     1.8691     0.6561 C.2     
   3 N3             0.7783     1.2127     0.4410 N.2     
   4 C4             1.7447     2.1418     0.4762 C.2     
   5 N5             1.1799     3.2912     0.7043 N.2     
   6 C6            -1.7032     1.2957     0.7139 C.2     
   7 C7            -2.8725     1.9892     0.9384 C.2     
   8 C8            -3.9177     1.0563     0.9115 C.2     
   9 C9            -3.3785    -0.1635     0.6760 C.2     
  10 N10           -2.0305    -0.0292     0.5479 N.pl3   
  11 C11            3.9772     2.3395     1.5419 C.3     
  12 C12            3.2196     1.8982     0.2857 C.3     
  13 C13            3.7194     2.7036    -0.9158 C.3     
  14 C14            5.2100     2.4314    -1.1301 C.3     
  15 C15            5.9902     2.8788     0.1100 C.3     
  16 N16            5.4198     2.2175     1.2915 N.am    
  17 C17            6.2049     1.5118     2.1295 C.2     
  18 C18            5.6408     0.9552     3.3794 C.ar    
  19 O19            7.3760     1.3327     1.8587 O.2     
  20 C20            5.8884    -0.3717     3.7528 C.ar    
  21 C21            5.3399    -0.8494     4.9319 C.ar    
  22 N22            4.5967    -0.0737     5.6941 N.ar    
  23 C23            4.3401     1.1806     5.3781 C.ar    
  24 C24            4.8500     1.7413     4.2244 C.ar    
  25 F25           -5.2296     1.3255     1.0895 F       
  26 F26            6.6493    -1.1729     2.9756 F       
  27 H27           -2.9659     3.0522     1.1045 H       
  28 H28           -3.9284    -1.0898     0.5984 H       
  29 H29           -1.4041    -0.7493     0.3749 H       
  30 H30            3.7325     3.3768     1.7707 H       
  31 H31            3.6966     1.7023     2.3806 H       
  32 H32            3.3938     0.8367     0.1100 H       
  33 H33            3.1647     2.4089    -1.8066 H       
  34 H34            3.5675     3.7667    -0.7289 H       
  35 H35            5.3655     1.3649    -1.2926 H       
  36 H36            5.5599     2.9872    -2.0001 H       
  37 H37            7.0378     2.5974     0.0039 H       
  38 H38            5.9096     3.9601     0.2220 H       
  39 H39            5.5237    -1.8711     5.2298 H       
  40 H40            3.7253     1.7793     6.0339 H       
  41 H41            4.6351     2.7695     3.9736 H       
@<TRIPOS>BOND
   1    1    2 1
   2    1    5 1
   3    2    3 2
   4    2    6 1
   5    3    4 1
   6    4    5 2
   7    4   12 1
   8    6    7 2
   9    6   10 1
  10    7    8 1
  11    7   27 1
  12    8    9 2
  13    8   25 1
  14    9   10 1
  15    9   28 1
  16   10   29 1
  17   11   12 1
  18   11   16 1
  19   11   30 1
  20   11   31 1
  21   12   13 1
  22   12   32 1
  23   13   14 1
  24   13   33 1
  25   13   34 1
  26   14   15 1
  27   14   35 1
  28   14   36 1
  29   15   16 1
  30   15   37 1
  31   15   38 1
  32   16   17 am
  33   17   18 1
  34   17   19 2
  35   18   20 ar
  36   18   24 ar
  37   20   21 ar
  38   20   26 1
  39   21   22 ar
  40   21   39 1
  41   22   23 ar
  42   23   24 ar
  43   23   40 1
  44   24   41 1

#	End of record

