#	Name: ASD01910029
#	Creating user name:	WinNT
#	Creation time:	15. 06. 2019 19:55

#	Modifying user name:	WinNT
#	Modification time:	15. 06. 2019 19:55

#	Program:	/corina/corina34_cracker 3.40 0067  02.08.2006

@<TRIPOS>MOLECULE
ASD01910029
  47   50    0    0    0
SMALL
NO_CHARGES


@<TRIPOS>ATOM
   1 C1            -0.0167     1.3769     0.0096 C.ar    
   2 C2             0.0021    -0.0041     0.0020 C.ar    
   3 C3             1.2081    -0.6806    -0.0127 C.ar    
   4 C4             2.3987     0.0227    -0.0198 C.ar    
   5 C5             2.3866     1.4038    -0.0127 C.ar    
   6 C6             1.1772     2.0861     0.0020 C.ar    
   7 N7             1.1616     3.4868     0.0088 N.pl3   
   8 C8             0.2442     4.2803    -0.6108 C.2     
   9 C9             0.5823     5.5730    -0.3627 C.2     
  10 C10            1.7430     5.5692     0.4336 C.2     
  11 N11            2.0832     4.3173     0.6588 N.2     
  12 N12           -0.8446     3.8450    -1.3640 N.am    
  13 C13           -1.6784     4.7432    -1.9247 C.2     
  14 C14           -2.8312     4.2823    -2.7223 C.ar    
  15 C15           -3.6969     5.2121    -3.3046 C.ar    
  16 C16           -4.7716     4.7779    -4.0480 C.ar    
  17 C17           -4.9958     3.4169    -4.2197 C.ar    
  18 C18           -4.1374     2.4889    -3.6419 C.ar    
  19 C19           -3.0569     2.9149    -2.9022 C.ar    
  20 C20            2.4562     6.7688     0.9378 C.ar    
  21 C21            3.5999     6.6248     1.7207 C.ar    
  22 C22            4.2592     7.7441     2.1870 C.ar    
  23 C23            3.7867     9.0070     1.8786 C.ar    
  24 C24            2.6516     9.1557     1.1023 C.ar    
  25 C25            1.9879     8.0435     0.6254 C.ar    
  26 O26           -1.4806     5.9335    -1.7734 O.2     
  27 O27           -6.0561     2.9930    -4.9532 O.3     
  28 C28           -6.2277     1.5809    -5.0894 C.3     
  29 H29           -0.9589     1.9047     0.0170 H       
  30 H30           -0.9261    -0.5562     0.0079 H       
  31 H31            1.2201    -1.7605    -0.0182 H       
  32 H32            3.3389    -0.5085    -0.0306 H       
  33 H33            3.3168     1.9525    -0.0179 H       
  34 H34            0.0547     6.4474    -0.7142 H       
  35 H35           -1.0023     2.8955    -1.4847 H       
  36 H36           -3.5236     6.2697    -3.1713 H       
  37 H37           -5.4413     5.4958    -4.4980 H       
  38 H38           -4.3153     1.4323    -3.7774 H       
  39 H39           -2.3904     2.1933    -2.4535 H       
  40 H40            3.9695     5.6393     1.9623 H       
  41 H41            5.1456     7.6336     2.7942 H       
  42 H42            4.3057     9.8801     2.2456 H       
  43 H43            2.2865    10.1441     0.8650 H       
  44 H44            1.1017     8.1608     0.0193 H       
  45 H45           -5.3485     1.1528    -5.5710 H       
  46 H46           -6.3559     1.1337    -4.1037 H       
  47 H47           -7.1095     1.3790    -5.6975 H       
@<TRIPOS>BOND
   1    1    2 ar
   2    1    6 ar
   3    1   29 1
   4    2    3 ar
   5    2   30 1
   6    3    4 ar
   7    3   31 1
   8    4    5 ar
   9    4   32 1
  10    5    6 ar
  11    5   33 1
  12    6    7 1
  13    7    8 1
  14    7   11 1
  15    8    9 2
  16    8   12 1
  17    9   10 1
  18    9   34 1
  19   10   11 2
  20   10   20 1
  21   12   13 am
  22   12   35 1
  23   13   14 1
  24   13   26 2
  25   14   15 ar
  26   14   19 ar
  27   15   16 ar
  28   15   36 1
  29   16   17 ar
  30   16   37 1
  31   17   18 ar
  32   17   27 1
  33   18   19 ar
  34   18   38 1
  35   19   39 1
  36   20   21 ar
  37   20   25 ar
  38   21   22 ar
  39   21   40 1
  40   22   23 ar
  41   22   41 1
  42   23   24 ar
  43   23   42 1
  44   24   25 ar
  45   24   43 1
  46   25   44 1
  47   27   28 1
  48   28   45 1
  49   28   46 1
  50   28   47 1

#	End of record

