#	Name: ASD02508242
#	Creating user name:	WinNT
#	Creation time:	15. 06. 2019 20:24

#	Modifying user name:	WinNT
#	Modification time:	15. 06. 2019 20:24

#	Program:	/corina/corina34_cracker 3.40 0067  02.08.2006

@<TRIPOS>MOLECULE
ASD02508242
  39   42    0    0    0
SMALL
NO_CHARGES


@<TRIPOS>ATOM
   1 C1             0.2519     0.6092    -0.3394 C.ar    
   2 C2             0.0032    -0.7480    -0.5421 C.ar    
   3 C3            -1.2908    -1.2333    -0.4347 C.ar    
   4 C4            -2.3262    -0.3722    -0.1280 C.ar    
   5 C5            -2.0785     0.9748     0.0725 C.ar    
   6 C6            -0.7915     1.4666    -0.0270 C.ar    
   7 S7            -3.9703    -0.9911     0.0081 S.o2    
   8 N8            -4.2470    -1.2990     1.6115 N.am    
   9 C9            -3.4676    -2.2405     2.2862 C.ar    
  10 N10            1.6235     0.7931    -0.5117 N.am    
  11 C11            2.1598    -0.4083    -0.8040 C.2     
  12 O12            1.1911    -1.3373    -0.8235 O.3     
  13 O13           -4.8331     0.0799    -0.3496 O.2     
  14 O14           -3.9807    -2.2505    -0.6500 O.2     
  15 C15            2.3489     2.0607    -0.3960 C.3     
  16 O16            3.3384    -0.6182    -1.0170 O.2     
  17 C17           -2.9519    -1.9356     3.5270 C.ar    
  18 C18           -3.2226    -3.4869     1.6977 C.ar    
  19 C19           -2.4677    -4.4226     2.3321 C.ar    
  20 C20           -1.9217    -4.1428     3.5967 C.ar    
  21 C21           -2.1689    -2.8851     4.2026 C.ar    
  22 C22           -1.6208    -2.6094     5.4677 C.ar    
  23 C23           -1.1374    -5.0911     4.2757 C.ar    
  24 C24           -0.6233    -4.7890     5.4991 C.ar    
  25 C25           -0.8623    -3.5507     6.0926 C.ar    
  26 H26           -1.4891    -2.2834    -0.5910 H       
  27 H27           -2.8931     1.6424     0.3113 H       
  28 H28           -0.6000     2.5177     0.1302 H       
  29 H29           -4.9507    -0.8252     2.0819 H       
  30 H30            2.6783     2.1981     0.6339 H       
  31 H31            3.2164     2.0443    -1.0558 H       
  32 H32            1.6918     2.8826    -0.6801 H       
  33 H33           -3.1483    -0.9733     3.9763 H       
  34 H34           -3.6395    -3.7083     0.7263 H       
  35 H35           -2.2880    -5.3797     1.8652 H       
  36 H36           -1.8006    -1.6554     5.9410 H       
  37 H37           -0.9439    -6.0551     3.8289 H       
  38 H38           -0.0213    -5.5201     6.0183 H       
  39 H39           -0.4423    -3.3364     7.0642 H       
@<TRIPOS>BOND
   1    1    2 ar
   2    1   10 1
   3    1    6 ar
   4    2    3 ar
   5    2   12 1
   6    3    4 ar
   7    3   26 1
   8    4    5 ar
   9    4    7 1
  10    5    6 ar
  11    5   27 1
  12    6   28 1
  13    7    8 am
  14    7   13 2
  15    7   14 2
  16    8    9 1
  17    8   29 1
  18    9   17 ar
  19    9   18 ar
  20   10   11 am
  21   10   15 1
  22   11   12 1
  23   11   16 2
  24   15   30 1
  25   15   31 1
  26   15   32 1
  27   17   21 ar
  28   17   33 1
  29   18   19 ar
  30   18   34 1
  31   19   20 ar
  32   19   35 1
  33   20   21 ar
  34   20   23 ar
  35   21   22 ar
  36   22   25 ar
  37   22   36 1
  38   23   24 ar
  39   23   37 1
  40   24   25 ar
  41   24   38 1
  42   25   39 1

#	End of record

