#	Name: ASD07930238
#	Creating user name:	WinNT
#	Creation time:	15. 06. 2019 21:12

#	Modifying user name:	WinNT
#	Modification time:	15. 06. 2019 21:12

#	Program:	/corina/corina34_cracker 3.40 0067  02.08.2006

@<TRIPOS>MOLECULE
ASD07930238
  56   60    0    0    0
SMALL
NO_CHARGES


@<TRIPOS>ATOM
   1 C1             0.0776     0.5080    -0.8038 C.2     
   2 C2             0.2753    -0.8415    -0.9093 C.2     
   3 C3             1.6416    -1.3638    -0.8289 C.2     
   4 N4             2.6637    -0.5086    -0.6523 N.am    
   5 C5             2.4391     0.8457    -0.5509 C.2     
   6 C6             1.1787     1.3540    -0.6229 C.2     
   7 C7             4.0455    -0.9993    -0.5612 C.3     
   8 C8             4.9476    -0.0282    -1.3374 C.3     
   9 N9             4.8263     1.3058    -0.7325 N.am    
  10 C10            3.5993     1.7445    -0.3626 C.2     
  11 C11            6.0103     2.1454    -0.5334 C.3     
  12 O12            3.4544     2.8535     0.1141 O.2     
  13 O13            1.8496    -2.5617    -0.9207 O.2     
  14 N14           -0.8074    -1.7069    -1.0901 N.pl3   
  15 C15           -1.0521    -2.4775    -2.1825 C.2     
  16 N16           -2.1540    -3.1470    -1.9801 N.2     
  17 C17           -2.6478    -2.8360    -0.7722 C.2     
  18 C18           -1.8203    -1.9434    -0.1964 C.2     
  19 C19           -3.9079    -3.3940    -0.1624 C.3     
  20 C20            6.3303     2.8916    -1.8302 C.3     
  21 O21            5.2899     3.8308    -2.1085 O.3     
  22 C22            5.4055     4.5593    -3.2497 C.ar    
  23 C23            4.4709     5.5573    -3.5427 C.ar    
  24 C24            6.4525     4.3197    -4.1240 C.ar    
  25 C25            6.5691     5.0616    -5.2850 C.ar    
  26 C26            5.6432     6.0459    -5.5802 C.ar    
  27 C27            4.5975     6.2987    -4.7147 C.ar    
  28 C28            3.3493     5.8248    -2.6094 C.2     
  29 C29            2.3652     6.7061    -2.8788 C.2     
  30 S30            1.2527     6.7089    -1.5127 S.3     
  31 C31            2.2072     5.5359    -0.7163 C.2     
  32 N32            3.2234     5.2145    -1.4400 N.2     
  33 C33            1.9002     4.9551     0.6399 C.3     
  34 H34           -0.9197     0.9182    -0.8641 H       
  35 H35            1.0263     2.4200    -0.5397 H       
  36 H36            4.3555    -1.0349     0.4832 H       
  37 H37            4.1125    -1.9948    -1.0000 H       
  38 H38            5.9829    -0.3641    -1.2790 H       
  39 H39            4.6309     0.0121    -2.3796 H       
  40 H40            5.8157     2.8653     0.2615 H       
  41 H41            6.8578     1.5184    -0.2563 H       
  42 H42           -0.4381    -2.5272    -3.0695 H       
  43 H43           -1.9359    -1.4944     0.7790 H       
  44 H44           -3.6697    -4.2945     0.4038 H       
  45 H45           -4.3487    -2.6521     0.5035 H       
  46 H46           -4.6167    -3.6390    -0.9533 H       
  47 H47            7.2773     3.4201    -1.7210 H       
  48 H48            6.4049     2.1782    -2.6510 H       
  49 H49            7.1788     3.5529    -3.8985 H       
  50 H50            7.3869     4.8718    -5.9644 H       
  51 H51            5.7410     6.6215    -6.4887 H       
  52 H52            3.8762     7.0678    -4.9484 H       
  53 H53            2.2748     7.3044    -3.7735 H       
  54 H54            1.0391     5.4680     1.0684 H       
  55 H55            1.6769     3.8930     0.5382 H       
  56 H56            2.7624     5.0841     1.2941 H       
@<TRIPOS>BOND
   1    1    2 2
   2    1    6 1
   3    1   34 1
   4    2    3 1
   5    2   14 1
   6    3    4 am
   7    3   13 2
   8    4    5 1
   9    4    7 1
  10    5    6 2
  11    5   10 1
  12    6   35 1
  13    7    8 1
  14    7   36 1
  15    7   37 1
  16    8    9 1
  17    8   38 1
  18    8   39 1
  19    9   10 am
  20    9   11 1
  21   10   12 2
  22   11   20 1
  23   11   40 1
  24   11   41 1
  25   14   15 1
  26   14   18 1
  27   15   16 2
  28   15   42 1
  29   16   17 1
  30   17   18 2
  31   17   19 1
  32   18   43 1
  33   19   44 1
  34   19   45 1
  35   19   46 1
  36   20   21 1
  37   20   47 1
  38   20   48 1
  39   21   22 1
  40   22   23 ar
  41   22   24 ar
  42   23   28 1
  43   23   27 ar
  44   24   25 ar
  45   24   49 1
  46   25   26 ar
  47   25   50 1
  48   26   27 ar
  49   26   51 1
  50   27   52 1
  51   28   29 2
  52   28   32 1
  53   29   30 1
  54   29   53 1
  55   30   31 1
  56   31   32 2
  57   31   33 1
  58   33   54 1
  59   33   55 1
  60   33   56 1

#	End of record

