#	Name: ASD03092269
#	Creating user name:	WinNT
#	Creation time:	15. 06. 2019 20:32

#	Modifying user name:	WinNT
#	Modification time:	15. 06. 2019 20:32

#	Program:	/corina/corina34_cracker 3.40 0067  02.08.2006

@<TRIPOS>MOLECULE
ASD03092269
  41   43    0    0    0
SMALL
NO_CHARGES


@<TRIPOS>ATOM
   1 F1             0.0021    -0.0041     0.0020 F       
   2 C2            -0.0169     1.3948     0.0097 C.3     
   3 F3             1.2956     1.8790    -0.0002 F       
   4 F4            -0.6935     1.8582    -1.1237 F       
   5 C5            -0.7330     1.8882     1.2685 C.3     
   6 O6            -0.0419     1.4148     2.4262 O.3     
   7 C7            -0.5494     1.7649     3.6305 C.ar    
   8 N8            -1.6438     2.5100     3.6747 N.ar    
   9 C9            -2.1711     2.8728     4.8293 C.ar    
  10 C10           -1.5557     2.4578     6.0169 C.ar    
  11 C11           -0.4006     1.6712     5.9248 C.ar    
  12 N12            0.0597     1.3478     4.7304 N.ar    
  13 C13           -2.1095     2.8398     7.3310 C.2     
  14 O14           -3.1129     3.5235     7.3923 O.2     
  15 N15           -1.5027     2.4305     8.4627 N.am    
  16 C16           -2.0523     2.8095     9.7668 C.3     
  17 C17           -1.1945     2.2290    10.8614 C.ar    
  18 C18           -1.4777     0.9656    11.3610 C.ar    
  19 C19           -0.7062     0.4165    12.3620 C.ar    
  20 C20            0.3679     1.1335    12.8783 C.ar    
  21 N21            1.3029     0.8693    13.8539 N.pl3   
  22 H22            1.3479     0.0531    14.3762 H       
  23 C23            2.1596     1.9292    13.9765 C.2     
  24 C24            1.8206     2.8947    13.1077 C.2     
  25 C25            0.6511     2.4138    12.3680 C.ar    
  26 C26           -0.1405     2.9487    11.3502 C.ar    
  27 C27            3.3124     2.0022    14.9443 C.3     
  28 F28            3.3684     0.8216    15.6928 F       
  29 F29            4.5076     2.1616    14.2348 F       
  30 F30            3.1315     3.0912    15.8038 F       
  31 H31           -0.7478     2.9781     1.2745 H       
  32 H32           -1.7556     1.5109     1.2763 H       
  33 H33           -3.0633     3.4807     4.8575 H       
  34 H34            0.1037     1.3309     6.8172 H       
  35 H35           -0.7022     1.8850     8.4138 H       
  36 H36           -2.0660     3.8960     9.8534 H       
  37 H37           -3.0681     2.4249     9.8587 H       
  38 H38           -2.3113     0.4072    10.9614 H       
  39 H39           -0.9351    -0.5671    12.7447 H       
  40 H40            2.3160     3.8456    12.9785 H       
  41 H41            0.0765     3.9295    10.9535 H       
@<TRIPOS>BOND
   1    1    2 1
   2    2    3 1
   3    2    4 1
   4    2    5 1
   5    5    6 1
   6    5   31 1
   7    5   32 1
   8    6    7 1
   9    7   12 ar
  10    7    8 ar
  11    8    9 ar
  12    9   10 ar
  13    9   33 1
  14   10   11 ar
  15   10   13 1
  16   11   12 ar
  17   11   34 1
  18   13   14 2
  19   13   15 am
  20   15   16 1
  21   15   35 1
  22   16   17 1
  23   16   36 1
  24   16   37 1
  25   17   26 ar
  26   17   18 ar
  27   18   19 ar
  28   18   38 1
  29   19   20 ar
  30   19   39 1
  31   20   25 ar
  32   20   21 1
  33   21   22 1
  34   21   23 1
  35   23   24 2
  36   23   27 1
  37   24   25 1
  38   24   40 1
  39   25   26 ar
  40   26   41 1
  41   27   28 1
  42   27   29 1
  43   27   30 1

#	End of record

