#	Name: ASD01410343
#	Creating user name:	WinNT
#	Creation time:	15. 06. 2019 19:17

#	Modifying user name:	WinNT
#	Modification time:	15. 06. 2019 19:17

#	Program:	/corina/corina34_cracker 3.40 0067  02.08.2006

@<TRIPOS>MOLECULE
ASD01410343
  55   58    0    0    0
SMALL
NO_CHARGES


@<TRIPOS>ATOM
   1 S1            -0.0218     1.7546     0.0117 S.3     
   2 C2             0.0021    -0.0041     0.0020 C.2     
   3 C3             1.2928    -0.4373    -0.0126 C.2     
   4 C4             2.2323     0.5705    -0.0162 C.2     
   5 C5             1.7355     1.8115    -0.0048 C.2     
   6 N6            -1.3695    -1.9779    -0.7883 N.pl3   
   7 C7            -1.1863    -0.8711     0.0087 C.2     
   8 C8            -2.2782    -0.7054     0.8046 C.2     
   9 C9            -3.1923    -1.7422     0.5069 C.ar    
  10 C10           -2.6032    -2.5301    -0.5040 C.ar    
  11 C11           -4.4626    -2.0741     1.0026 C.ar    
  12 C12           -5.1226    -3.1584     0.5130 C.ar    
  13 C13           -4.5417    -3.9515    -0.4886 C.ar    
  14 C14           -3.2829    -3.6309    -0.9978 C.ar    
  15 C15           -3.7196     1.2034     1.4586 C.3     
  16 C16           -3.9215     2.3137     2.4918 C.3     
  17 C17           -4.1064     1.6929     3.8780 C.3     
  18 C18           -2.8639     0.8776     4.2416 C.3     
  19 C19           -2.6620    -0.2327     3.2084 C.3     
  20 C20           -2.4770     0.3881     1.8223 C.3     
  21 C21           -0.4161    -2.4833    -1.7791 C.3     
  22 C22            0.5124    -3.4729    -1.1236 C.2     
  23 O23            0.3899    -3.7305     0.0551 O.2     
  24 C24            2.3817    -5.0335    -1.2101 C.3     
  25 N25            1.4791    -4.0715    -1.8473 N.am    
  26 C26            1.6271    -3.7603    -3.2712 C.3     
  27 C27           -5.2671    -5.1231    -1.0095 C.2     
  28 O28           -4.7664    -5.8116    -1.8768 O.2     
  29 O29           -6.4862    -5.4315    -0.5242 O.3     
  30 H30            1.5582    -1.4842    -0.0205 H       
  31 H31            3.2939     0.3721    -0.0271 H       
  32 H32            2.3263     2.7156    -0.0059 H       
  33 H33           -4.9162    -1.4686     1.7733 H       
  34 H34           -6.0997    -3.4106     0.8978 H       
  35 H35           -2.8376    -4.2425    -1.7685 H       
  36 H36           -4.5928     0.5511     1.4510 H       
  37 H37           -3.5878     1.6457     0.4711 H       
  38 H38           -3.0483     2.9660     2.4995 H       
  39 H39           -4.8067     2.8945     2.2328 H       
  40 H40           -4.2503     2.4838     4.6140 H       
  41 H41           -4.9796     1.0405     3.8703 H       
  42 H42           -1.9907     1.5299     4.2492 H       
  43 H43           -2.9957     0.4353     5.2291 H       
  44 H44           -1.7768    -0.8135     3.4674 H       
  45 H45           -3.5352    -0.8850     3.2007 H       
  46 H46           -1.6038     1.0405     1.8299 H       
  47 H47           -0.9581    -2.9741    -2.5875 H       
  48 H48            0.1637    -1.6529    -2.1821 H       
  49 H49            3.2532    -4.5093    -0.8180 H       
  50 H50            1.8613    -5.5344    -0.3938 H       
  51 H51            2.7022    -5.7725    -1.9444 H       
  52 H52            2.4549    -4.3362    -3.6849 H       
  53 H53            0.7074    -4.0171    -3.7968 H       
  54 H54            1.8292    -2.6959    -3.3914 H       
  55 H55           -6.9232    -6.2093    -0.8971 H       
@<TRIPOS>BOND
   1    1    2 1
   2    1    5 1
   3    2    3 2
   4    2    7 1
   5    3    4 1
   6    3   30 1
   7    4    5 2
   8    4   31 1
   9    5   32 1
  10    6    7 1
  11    6   21 1
  12    6   10 1
  13    7    8 2
  14    8    9 1
  15    8   20 1
  16    9   10 ar
  17    9   11 ar
  18   10   14 ar
  19   11   12 ar
  20   11   33 1
  21   12   13 ar
  22   12   34 1
  23   13   14 ar
  24   13   27 1
  25   14   35 1
  26   15   16 1
  27   15   20 1
  28   15   36 1
  29   15   37 1
  30   16   17 1
  31   16   38 1
  32   16   39 1
  33   17   18 1
  34   17   40 1
  35   17   41 1
  36   18   19 1
  37   18   42 1
  38   18   43 1
  39   19   20 1
  40   19   44 1
  41   19   45 1
  42   20   46 1
  43   21   22 1
  44   21   47 1
  45   21   48 1
  46   22   23 2
  47   22   25 am
  48   24   25 1
  49   24   49 1
  50   24   50 1
  51   24   51 1
  52   25   26 1
  53   26   52 1
  54   26   53 1
  55   26   54 1
  56   27   28 2
  57   27   29 1
  58   29   55 1

#	End of record

