#	Name: ASD01910486
#	Creating user name:	WinNT
#	Creation time:	15. 06. 2019 19:55

#	Modifying user name:	WinNT
#	Modification time:	15. 06. 2019 19:55

#	Program:	/corina/corina34_cracker 3.40 0067  02.08.2006

@<TRIPOS>MOLECULE
ASD01910486
  43   46    0    0    0
SMALL
NO_CHARGES


@<TRIPOS>ATOM
   1 C1            -0.8913     1.6554    -0.1984 C.ar    
   2 C2            -0.7205     0.1816    -0.1906 C.2     
   3 N3            -1.7071    -0.7405    -0.1200 N.2     
   4 C4            -1.1042    -1.9030    -0.1419 C.2     
   5 O5             0.2085    -1.6643    -0.2238 O.3     
   6 N6             0.4121    -0.4691    -0.2564 N.2     
   7 C7            -1.7661    -3.2557    -0.0855 C.3     
   8 C8            -1.4188    -4.0474    -1.3484 C.3     
   9 C9            -2.1171    -5.4086    -1.3073 C.3     
  10 C10           -1.6204    -6.1963    -0.0910 C.3     
  11 N11           -1.8186    -5.3799     1.1143 N.am    
  12 C12           -1.2653    -4.0191     1.1447 C.3     
  13 C13           -2.4950    -5.8699     2.1721 C.2     
  14 C14           -2.5751    -5.0892     3.4237 C.ar    
  15 O15           -3.0392    -6.9543     2.0962 O.2     
  16 C16            0.2247     2.4896    -0.2758 C.ar    
  17 C17            0.0579     3.8625    -0.2826 C.ar    
  18 C18           -1.2107     4.4070    -0.2124 C.ar    
  19 C19           -2.3200     3.5835    -0.1352 C.ar    
  20 C20           -2.1670     2.2122    -0.1344 C.ar    
  21 C21           -3.7692    -5.0224     4.1420 C.ar    
  22 N22           -3.8421    -4.3269     5.2579 N.ar    
  23 C23           -2.8010    -3.6709     5.7398 C.ar    
  24 C24           -1.5786    -3.6887     5.0837 C.ar    
  25 C25           -1.4512    -4.4086     3.9114 C.ar    
  26 F26           -2.9291    -2.9718     6.8887 F       
  27 F27            1.4646     1.9575    -0.3434 F       
  28 H28           -2.8468    -3.1295    -0.0209 H       
  29 H29           -1.7522    -3.4946    -2.2267 H       
  30 H30           -0.3400    -4.1941    -1.3998 H       
  31 H31           -3.1946    -5.2626    -1.2309 H       
  32 H32           -1.8882    -5.9625    -2.2178 H       
  33 H33           -2.1854    -7.1241    -0.0009 H       
  34 H34           -0.5605    -6.4216    -0.2095 H       
  35 H35           -0.1765    -4.0668     1.1269 H       
  36 H36           -1.5961    -3.5103     2.0501 H       
  37 H37            0.9201     4.5102    -0.3424 H       
  38 H38           -1.3366     5.4797    -0.2176 H       
  39 H39           -3.3084     4.0152    -0.0803 H       
  40 H40           -3.0343     1.5714    -0.0743 H       
  41 H41           -4.6417    -5.5455     3.7796 H       
  42 H42           -0.7347    -3.1487     5.4870 H       
  43 H43           -0.5113    -4.4400     3.3804 H       
@<TRIPOS>BOND
   1    1    2 1
   2    1   16 ar
   3    1   20 ar
   4    2    3 1
   5    2    6 2
   6    3    4 2
   7    4    5 1
   8    4    7 1
   9    5    6 1
  10    7    8 1
  11    7   12 1
  12    7   28 1
  13    8    9 1
  14    8   29 1
  15    8   30 1
  16    9   10 1
  17    9   31 1
  18    9   32 1
  19   10   11 1
  20   10   33 1
  21   10   34 1
  22   11   12 1
  23   11   13 am
  24   12   35 1
  25   12   36 1
  26   13   14 1
  27   13   15 2
  28   14   21 ar
  29   14   25 ar
  30   16   17 ar
  31   16   27 1
  32   17   18 ar
  33   17   37 1
  34   18   19 ar
  35   18   38 1
  36   19   20 ar
  37   19   39 1
  38   20   40 1
  39   21   22 ar
  40   21   41 1
  41   22   23 ar
  42   23   24 ar
  43   23   26 1
  44   24   25 ar
  45   24   42 1
  46   25   43 1

#	End of record

