#	Name: ASD01120159
#	Creating user name:	WinNT
#	Creation time:	15. 06. 2019 18:59

#	Modifying user name:	WinNT
#	Modification time:	15. 06. 2019 18:59

#	Program:	/corina/corina34_cracker 3.40 0067  02.08.2006

@<TRIPOS>MOLECULE
ASD01120159
  52   55    0    0    0
SMALL
NO_CHARGES


@<TRIPOS>ATOM
   1 C1            -0.0325     1.3701    -0.0218 C.ar    
   2 C2            -0.0196    -0.0280     0.0790 C.ar    
   3 C3            -1.1952    -0.7350     0.2028 C.ar    
   4 C4            -2.4151    -0.0468     0.2279 C.ar    
   5 C5            -2.4198     1.3672     0.1254 C.ar    
   6 C6            -1.2107     2.0615     0.0057 C.ar    
   7 N7            -3.5857    -0.6897     0.3462 N.ar    
   8 C8            -4.7198    -0.0148     0.3665 C.ar    
   9 N9            -4.7690     1.3127     0.2727 N.ar    
  10 C10           -3.6670     2.0379     0.1530 C.ar    
  11 C11           -6.0198     3.4395    -0.7162 C.ar    
  12 C12           -4.9741     4.0495    -0.0354 C.ar    
  13 C13           -5.1647     5.2926     0.5546 C.ar    
  14 C14           -6.3933     5.9180     0.4625 C.ar    
  15 C15           -7.4329     5.3069    -0.2167 C.ar    
  16 C16           -7.2457     4.0698    -0.8047 C.ar    
  17 N17           -3.7326     3.4138     0.0562 N.pl3   
  18 Br18          -6.6547     7.6099     1.2656 Br      
  19 O19            1.1649    -0.6927     0.0540 O.3     
  20 O20            1.1411     2.0462    -0.1428 O.3     
  21 C21            1.1120    -2.1167     0.1608 C.3     
  22 C22            1.0626     3.4696    -0.2414 C.3     
  23 C23            2.4722     4.0505    -0.3699 C.3     
  24 C24            2.5319    -2.6847     0.1142 C.3     
  25 C25           -5.9915    -0.7657     0.4988 C.ar    
  26 C26           -5.9759    -2.1560     0.5989 C.ar    
  27 C27           -7.1626    -2.8496     0.7223 C.ar    
  28 C28           -8.3660    -2.1678     0.7464 C.ar    
  29 C29           -8.3876    -0.7882     0.6471 C.ar    
  30 C30           -7.2068    -0.0836     0.5295 C.ar    
  31 H31           -1.1766    -1.8121     0.2796 H       
  32 H32           -1.2093     3.1387    -0.0723 H       
  33 H33           -5.8733     2.4750    -1.1797 H       
  34 H34           -4.3537     5.7694     1.0849 H       
  35 H35           -8.3926     5.7974    -0.2871 H       
  36 H36           -8.0589     3.5958    -1.3343 H       
  37 H37           -2.9172     3.9391     0.0517 H       
  38 H38            0.6410    -2.3931     1.1041 H       
  39 H39            0.5312    -2.5219    -0.6678 H       
  40 H40            0.4763     3.7412    -1.1193 H       
  41 H41            0.5847     3.8700     0.6527 H       
  42 H42            3.0584     3.7789     0.5080 H       
  43 H43            2.9500     3.6501    -1.2640 H       
  44 H44            2.4123     5.1362    -0.4452 H       
  45 H45            2.4917    -3.7709     0.1956 H       
  46 H46            3.0030    -2.4083    -0.8291 H       
  47 H47            3.1127    -2.2795     0.9428 H       
  48 H48           -5.0370    -2.6894     0.5794 H       
  49 H49           -7.1518    -3.9267     0.7999 H       
  50 H50           -9.2923    -2.7147     0.8428 H       
  51 H51           -9.3301    -0.2611     0.6661 H       
  52 H52           -7.2248     0.9934     0.4523 H       
@<TRIPOS>BOND
   1    1    2 ar
   2    1   20 1
   3    1    6 ar
   4    2    3 ar
   5    2   19 1
   6    3    4 ar
   7    3   31 1
   8    4    5 ar
   9    4    7 ar
  10    5    6 ar
  11    5   10 ar
  12    6   32 1
  13    7    8 ar
  14    8    9 ar
  15    8   25 1
  16    9   10 ar
  17   10   17 1
  18   11   12 ar
  19   11   16 ar
  20   11   33 1
  21   12   13 ar
  22   12   17 1
  23   13   14 ar
  24   13   34 1
  25   14   15 ar
  26   14   18 1
  27   15   16 ar
  28   15   35 1
  29   16   36 1
  30   17   37 1
  31   19   21 1
  32   20   22 1
  33   21   24 1
  34   21   38 1
  35   21   39 1
  36   22   23 1
  37   22   40 1
  38   22   41 1
  39   23   42 1
  40   23   43 1
  41   23   44 1
  42   24   45 1
  43   24   46 1
  44   24   47 1
  45   25   26 ar
  46   25   30 ar
  47   26   27 ar
  48   26   48 1
  49   27   28 ar
  50   27   49 1
  51   28   29 ar
  52   28   50 1
  53   29   30 ar
  54   29   51 1
  55   30   52 1

#	End of record

