#	Name: ASD06340075
#	Creating user name:	WinNT
#	Creation time:	15. 06. 2019 21:06

#	Modifying user name:	WinNT
#	Modification time:	15. 06. 2019 21:06

#	Program:	/corina/corina34_cracker 3.40 0067  02.08.2006

@<TRIPOS>MOLECULE
ASD06340075
  36   38    0    0    0
SMALL
NO_CHARGES


@<TRIPOS>ATOM
   1 S1            -0.0210     1.6939     0.0114 S.3     
   2 N2             0.0021    -0.0041     0.0020 N.am    
   3 C3             1.2962    -0.3594    -0.0122 C.2     
   4 N4             2.1856     0.6226    -0.0155 N.am    
   5 C5             1.6912     1.8721    -0.0040 C.2     
   6 O6             1.6365    -1.5276    -0.0214 O.2     
   7 O7             2.3224     2.9128    -0.0052 O.2     
   8 C8             3.6269     0.3610    -0.0302 C.3     
   9 C9             4.1080     0.2785    -1.4559 C.ar    
  10 C10            4.5423     1.4196    -2.1048 C.ar    
  11 C11            4.9838     1.3467    -3.4118 C.ar    
  12 C12            4.9911     0.1272    -4.0733 C.ar    
  13 C13            4.5548    -1.0163    -3.4199 C.ar    
  14 C14            4.1196    -0.9390    -2.1111 C.ar    
  15 O15            5.4245     0.0529    -5.3591 O.3     
  16 C16            5.4042    -1.2353    -5.9772 C.3     
  17 C17           -1.1039    -0.8593     0.0084 C.ar    
  18 C18           -2.3259    -0.4205    -0.4858 C.ar    
  19 C19           -3.4166    -1.2674    -0.4782 C.ar    
  20 C20           -3.2933    -2.5521     0.0215 C.ar    
  21 C21           -2.0773    -2.9920     0.5144 C.ar    
  22 C22           -0.9816    -2.1515     0.5037 C.ar    
  23 Cl23          -4.6669    -3.6137     0.0305 Cl      
  24 H24            4.1482     1.1691     0.4830 H       
  25 H25            3.8302    -0.5822     0.4770 H       
  26 H26            4.5361     2.3687    -1.5896 H       
  27 H27            5.3226     2.2383    -3.9184 H       
  28 H28            4.5595    -1.9668    -3.9327 H       
  29 H29            3.7843    -1.8297    -1.6005 H       
  30 H30            6.0398    -1.9186    -5.4140 H       
  31 H31            4.3829    -1.6162    -5.9899 H       
  32 H32            5.7743    -1.1539    -6.9992 H       
  33 H33           -2.4228     0.5822    -0.8752 H       
  34 H34           -4.3668    -0.9268    -0.8622 H       
  35 H35           -1.9840    -3.9950     0.9038 H       
  36 H36           -0.0317    -2.4968     0.8844 H       
@<TRIPOS>BOND
   1    1    2 1
   2    1    5 1
   3    2    3 am
   4    2   17 1
   5    3    4 am
   6    3    6 2
   7    4    5 am
   8    4    8 1
   9    5    7 2
  10    8    9 1
  11    8   24 1
  12    8   25 1
  13    9   10 ar
  14    9   14 ar
  15   10   11 ar
  16   10   26 1
  17   11   12 ar
  18   11   27 1
  19   12   13 ar
  20   12   15 1
  21   13   14 ar
  22   13   28 1
  23   14   29 1
  24   15   16 1
  25   16   30 1
  26   16   31 1
  27   16   32 1
  28   17   18 ar
  29   17   22 ar
  30   18   19 ar
  31   18   33 1
  32   19   20 ar
  33   19   34 1
  34   20   21 ar
  35   20   23 1
  36   21   22 ar
  37   21   35 1
  38   22   36 1

#	End of record

