#	Name: ASD08070135
#	Creating user name:	WinNT
#	Creation time:	15. 06. 2019 21:14

#	Modifying user name:	WinNT
#	Modification time:	15. 06. 2019 21:14

#	Program:	/corina/corina34_cracker 3.40 0067  02.08.2006

@<TRIPOS>MOLECULE
ASD08070135
  40   39    0    0    0
SMALL
NO_CHARGES


@<TRIPOS>ATOM
   1 C1            -0.0333     1.3575     0.1322 C.2     
   2 N2             1.3858     3.3085     0.5098 N.am    
   3 C3             1.2598     1.9670     0.4790 C.2     
   4 C4             2.6737     3.9155     0.8552 C.3     
   5 C5             3.5459     4.0091    -0.3984 C.3     
   6 C6             3.8818     2.6006    -0.8924 C.3     
   7 C7             4.7540     2.6943    -2.1459 C.3     
   8 C8             2.4411     5.3180     1.4207 C.3     
   9 C9             1.6751     5.2149     2.7411 C.3     
  10 C10            1.4426     6.6174     3.3066 C.3     
  11 O11            2.2151     1.2604     0.7379 O.2     
  12 C12           -0.1244     0.0414    -0.0360 C.2     
  13 C13            1.1228    -0.7810    -0.2341 C.3     
  14 C14            1.3042    -1.7270     0.9547 C.3     
  15 C15            2.5704    -2.5619     0.7535 C.3     
  16 H16           -0.9097     1.9783     0.0185 H       
  17 H17            0.6238     3.8721     0.3033 H       
  18 H18            3.1761     3.3011     1.6024 H       
  19 H19            3.0062     4.5482    -1.1770 H       
  20 H20            4.4676     4.5403    -0.1608 H       
  21 H21            4.4214     2.0615    -0.1137 H       
  22 H22            2.9601     2.0694    -1.1299 H       
  23 H23            5.6757     3.2254    -1.9084 H       
  24 H24            4.9933     1.6908    -2.4979 H       
  25 H25            4.2143     3.2333    -2.9246 H       
  26 H26            3.4014     5.8034     1.5947 H       
  27 H27            1.8609     5.9051     0.7089 H       
  28 H28            0.7148     4.7295     2.5672 H       
  29 H29            2.2554     4.6278     3.4529 H       
  30 H30            0.8969     6.5440     4.2473 H       
  31 H31            2.4029     7.1029     3.4806 H       
  32 H32            0.8624     7.2046     2.5948 H       
  33 H33           -1.0921    -0.4380    -0.0305 H       
  34 H34            1.0323    -1.3631    -1.1512 H       
  35 H35            1.9862    -0.1197    -0.3073 H       
  36 H36            1.3947    -1.1448     1.8717 H       
  37 H37            0.4408    -2.3882     1.0278 H       
  38 H38            2.4799    -3.1440    -0.1636 H       
  39 H39            3.4338    -1.9006     0.6803 H       
  40 H40            2.6996    -3.2358     1.6004 H       
@<TRIPOS>BOND
   1    1   12 2
   2    1    3 1
   3    1   16 1
   4    2    3 am
   5    2    4 1
   6    2   17 1
   7    3   11 2
   8    4    5 1
   9    4    8 1
  10    4   18 1
  11    5    6 1
  12    5   19 1
  13    5   20 1
  14    6    7 1
  15    6   21 1
  16    6   22 1
  17    7   23 1
  18    7   24 1
  19    7   25 1
  20    8    9 1
  21    8   26 1
  22    8   27 1
  23    9   10 1
  24    9   28 1
  25    9   29 1
  26   10   30 1
  27   10   31 1
  28   10   32 1
  29   12   13 1
  30   12   33 1
  31   13   14 1
  32   13   34 1
  33   13   35 1
  34   14   15 1
  35   14   36 1
  36   14   37 1
  37   15   38 1
  38   15   39 1
  39   15   40 1

#	End of record

