#	Name: ASD03091658
#	Creating user name:	WinNT
#	Creation time:	15. 06. 2019 20:31

#	Modifying user name:	WinNT
#	Modification time:	15. 06. 2019 20:31

#	Program:	/corina/corina34_cracker 3.40 0067  02.08.2006

@<TRIPOS>MOLECULE
ASD03091658
  43   45    0    0    0
SMALL
NO_CHARGES


@<TRIPOS>ATOM
   1 Cl1            0.0000     0.0000     0.0000 Cl      
   2 H2             0.0000     1.3700     0.0000 H       
   3 C3            14.5236    10.3501     6.5735 C.ar    
   4 C4            14.5426     8.9498     6.5658 C.ar    
   5 C5            15.7651     8.2699     6.5509 C.ar    
   6 C6            16.9460     8.9721     6.5438 C.ar    
   7 C7            16.9327    10.3617     6.5514 C.ar    
   8 C8            15.7574    11.0443     6.5654 C.ar    
   9 S9            12.8924     8.3383     6.5782 S.3     
  10 C10           12.2364     9.9658     6.5932 C.2     
  11 C11           13.2198    10.8713     6.5944 C.2     
  12 C12           10.8024    10.2890     6.6079 C.2     
  13 O13           10.4407    11.4505     6.6172 O.2     
  14 N14            9.8883     9.2986     6.6110 N.am    
  15 N15            6.9509     8.8764     8.4051 N.3     
  16 C16            7.9993     9.8488     8.0685 C.3     
  17 C17            8.4592     9.6207     6.6256 C.3     
  18 C18            7.6629     8.4523     6.0311 C.3     
  19 C19            6.1699     8.7999     6.0857 C.3     
  20 C20            5.7733     9.0501     7.5434 C.3     
  21 C21            7.4616     7.5008     8.3265 C.3     
  22 C22            7.9069     7.2060     6.8914 C.3     
  23 C23           18.2351    11.1199     6.5440 C.3     
  24 F24           19.3016    10.2146     6.5298 F       
  25 F25           18.2963    11.9306     5.4055 F       
  26 F26           18.3164    11.9183     7.6899 F       
  27 H27           15.7806     7.1900     6.5453 H       
  28 H28           17.8873     8.4427     6.5327 H       
  29 H29           15.7648    12.1242     6.5708 H       
  30 H30           13.0245    11.9334     6.6028 H       
  31 H31           10.1767     8.3725     6.6036 H       
  32 H32            7.6036    10.8594     8.1685 H       
  33 H33            8.8449     9.7204     8.7442 H       
  34 H34            8.2798    10.5213     6.0384 H       
  35 H35            7.9693     8.2761     5.0000 H       
  36 H36            5.9822     9.6978     5.4970 H       
  37 H37            5.5869     7.9703     5.6859 H       
  38 H38            5.0000     8.3402     7.8369 H       
  39 H39            5.3931    10.0663     7.6477 H       
  40 H40            8.3106     7.3890     9.0009 H       
  41 H41            6.6745     6.8036     8.6136 H       
  42 H42            7.3308     6.3700     6.4947 H       
  43 H43            8.9682     6.9578     6.8820 H       
@<TRIPOS>BOND
   1    1    2 1
   2    3    4 ar
   3    3    8 ar
   4    3   11 1
   5    4    5 ar
   6    4    9 1
   7    5    6 ar
   8    5   27 1
   9    6    7 ar
  10    6   28 1
  11    7    8 ar
  12    7   23 1
  13    8   29 1
  14    9   10 1
  15   10   11 2
  16   10   12 1
  17   11   30 1
  18   12   13 2
  19   12   14 am
  20   14   17 1
  21   14   31 1
  22   15   16 1
  23   15   20 1
  24   15   21 1
  25   16   17 1
  26   16   32 1
  27   16   33 1
  28   17   18 1
  29   17   34 1
  30   18   19 1
  31   18   22 1
  32   18   35 1
  33   19   20 1
  34   19   36 1
  35   19   37 1
  36   20   38 1
  37   20   39 1
  38   21   22 1
  39   21   40 1
  40   21   41 1
  41   22   42 1
  42   22   43 1
  43   23   24 1
  44   23   25 1
  45   23   26 1

#	End of record

