#	Name: ASD04590501
#	Creating user name:	WinNT
#	Creation time:	15. 06. 2019 20:50

#	Modifying user name:	WinNT
#	Modification time:	15. 06. 2019 20:50

#	Program:	/corina/corina34_cracker 3.40 0067  02.08.2006

@<TRIPOS>MOLECULE
ASD04590501
  66   71    0    0    0
SMALL
NO_CHARGES


@<TRIPOS>ATOM
   1 C1            -0.0167     1.3832     0.0096 C.ar    
   2 C2             0.0021    -0.0041     0.0020 C.ar    
   3 C3             2.4020     0.0223    -0.0208 C.ar    
   4 C4             2.3769     1.4283    -0.0130 C.ar    
   5 C5             1.1624     2.0986     0.0022 C.ar    
   6 N6             3.7040    -0.3552    -0.0353 N.2     
   7 C7             4.4709     0.7083    -0.0369 C.2     
   8 N8             3.6969     1.8375    -0.0234 N.pl3   
   9 C9             5.9482     0.6906    -0.0507 C.2     
  10 C10            6.7657    -0.4631    -0.0648 C.2     
  11 C11            8.0578    -0.0540    -0.0750 C.2     
  12 N12            8.0646     1.3050    -0.0677 N.pl3   
  13 N13            6.7361     1.7480    -0.0579 N.2     
  14 N14            6.3186    -1.7946    -0.0673 N.am    
  15 C15            7.2106    -2.8049    -0.0813 C.2     
  16 O16            8.4029    -2.5635    -0.0918 O.2     
  17 C17            1.1969    -0.6870    -0.0131 C.ar    
  18 C18            6.7420    -4.2008    -0.0839 C.2     
  19 C19            7.5166    -5.3280    -0.0974 C.2     
  20 C20           -1.2962    -0.7693     0.0109 C.3     
  21 N21           -1.7318    -1.0105    -1.3712 N.3     
  22 C22           -2.8604    -1.9518    -1.4111 C.3     
  23 C23           -0.6176    -1.4976    -2.1974 C.3     
  24 C24           -1.0996    -1.6784    -3.6392 C.3     
  25 O25           -2.2162    -2.5719    -3.6548 O.3     
  26 C26           -3.3198    -2.1280    -2.8609 C.3     
  27 N27            6.7041    -6.4021    -0.0950 N.am    
  28 C28            5.3980    -6.0075    -0.0800 C.2     
  29 C29            5.3501    -4.6635    -0.0662 C.2     
  30 S30            7.2169    -7.9766    -0.1087 S.o2    
  31 C31            7.3956    -8.4816     1.5699 C.ar    
  32 C32            6.3274    -9.0505     2.2379 C.ar    
  33 C33            6.4675    -9.4467     3.5548 C.ar    
  34 C34            7.6759    -9.2744     4.2036 C.ar    
  35 C35            8.7444    -8.7063     3.5353 C.ar    
  36 C36            8.6055    -8.3141     2.2170 C.ar    
  37 C37            7.8284    -9.7054     5.6396 C.3     
  38 O38            6.1474    -8.7423    -0.6465 O.2     
  39 O39            8.5239    -7.9681    -0.6664 O.2     
  40 H40           -0.9614     1.9066     0.0170 H       
  41 H41            1.1403     3.1784     0.0079 H       
  42 H42            4.0156     2.7537    -0.0215 H       
  43 H43            8.9275    -0.6943    -0.0864 H       
  44 H44            8.8530     1.8701    -0.0722 H       
  45 H45            5.3680    -1.9870    -0.0589 H       
  46 H46            1.2037    -1.7669    -0.0186 H       
  47 H47            8.5963    -5.3525    -0.1082 H       
  48 H48           -1.1522    -1.7232     0.5182 H       
  49 H49           -2.0559    -0.1898     0.5354 H       
  50 H50           -2.5454    -2.9149    -1.0095 H       
  51 H51           -3.6832    -1.5591    -0.8137 H       
  52 H52            0.1967    -0.7734    -2.1739 H       
  53 H53           -0.2668    -2.4535    -1.8083 H       
  54 H54           -1.4002    -0.7130    -4.0462 H       
  55 H55           -0.2928    -2.0935    -4.2433 H       
  56 H56           -4.1188    -2.8683    -2.9020 H       
  57 H57           -3.6850    -1.1757    -3.2453 H       
  58 H58            4.5426    -6.6668    -0.0753 H       
  59 H59            4.4632    -4.0475    -0.0525 H       
  60 H60            5.3833    -9.1852     1.7310 H       
  61 H61            5.6328    -9.8905     4.0770 H       
  62 H62            9.6884    -8.5713     4.0423 H       
  63 H63            9.4403    -7.8703     1.6949 H       
  64 H64            8.1654   -10.7414     5.6742 H       
  65 H65            8.5614    -9.0681     6.1343 H       
  66 H66            6.8687    -9.6183     6.1489 H       
@<TRIPOS>BOND
   1    1    2 ar
   2    1    5 ar
   3    1   40 1
   4    2   17 ar
   5    2   20 1
   6    3    4 ar
   7    3    6 1
   8    3   17 ar
   9    4    5 ar
  10    4    8 1
  11    5   41 1
  12    6    7 2
  13    7    8 1
  14    7    9 1
  15    8   42 1
  16    9   10 1
  17    9   13 2
  18   10   11 2
  19   10   14 1
  20   11   12 1
  21   11   43 1
  22   12   13 1
  23   12   44 1
  24   14   15 am
  25   14   45 1
  26   15   16 2
  27   15   18 1
  28   17   46 1
  29   18   19 2
  30   18   29 1
  31   19   27 1
  32   19   47 1
  33   20   21 1
  34   20   48 1
  35   20   49 1
  36   21   22 1
  37   21   23 1
  38   22   26 1
  39   22   50 1
  40   22   51 1
  41   23   24 1
  42   23   52 1
  43   23   53 1
  44   24   25 1
  45   24   54 1
  46   24   55 1
  47   25   26 1
  48   26   56 1
  49   26   57 1
  50   27   28 1
  51   27   30 am
  52   28   29 2
  53   28   58 1
  54   29   59 1
  55   30   31 1
  56   30   38 2
  57   30   39 2
  58   31   32 ar
  59   31   36 ar
  60   32   33 ar
  61   32   60 1
  62   33   34 ar
  63   33   61 1
  64   34   35 ar
  65   34   37 1
  66   35   36 ar
  67   35   62 1
  68   36   63 1
  69   37   64 1
  70   37   65 1
  71   37   66 1

#	End of record

