#	Name: ASD00230023
#	Creating user name:	WinNT
#	Creation time:	15. 06. 2019 18:33

#	Modifying user name:	WinNT
#	Modification time:	15. 06. 2019 18:33

#	Program:	/corina/corina34_cracker 3.40 0067  02.08.2006

@<TRIPOS>MOLECULE
ASD00230023
  53   55    0    0    0
SMALL
NO_CHARGES


@<TRIPOS>ATOM
   1 Cl1            0.0000     0.0000     0.0000 Cl      
   2 H2             0.0000     1.3700     0.0000 H       
   3 O3             9.8387    11.4261     7.4047 O.2     
   4 C4             9.0791    11.6816     8.3148 C.2     
   5 C5             9.0421    10.7989     9.5357 C.3     
   6 N6            10.1071     9.7912     9.4439 N.3     
   7 C7             9.9672     8.7800    10.4995 C.3     
   8 C8            11.0009     7.6718    10.2864 C.3     
   9 C9            12.4064     8.2786    10.3180 C.3     
  10 C10           13.4415     7.1855    10.0450 C.3     
  11 C11           14.8276     7.7570    10.1973 C.ar    
  12 C12           15.4669     8.3194     9.1083 C.ar    
  13 C13           16.7383     8.8436     9.2480 C.ar    
  14 C14           17.3704     8.8057    10.4769 C.ar    
  15 C15           16.7307     8.2441    11.5661 C.ar    
  16 C16           15.4576     7.7238    11.4273 C.ar    
  17 C17           12.5103     9.3623     9.2412 C.3     
  18 C18           11.4328    10.4214     9.4846 C.3     
  19 C19            8.1984    12.8563     8.2298 C.ar    
  20 C20            7.3220    13.1521     9.2922 C.ar    
  21 C21            6.5005    14.2302     9.2359 C.ar    
  22 C22            6.5159    15.0702     8.1070 C.ar    
  23 C23            5.6740    16.1918     8.0277 C.ar    
  24 C24            5.7107    16.9870     6.9231 C.ar    
  25 C25            6.5728    16.7068     5.8646 C.ar    
  26 C26            7.4030    15.6292     5.9046 C.ar    
  27 C27            7.3937    14.7845     7.0298 C.ar    
  28 C28            8.2403    13.6696     7.1053 C.ar    
  29 H29            9.1928    11.4065    10.4280 H       
  30 H30            8.0745    10.3006     9.5946 H       
  31 H31           10.1288     9.2453    11.4719 H       
  32 H32            8.9648     8.3535    10.4633 H       
  33 H33           10.9071     6.9294    11.0789 H       
  34 H34           10.8313     7.1969     9.3201 H       
  35 H35           12.5912     8.7187    11.2980 H       
  36 H36           13.3047     6.3700    10.7551 H       
  37 H37           13.3132     6.8090     9.0301 H       
  38 H38           14.9731     8.3490     8.1483 H       
  39 H39           17.2381     9.2824     8.3971 H       
  40 H40           18.3640     9.2146    10.5859 H       
  41 H41           17.2246     8.2142    12.5260 H       
  42 H42           14.9563     7.2884    12.2791 H       
  43 H43           13.4949     9.8276     9.2870 H       
  44 H44           12.3644     8.9139     8.2585 H       
  45 H45           11.4949    11.1871     8.7113 H       
  46 H46           11.5876    10.8790    10.4618 H       
  47 H47            7.3036    12.5124    10.1622 H       
  48 H48            5.8338    14.4439    10.0583 H       
  49 H49            5.0000    16.4222     8.8395 H       
  50 H50            5.0614    17.8482     6.8662 H       
  51 H51            6.5820    17.3539     5.0000 H       
  52 H52            8.0655    15.4234     5.0769 H       
  53 H53            8.9163    13.4431     6.2941 H       
@<TRIPOS>BOND
   1    1    2 1
   2    3    4 2
   3    4    5 1
   4    4   19 1
   5    5    6 1
   6    5   29 1
   7    5   30 1
   8    6   18 1
   9    6    7 1
  10    7    8 1
  11    7   31 1
  12    7   32 1
  13    8    9 1
  14    8   33 1
  15    8   34 1
  16    9   10 1
  17    9   17 1
  18    9   35 1
  19   10   11 1
  20   10   36 1
  21   10   37 1
  22   11   16 ar
  23   11   12 ar
  24   12   13 ar
  25   12   38 1
  26   13   14 ar
  27   13   39 1
  28   14   15 ar
  29   14   40 1
  30   15   16 ar
  31   15   41 1
  32   16   42 1
  33   17   18 1
  34   17   43 1
  35   17   44 1
  36   18   45 1
  37   18   46 1
  38   19   28 ar
  39   19   20 ar
  40   20   21 ar
  41   20   47 1
  42   21   22 ar
  43   21   48 1
  44   22   27 ar
  45   22   23 ar
  46   23   24 ar
  47   23   49 1
  48   24   25 ar
  49   24   50 1
  50   25   26 ar
  51   25   51 1
  52   26   27 ar
  53   26   52 1
  54   27   28 ar
  55   28   53 1

#	End of record

