#	Name: ASD01918032
#	Creating user name:	WinNT
#	Creation time:	15. 06. 2019 20:10

#	Modifying user name:	WinNT
#	Modification time:	15. 06. 2019 20:10

#	Program:	/corina/corina34_cracker 3.40 0067  02.08.2006

@<TRIPOS>MOLECULE
ASD01918032
  47   49    0    0    0
SMALL
NO_CHARGES


@<TRIPOS>ATOM
   1 C1             0.4741     1.0083     1.0899 C.2     
   2 N2             1.4647     1.8613     0.7733 N.am    
   3 C3             2.7237     1.3990     0.5812 C.2     
   4 N4             0.7009    -0.2807     1.1934 N.2     
   5 C5             1.9155    -0.8066     1.0052 C.2     
   6 C6             2.9742     0.0251     0.6943 C.2     
   7 O7             2.1065    -2.1415     1.1187 O.3     
   8 C8             0.9633    -2.9352     1.4430 C.3     
   9 C9             1.3656    -4.3851     1.5264 C.ar    
  10 N10            0.4576    -5.2980     1.8106 N.ar    
  11 C11            2.6811    -4.7432     1.2985 C.ar    
  12 C12            3.0407    -6.0797     1.3772 C.ar    
  13 C13            2.0592    -7.0103     1.6836 C.ar    
  14 C14            0.7636    -6.5782     1.8937 C.ar    
  15 C15            1.2367     3.2999     0.6144 C.3     
  16 C16           -0.0725     3.7084     1.2883 C.3     
  17 O17           -1.1029     2.8152     0.8484 O.3     
  18 C18           -0.9330     1.4896     1.3482 C.3     
  19 O19            3.6299     2.1711     0.3121 O.2     
  20 C20            2.3956     4.0695     1.2514 C.3     
  21 C21            2.4191     5.4989     0.7065 C.3     
  22 C22            1.0540     6.1526     0.9304 C.3     
  23 C23            3.4962     6.3049     1.4353 C.3     
  24 C24            2.7306     5.4688    -0.7912 C.3     
  25 H25            3.9668    -0.3726     0.5424 H       
  26 H26            0.5588    -2.6146     2.4031 H       
  27 H27            0.2047    -2.8125     0.6700 H       
  28 H28            3.4193    -3.9913     1.0617 H       
  29 H29            4.0608    -6.3889     1.2037 H       
  30 H30            2.3036    -8.0600     1.7528 H       
  31 H31           -0.0073    -7.2971     2.1287 H       
  32 H32            1.1868     3.5420    -0.4472 H       
  33 H33            0.0348     3.6407     2.3708 H       
  34 H34           -0.3273     4.7302     1.0069 H       
  35 H35           -1.6389     0.8237     0.8519 H       
  36 H36           -1.1260     1.4810     2.4209 H       
  37 H37            2.2637     4.0951     2.3330 H       
  38 H38            3.3362     3.5737     1.0116 H       
  39 H39            0.6775     5.8791     1.9160 H       
  40 H40            1.1554     7.2361     0.8680 H       
  41 H41            0.3566     5.8084     0.1667 H       
  42 H42            4.4687     5.8392     1.2758 H       
  43 H43            3.5129     7.3233     1.0471 H       
  44 H44            3.2743     6.3264     2.5023 H       
  45 H45            1.8972     5.0139    -1.3266 H       
  46 H46            2.8818     6.4864    -1.1514 H       
  47 H47            3.6347     4.8846    -0.9625 H       
@<TRIPOS>BOND
   1    1    4 2
   2    1    2 1
   3    1   18 1
   4    2    3 am
   5    2   15 1
   6    3    6 1
   7    3   19 2
   8    4    5 1
   9    5    6 2
  10    5    7 1
  11    6   25 1
  12    7    8 1
  13    8    9 1
  14    8   26 1
  15    8   27 1
  16    9   11 ar
  17    9   10 ar
  18   10   14 ar
  19   11   12 ar
  20   11   28 1
  21   12   13 ar
  22   12   29 1
  23   13   14 ar
  24   13   30 1
  25   14   31 1
  26   15   16 1
  27   15   20 1
  28   15   32 1
  29   16   17 1
  30   16   33 1
  31   16   34 1
  32   17   18 1
  33   18   35 1
  34   18   36 1
  35   20   21 1
  36   20   37 1
  37   20   38 1
  38   21   22 1
  39   21   23 1
  40   21   24 1
  41   22   39 1
  42   22   40 1
  43   22   41 1
  44   23   42 1
  45   23   43 1
  46   23   44 1
  47   24   45 1
  48   24   46 1
  49   24   47 1

#	End of record

