#	Name: ASD04230018
#	Creating user name:	WinNT
#	Creation time:	15. 06. 2019 20:48

#	Modifying user name:	WinNT
#	Modification time:	15. 06. 2019 20:48

#	Program:	/corina/corina34_cracker 3.40 0067  02.08.2006

@<TRIPOS>MOLECULE
ASD04230018
  35   37    0    0    0
SMALL
NO_CHARGES


@<TRIPOS>ATOM
   1 C1            -0.0207     1.4542     0.3797 C.ar    
   2 C2            -0.0169     0.0851     0.6043 C.ar    
   3 C3             1.1567    -0.6125     0.6249 C.ar    
   4 C4             2.3727     0.0580     0.4284 C.ar    
   5 C5             2.3722     1.4404     0.1682 C.ar    
   6 C6             1.1639     2.1343     0.1591 C.ar    
   7 C7             3.6024    -0.6481     0.4855 C.2     
   8 C8             4.7776     0.0915     0.4843 C.2     
   9 C9             4.6504     1.5601     0.4552 C.2     
  10 O10            3.5332     2.0872    -0.0936 O.3     
  11 C11            6.0959    -0.5636     0.5114 C.2     
  12 N12            7.2189     0.1816     0.5095 N.am    
  13 O13            6.1715    -1.7773     0.5355 O.2     
  14 C14            8.4676    -0.4351     0.6363 C.ar    
  15 C15            8.6928    -1.6767     0.0558 C.ar    
  16 C16            9.9271    -2.2831     0.1830 C.ar    
  17 C17           10.9382    -1.6554     0.8872 C.ar    
  18 C18           10.7173    -0.4193     1.4664 C.ar    
  19 C19            9.4871     0.1951     1.3381 C.ar    
  20 O20            5.5236     2.2749     0.9103 O.2     
  21 O21            1.1489     3.4752    -0.0662 O.3     
  22 C22           -0.1264     4.1197    -0.0608 C.3     
  23 H23           -0.9567     1.9929     0.3725 H       
  24 H24           -0.9505    -0.4336     0.7647 H       
  25 H25            1.1487    -1.6793     0.7927 H       
  26 H26            3.6235    -1.7270     0.5290 H       
  27 H27            7.1610     1.1458     0.4201 H       
  28 H28            7.9034    -2.1675    -0.4941 H       
  29 H29           10.1027    -3.2486    -0.2678 H       
  30 H30           11.9024    -2.1319     0.9855 H       
  31 H31           11.5090     0.0682     2.0158 H       
  32 H32            9.3153     1.1607     1.7904 H       
  33 H33            0.0039     5.1848    -0.2525 H       
  34 H34           -0.7564     3.6853    -0.8371 H       
  35 H35           -0.5997     3.9808     0.9112 H       
@<TRIPOS>BOND
   1    1    2 ar
   2    1    6 ar
   3    1   23 1
   4    2    3 ar
   5    2   24 1
   6    3    4 ar
   7    3   25 1
   8    4    5 ar
   9    4    7 1
  10    5    6 ar
  11    5   10 1
  12    6   21 1
  13    7    8 2
  14    7   26 1
  15    8    9 1
  16    8   11 1
  17    9   10 1
  18    9   20 2
  19   11   12 am
  20   11   13 2
  21   12   14 1
  22   12   27 1
  23   14   15 ar
  24   14   19 ar
  25   15   16 ar
  26   15   28 1
  27   16   17 ar
  28   16   29 1
  29   17   18 ar
  30   17   30 1
  31   18   19 ar
  32   18   31 1
  33   19   32 1
  34   21   22 1
  35   22   33 1
  36   22   34 1
  37   22   35 1

#	End of record

