#	Name: ASD03380006
#	Creating user name:	WinNT
#	Creation time:	15. 06. 2019 20:40

#	Modifying user name:	WinNT
#	Modification time:	15. 06. 2019 20:40

#	Program:	/corina/corina34_cracker 3.40 0067  02.08.2006

@<TRIPOS>MOLECULE
ASD03380006
  67   68    0    0    0
SMALL
NO_CHARGES


@<TRIPOS>ATOM
   1 N1            -0.0178     1.4648     0.0101 N.3     
   2 C2             0.0021    -0.0041     0.0020 C.3     
   3 C3             0.7074    -0.4901    -1.2379 C.2     
   4 O4             1.4532     0.2518    -1.8415 O.2     
   5 C5             0.7421    -0.5109     1.2415 C.3     
   6 C6            -0.0298    -0.1295     2.4784 C.ar    
   7 C7             0.2188     1.0795     3.1016 C.ar    
   8 C8            -0.9894    -0.9865     2.9848 C.ar    
   9 C9            -0.4878     1.4317     4.2352 C.ar    
  10 C10           -1.6986    -0.6390     4.1181 C.ar    
  11 C11           -1.4474     0.5712     4.7483 C.ar    
  12 O12           -2.1438     0.9154     5.8634 O.3     
  13 N13            0.5096    -1.7492    -1.6760 N.am    
  14 C14            1.1953    -2.2216    -2.8813 C.3     
  15 C15            1.3243    -3.7222    -2.8302 C.2     
  16 O16            0.8866    -4.3366    -1.8805 O.2     
  17 C17            0.3878    -1.8210    -4.1176 C.3     
  18 C18            0.3624    -0.2959    -4.2379 C.3     
  19 C19           -0.4451     0.1047    -5.4742 C.3     
  20 N20           -0.4695     1.5650    -5.5894 N.pl3   
  21 C21           -1.1404     2.1613    -6.6307 C.2     
  22 N22           -1.1633     3.5317    -6.7388 N.pl3   
  23 N23           -1.7547     1.4274    -7.5155 N.2     
  24 N24            1.9262    -4.3816    -3.8399 N.am    
  25 C25            2.0517    -5.8404    -3.7903 C.3     
  26 C26            0.7906    -6.4714    -4.3220 C.2     
  27 O27            0.6785    -7.8081    -4.3720 O.3     
  28 C28            3.2416    -6.2793    -4.6460 C.3     
  29 C29            4.5168    -5.7487    -4.0431 C.ar    
  30 C30            5.2059    -6.5014    -3.1107 C.ar    
  31 C31            5.0003    -4.5118    -4.4268 C.ar    
  32 C32            6.3756    -6.0147    -2.5576 C.ar    
  33 C33            6.1700    -4.0251    -3.8738 C.ar    
  34 C34            6.8564    -4.7755    -2.9374 C.ar    
  35 O35           -0.1195    -5.7741    -4.7032 O.2     
  36 H36            0.9191     1.8392     0.0032 H       
  37 H37           -0.5563     1.8234    -0.7642 H       
  38 H38           -1.0205    -0.3814     0.0098 H       
  39 H39            0.8346    -1.5958     1.1912 H       
  40 H40            1.7350    -0.0630     1.2804 H       
  41 H41            0.9662     1.7489     2.7019 H       
  42 H42           -1.1848    -1.9283     2.4936 H       
  43 H43           -0.2930     2.3760     4.7218 H       
  44 H44           -2.4481    -1.3087     4.5133 H       
  45 H45           -2.9604     1.4008     5.6830 H       
  46 H46           -0.0869    -2.3426    -1.1932 H       
  47 H47            2.1874    -1.7732    -2.9343 H       
  48 H48            0.8501    -2.2480    -5.0075 H       
  49 H49           -0.6316    -2.1950    -4.0226 H       
  50 H50           -0.0999     0.1311    -3.3479 H       
  51 H51            1.3818     0.0781    -4.3328 H       
  52 H52            0.0172    -0.3223    -6.3641 H       
  53 H53           -1.4645    -0.2693    -5.3792 H       
  54 H54           -0.0123     2.1111    -4.9309 H       
  55 H55           -0.7060     4.0778    -6.0804 H       
  56 H56           -1.6366     3.9524    -7.4736 H       
  57 H57           -2.2281     1.8481    -8.2503 H       
  58 H58            2.2763    -3.8903    -4.5995 H       
  59 H59            2.2094    -6.1566    -2.7592 H       
  60 H60           -0.1491    -8.1665    -4.7208 H       
  61 H61            3.2818    -7.3680    -4.6812 H       
  62 H62            3.1267    -5.8871    -5.6565 H       
  63 H63            4.8303    -7.4695    -2.8140 H       
  64 H64            4.4644    -3.9259    -5.1588 H       
  65 H65            6.9136    -6.6024    -1.8286 H       
  66 H66            6.5480    -3.0589    -4.1737 H       
  67 H67            7.7700    -4.3951    -2.5050 H       
@<TRIPOS>BOND
   1    1    2 1
   2    1   36 1
   3    1   37 1
   4    2    5 1
   5    2    3 1
   6    2   38 1
   7    3    4 2
   8    3   13 am
   9    5    6 1
  10    5   39 1
  11    5   40 1
  12    6    8 ar
  13    6    7 ar
  14    7    9 ar
  15    7   41 1
  16    8   10 ar
  17    8   42 1
  18    9   11 ar
  19    9   43 1
  20   10   11 ar
  21   10   44 1
  22   11   12 1
  23   12   45 1
  24   13   14 1
  25   13   46 1
  26   14   15 1
  27   14   17 1
  28   14   47 1
  29   15   24 am
  30   15   16 2
  31   17   18 1
  32   17   48 1
  33   17   49 1
  34   18   19 1
  35   18   50 1
  36   18   51 1
  37   19   20 1
  38   19   52 1
  39   19   53 1
  40   20   21 1
  41   20   54 1
  42   21   22 1
  43   21   23 2
  44   22   55 1
  45   22   56 1
  46   23   57 1
  47   24   25 1
  48   24   58 1
  49   25   26 1
  50   25   28 1
  51   25   59 1
  52   26   27 1
  53   26   35 2
  54   27   60 1
  55   28   29 1
  56   28   61 1
  57   28   62 1
  58   29   30 ar
  59   29   31 ar
  60   30   32 ar
  61   30   63 1
  62   31   33 ar
  63   31   64 1
  64   32   34 ar
  65   32   65 1
  66   33   34 ar
  67   33   66 1
  68   34   67 1

#	End of record

