#	Name: ASD07301411
#	Creating user name:	WinNT
#	Creation time:	15. 06. 2019 21:11

#	Modifying user name:	WinNT
#	Modification time:	15. 06. 2019 21:11

#	Program:	/corina/corina34_cracker 3.40 0067  02.08.2006

@<TRIPOS>MOLECULE
ASD07301411
  32   34    0    0    0
SMALL
NO_CHARGES


@<TRIPOS>ATOM
   1 C1            -0.0169     1.3941     0.0097 C.ar    
   2 C2             0.0021    -0.0041     0.0020 C.ar    
   3 C3             1.2197    -0.6677    -0.0128 C.ar    
   4 C4             2.3815     0.0923    -0.0194 C.ar    
   5 C5             2.2879     1.4724    -0.0111 C.ar    
   6 N6             1.1157     2.0771     0.0026 N.ar    
   7 C7            -2.1141     0.6619     0.0347 C.2     
   8 N8            -1.3548     1.7733     0.0301 N.am    
   9 N9            -1.3234    -0.4280     0.0124 N.am    
  10 O10           -3.3306     0.6447     0.0513 O.2     
  11 C11           -1.8326     3.0923     0.0444 C.ar    
  12 C12           -3.1991     3.3356     0.0644 C.ar    
  13 C13           -3.6689     4.6340     0.0789 C.ar    
  14 C14           -2.7754     5.6952     0.0731 C.ar    
  15 C15           -1.4097     5.4527     0.0527 C.ar    
  16 C16           -0.9388     4.1546     0.0443 C.ar    
  17 O17           -3.2385     6.9735     0.0870 O.3     
  18 C18           -1.7798    -1.8201     0.0086 C.3     
  19 C19           -1.9247    -2.3133     1.4496 C.3     
  20 Cl20           3.9355    -0.6813    -0.0373 Cl      
  21 H21            1.2631    -1.7468    -0.0186 H       
  22 H22            3.1906     2.0653    -0.0159 H       
  23 H23           -3.8948     2.5095     0.0682 H       
  24 H24           -4.7320     4.8234     0.0945 H       
  25 H25           -0.7146     6.2792     0.0478 H       
  26 H26            0.1245     3.9658     0.0330 H       
  27 H27           -3.3604     7.3381     0.9743 H       
  28 H28           -2.7437    -1.8851    -0.4963 H       
  29 H29           -1.0524    -2.4395    -0.5161 H       
  30 H30           -2.6522    -1.6939     1.9742 H       
  31 H31           -2.2643    -3.3490     1.4468 H       
  32 H32           -0.9609    -2.2483     1.9545 H       
@<TRIPOS>BOND
   1    1    2 ar
   2    1    6 ar
   3    1    8 1
   4    2    3 ar
   5    2    9 1
   6    3    4 ar
   7    3   21 1
   8    4    5 ar
   9    4   20 1
  10    5    6 ar
  11    5   22 1
  12    7    8 am
  13    7    9 am
  14    7   10 2
  15    8   11 1
  16    9   18 1
  17   11   12 ar
  18   11   16 ar
  19   12   13 ar
  20   12   23 1
  21   13   14 ar
  22   13   24 1
  23   14   15 ar
  24   14   17 1
  25   15   16 ar
  26   15   25 1
  27   16   26 1
  28   17   27 1
  29   18   19 1
  30   18   28 1
  31   18   29 1
  32   19   30 1
  33   19   31 1
  34   19   32 1

#	End of record

