#	Name: ASD01150327
#	Creating user name:	WinNT
#	Creation time:	15. 06. 2019 19:04

#	Modifying user name:	WinNT
#	Modification time:	15. 06. 2019 19:04

#	Program:	/corina/corina34_cracker 3.40 0067  02.08.2006

@<TRIPOS>MOLECULE
ASD01150327
  53   55    0    0    0
SMALL
NO_CHARGES


@<TRIPOS>ATOM
   1 N1            -0.0169     1.3928     0.0097 N.pl3   
   2 C2             0.0021    -0.0041     0.0020 C.2     
   3 C3            -1.3283    -0.4051     0.0134 C.2     
   4 N4            -2.0859     0.6952     0.0270 N.2     
   5 C5            -1.3234     1.7684     0.0302 C.2     
   6 C6             1.1388    -0.8367    -0.0144 C.2     
   7 C7             1.0964     2.2431     0.0036 C.ar    
   8 C8             1.3307     3.0748    -1.0833 C.ar    
   9 C9             2.4290     3.9123    -1.0861 C.ar    
  10 C10            3.2950     3.9228    -0.0081 C.ar    
  11 C11            3.0647     3.0953     1.0756 C.ar    
  12 C12            1.9648     2.2600     1.0870 C.ar    
  13 N13           -1.7777     3.0670     0.0433 N.3     
  14 C14           -3.2460     3.1110     0.0530 C.3     
  15 C15           -1.2213     3.8079     1.1832 C.3     
  16 O16            1.0067    -2.0474    -0.0195 O.2     
  17 O17            2.3746    -0.2922    -0.0246 O.3     
  18 C18            3.4815    -1.1958    -0.0411 C.3     
  19 C19            3.4073    -2.0704    -1.2943 C.3     
  20 C20            4.7887    -0.4008    -0.0506 C.3     
  21 C21            3.4337    -2.0838     1.2040 C.3     
  22 N22           -1.7884    -1.7160     0.0107 N.am    
  23 C23           -3.1128    -1.9654     0.0229 C.2     
  24 C24           -3.5975    -3.3466     0.0200 C.2     
  25 O25           -3.9059    -1.0421     0.0363 O.2     
  26 S26           -2.5841    -4.7833     0.0019 S.3     
  27 C27           -3.9504    -5.8050     0.0109 C.2     
  28 C28           -5.0823    -5.0919     0.0263 C.2     
  29 C29           -4.9119    -3.7267     0.0368 C.2     
  30 Cl30          -6.2320    -2.5995     0.0574 Cl      
  31 H31            0.6551     3.0665    -1.9258 H       
  32 H32            2.6117     4.5594    -1.9312 H       
  33 H33            4.1533     4.5783    -0.0128 H       
  34 H34            3.7431     3.1055     1.9159 H       
  35 H35            1.7852     1.6143     1.9339 H       
  36 H36           -3.6189     2.6013     0.9414 H       
  37 H37           -3.5783     4.1490     0.0633 H       
  38 H38           -3.6302     2.6153    -0.8385 H       
  39 H39           -0.1336     3.8188     1.1134 H       
  40 H40           -1.5966     4.8311     1.1695 H       
  41 H41           -1.5209     3.3234     2.1125 H       
  42 H42            3.4414    -1.4378    -2.1813 H       
  43 H43            4.2517    -2.7596    -1.3069 H       
  44 H44            2.4760    -2.6367    -1.2875 H       
  45 H45            4.8416     0.2222     0.8422 H       
  46 H46            5.6331    -1.0901    -0.0632 H       
  47 H47            4.8228     0.2317    -0.9376 H       
  48 H48            2.5024    -2.6501     1.2108 H       
  49 H49            4.2780    -2.7730     1.1914 H       
  50 H50            3.4865    -1.4607     2.0968 H       
  51 H51           -1.1564    -2.4518    -0.0000 H       
  52 H52           -3.9074    -6.8841     0.0045 H       
  53 H53           -6.0583    -5.5542     0.0341 H       
@<TRIPOS>BOND
   1    1    2 1
   2    1    7 1
   3    1    5 1
   4    2    3 2
   5    2    6 1
   6    3    4 1
   7    3   22 1
   8    4    5 2
   9    5   13 1
  10    6   16 2
  11    6   17 1
  12    7    8 ar
  13    7   12 ar
  14    8    9 ar
  15    8   31 1
  16    9   10 ar
  17    9   32 1
  18   10   11 ar
  19   10   33 1
  20   11   12 ar
  21   11   34 1
  22   12   35 1
  23   13   14 1
  24   13   15 1
  25   14   36 1
  26   14   37 1
  27   14   38 1
  28   15   39 1
  29   15   40 1
  30   15   41 1
  31   17   18 1
  32   18   19 1
  33   18   20 1
  34   18   21 1
  35   19   42 1
  36   19   43 1
  37   19   44 1
  38   20   45 1
  39   20   46 1
  40   20   47 1
  41   21   48 1
  42   21   49 1
  43   21   50 1
  44   22   23 am
  45   22   51 1
  46   23   24 1
  47   23   25 2
  48   24   26 1
  49   24   29 2
  50   26   27 1
  51   27   28 2
  52   27   52 1
  53   28   29 1
  54   28   53 1
  55   29   30 1

#	End of record

