#	Name: ASD03700002
#	Creating user name:	WinNT
#	Creation time:	15. 06. 2019 20:43

#	Modifying user name:	WinNT
#	Modification time:	15. 06. 2019 20:43

#	Program:	/corina/corina34_cracker 3.40 0067  02.08.2006

@<TRIPOS>MOLECULE
ASD03700002
  43   45    0    0    0
SMALL
NO_CHARGES


@<TRIPOS>ATOM
   1 C1            -0.0926     1.0664     0.0710 C.ar    
   2 C2             0.0762    -0.2893    -0.1604 C.ar    
   3 C3             1.3299    -0.8026    -0.4232 C.ar    
   4 C4             2.4337     0.0400    -0.4579 C.ar    
   5 C5             2.2659     1.4142    -0.2243 C.ar    
   6 C6             0.9902     1.9180     0.0409 C.ar    
   7 C7             3.4287     2.3195    -0.2576 C.2     
   8 O8             4.5502     1.8648    -0.3780 O.2     
   9 N9             3.2491     3.6513    -0.1547 N.am    
  10 C10            4.3561     4.5023    -0.0760 C.ar    
  11 C11            4.3001     5.7708    -0.6383 C.ar    
  12 C12            5.3953     6.6087    -0.5588 C.ar    
  13 C13            6.5466     6.1856     0.0793 C.ar    
  14 C14            6.6058     4.9227     0.6400 C.ar    
  15 C15            5.5121     4.0825     0.5699 C.ar    
  16 C16            5.3355     7.9855    -1.1688 C.3     
  17 F17            4.8631     8.8966    -0.2181 F       
  18 F18            6.6154     8.3672    -1.5849 F       
  19 F19            4.4723     7.9707    -2.2697 F       
  20 N20            3.6965    -0.4742    -0.7217 N.pl3   
  21 C21            3.8911    -1.9227    -0.8233 C.3     
  22 C22            5.3407    -2.2157    -1.1130 C.ar    
  23 C23            6.2464    -2.4058    -0.0805 C.ar    
  24 C24            7.5678    -2.6732    -0.3846 C.ar    
  25 N25            7.9697    -2.7477    -1.6383 N.ar    
  26 C26            7.1364    -2.5725    -2.6453 C.ar    
  27 C27            5.7992    -2.3074    -2.4183 C.ar    
  28 H28           -1.0788     1.4584     0.2717 H       
  29 H29           -0.7789    -0.9486    -0.1345 H       
  30 H30            1.4531    -1.8606    -0.6018 H       
  31 H31            0.8526     2.9740     0.2213 H       
  32 H32            2.3519     4.0196    -0.1352 H       
  33 H33            3.4014     6.1016    -1.1375 H       
  34 H34            7.4016     6.8426     0.1398 H       
  35 H35            7.5068     4.5949     1.1372 H       
  36 H36            5.5589     3.0966     1.0082 H       
  37 H37            4.4497     0.1257    -0.8387 H       
  38 H38            3.6059    -2.3944     0.1170 H       
  39 H39            3.2726    -2.3166    -1.6298 H       
  40 H40            5.9234    -2.3453     0.9483 H       
  41 H41            8.2795    -2.8225     0.4139 H       
  42 H42            7.5025    -2.6408    -3.6590 H       
  43 H43            5.1215    -2.1651    -3.2471 H       
@<TRIPOS>BOND
   1    1    2 ar
   2    1    6 ar
   3    1   28 1
   4    2    3 ar
   5    2   29 1
   6    3    4 ar
   7    3   30 1
   8    4    5 ar
   9    4   20 1
  10    5    6 ar
  11    5    7 1
  12    6   31 1
  13    7    8 2
  14    7    9 am
  15    9   10 1
  16    9   32 1
  17   10   11 ar
  18   10   15 ar
  19   11   12 ar
  20   11   33 1
  21   12   13 ar
  22   12   16 1
  23   13   14 ar
  24   13   34 1
  25   14   15 ar
  26   14   35 1
  27   15   36 1
  28   16   17 1
  29   16   18 1
  30   16   19 1
  31   20   21 1
  32   20   37 1
  33   21   22 1
  34   21   38 1
  35   21   39 1
  36   22   23 ar
  37   22   27 ar
  38   23   24 ar
  39   23   40 1
  40   24   25 ar
  41   24   41 1
  42   25   26 ar
  43   26   27 ar
  44   26   42 1
  45   27   43 1

#	End of record

