#	Name: ASD01815875
#	Creating user name:	WinNT
#	Creation time:	15. 06. 2019 19:34

#	Modifying user name:	WinNT
#	Modification time:	15. 06. 2019 19:34

#	Program:	/corina/corina34_cracker 3.40 0067  02.08.2006

@<TRIPOS>MOLECULE
ASD01815875
  58   63    0    0    0
SMALL
NO_CHARGES


@<TRIPOS>ATOM
   1 C1            -0.0167     1.3813     0.0096 C.ar    
   2 C2             0.0021    -0.0041     0.0020 C.ar    
   3 C3             1.1984    -0.6909    -0.0131 C.ar    
   4 C4             2.4015     0.0059    -0.0203 C.ar    
   5 C5             2.3790     1.4106    -0.0126 C.ar    
   6 C6             1.1663     2.0916     0.0022 C.ar    
   7 N7             3.6053    -0.6772    -0.0345 N.pl3   
   8 C8             4.7970    -0.0586    -0.0420 C.2     
   9 C9             4.9000     1.3103    -0.0361 C.2     
  10 C10            3.6670     2.1302    -0.0205 C.2     
  11 C11            5.9971     2.2730    -0.0415 C.2     
  12 N12            5.4245     3.4961    -0.0304 N.am    
  13 N13            4.0323     3.3799    -0.0179 N.2     
  14 C14            6.1259     4.7074    -0.0313 C.ar    
  15 O15            7.1914     2.0229    -0.0529 O.2     
  16 C16            3.5779    -2.1419    -0.0411 C.3     
  17 C17            3.5555    -2.6375    -1.4641 C.ar    
  18 C18            4.7444    -2.8865    -2.1258 C.ar    
  19 C19            4.7298    -3.3405    -3.4291 C.ar    
  20 C20            3.5145    -3.5480    -4.0782 C.ar    
  21 C21            2.3199    -3.2955    -3.4069 C.ar    
  22 C22            2.3461    -2.8471    -2.1018 C.ar    
  23 C23            3.4924    -4.0355    -5.4796 C.ar    
  24 C24            2.2771    -4.2430    -6.1287 C.ar    
  25 C25            2.2625    -4.6966    -7.4321 C.ar    
  26 C26            3.4514    -4.9456    -8.0938 C.ar    
  27 C27            4.6607    -4.7418    -7.4541 C.ar    
  28 C28            4.6871    -4.2821    -6.1530 C.ar    
  29 C29            5.4345     5.9106    -0.0192 C.ar    
  30 C30            7.5154     4.7067    -0.0385 C.ar    
  31 C31            8.2074     5.9020    -0.0390 C.ar    
  32 C32            7.5203     7.1013    -0.0322 C.ar    
  33 C33            6.1327     7.1081    -0.0202 C.ar    
  34 O34            5.4586     8.2882    -0.0136 O.3     
  35 C35            6.2423     9.4831    -0.0196 C.3     
  36 H36           -0.9602     1.9068     0.0169 H       
  37 H37           -0.9288    -0.5516     0.0083 H       
  38 H38            1.2004    -1.7709    -0.0189 H       
  39 H39            1.1506     3.1715     0.0084 H       
  40 H40            5.6983    -0.6536    -0.0527 H       
  41 H41            4.4656    -2.5242     0.4629 H       
  42 H42            2.6860    -2.4910     0.4793 H       
  43 H43            5.6859    -2.7250    -1.6218 H       
  44 H44            5.6586    -3.5343    -3.9449 H       
  45 H45            1.3751    -3.4547    -3.9053 H       
  46 H46            1.4208    -2.6511    -1.5805 H       
  47 H47            1.3482    -4.0495    -5.6128 H       
  48 H48            1.3210    -4.8577    -7.9363 H       
  49 H49            3.4353    -5.3008    -9.1136 H       
  50 H50            5.5860    -4.9382    -7.9753 H       
  51 H51            5.6319    -4.1230    -5.6545 H       
  52 H52            4.3545     5.9140    -0.0094 H       
  53 H53            8.0547     3.7710    -0.0434 H       
  54 H54            9.2873     5.8995    -0.0442 H       
  55 H55            8.0642     8.0344    -0.0319 H       
  56 H56            6.8790     9.5045     0.8648 H       
  57 H57            6.8635     9.5056    -0.9151 H       
  58 H58            5.5823    10.3505    -0.0134 H       
@<TRIPOS>BOND
   1    1    2 ar
   2    1    6 ar
   3    1   36 1
   4    2    3 ar
   5    2   37 1
   6    3    4 ar
   7    3   38 1
   8    4    5 ar
   9    4    7 1
  10    5    6 ar
  11    5   10 1
  12    6   39 1
  13    7    8 1
  14    7   16 1
  15    8    9 2
  16    8   40 1
  17    9   10 1
  18    9   11 1
  19   10   13 2
  20   11   12 am
  21   11   15 2
  22   12   13 1
  23   12   14 1
  24   14   29 ar
  25   14   30 ar
  26   16   17 1
  27   16   41 1
  28   16   42 1
  29   17   18 ar
  30   17   22 ar
  31   18   19 ar
  32   18   43 1
  33   19   20 ar
  34   19   44 1
  35   20   21 ar
  36   20   23 1
  37   21   22 ar
  38   21   45 1
  39   22   46 1
  40   23   24 ar
  41   23   28 ar
  42   24   25 ar
  43   24   47 1
  44   25   26 ar
  45   25   48 1
  46   26   27 ar
  47   26   49 1
  48   27   28 ar
  49   27   50 1
  50   28   51 1
  51   29   33 ar
  52   29   52 1
  53   30   31 ar
  54   30   53 1
  55   31   32 ar
  56   31   54 1
  57   32   33 ar
  58   32   55 1
  59   33   34 1
  60   34   35 1
  61   35   56 1
  62   35   57 1
  63   35   58 1

#	End of record

