#	Name: ASD05730030
#	Creating user name:	WinNT
#	Creation time:	15. 06. 2019 21:02

#	Modifying user name:	WinNT
#	Modification time:	15. 06. 2019 21:02

#	Program:	/corina/corina34_cracker 3.40 0067  02.08.2006

@<TRIPOS>MOLECULE
ASD05730030
  48   51    0    0    0
SMALL
NO_CHARGES


@<TRIPOS>ATOM
   1 C1            -0.1571     1.5497     0.0191 C.ar    
   2 C2            -0.1078     0.1698    -0.2072 C.ar    
   3 N3            -1.2347    -0.5938    -0.2298 N.2     
   4 C4            -2.2557    -0.5251     0.5490 C.2     
   5 C5            -2.4431     0.4295     1.6522 C.ar    
   6 C6            -2.0318     1.7606     1.5165 C.ar    
   7 N7            -1.3695     2.1743     0.3594 N.pl3   
   8 C8             1.0018     2.3040    -0.0370 C.ar    
   9 C9             2.2196     1.6933    -0.2862 C.ar    
  10 C10            2.2820     0.3242    -0.4798 C.ar    
  11 C11            1.1290    -0.4379    -0.4409 C.ar    
  12 F12            3.4739    -0.2696    -0.7075 F       
  13 C13           -3.0411     0.0129     2.8428 C.ar    
  14 C14           -3.2467     0.9187     3.8650 C.ar    
  15 C15           -2.8657     2.2414     3.7136 C.ar    
  16 C16           -2.2604     2.6630     2.5439 C.ar    
  17 Cl17          -3.9866     0.3968     5.3461 Cl      
  18 N18           -3.2691    -1.4301     0.3291 N.pl3   
  19 C19           -4.5389    -1.3351     1.0653 C.3     
  20 C20           -3.1133    -2.5141    -0.6526 C.3     
  21 C21           -4.3242    -2.4982    -1.5916 C.3     
  22 N22           -5.5577    -2.5534    -0.7957 N.3     
  23 C23           -5.6908    -1.3680     0.0552 C.3     
  24 C24           -6.7350    -2.7133    -1.6597 C.3     
  25 C25           -1.3966     4.5920    -0.0089 C.3     
  26 C26           -1.9259     3.2367    -0.4821 C.3     
  27 H27            0.9564     3.3725     0.1136 H       
  28 H28            3.1215     2.2859    -0.3298 H       
  29 H29            1.1841    -1.5058    -0.5924 H       
  30 H30           -3.3430    -1.0169     2.9644 H       
  31 H31           -3.0418     2.9466     4.5124 H       
  32 H32           -1.9666     3.6960     2.4303 H       
  33 H33           -4.6287    -2.1779     1.7507 H       
  34 H34           -4.5688    -0.4000     1.6245 H       
  35 H35           -2.2012    -2.3581    -1.2287 H       
  36 H36           -3.0637    -3.4722    -0.1353 H       
  37 H37           -4.3138    -1.5827    -2.1832 H       
  38 H38           -4.2809    -3.3614    -2.2557 H       
  39 H39           -6.6385    -1.4100     0.5920 H       
  40 H40           -5.6622    -0.4711    -0.5635 H       
  41 H41           -6.6448    -3.6383    -2.2293 H       
  42 H42           -7.6343    -2.7513    -1.0450 H       
  43 H43           -6.7994    -1.8689    -2.3460 H       
  44 H44           -1.8106     5.3824    -0.6350 H       
  45 H45           -1.6931     4.7562     1.0271 H       
  46 H46           -0.3091     4.6028    -0.0816 H       
  47 H47           -1.6294     3.0724    -1.5180 H       
  48 H48           -3.0134     3.2258    -0.4093 H       
@<TRIPOS>BOND
   1    1    2 ar
   2    1    8 ar
   3    1    7 1
   4    2    3 1
   5    2   11 ar
   6    3    4 2
   7    4    5 1
   8    4   18 1
   9    5    6 ar
  10    5   13 ar
  11    6    7 1
  12    6   16 ar
  13    7   26 1
  14    8    9 ar
  15    8   27 1
  16    9   10 ar
  17    9   28 1
  18   10   11 ar
  19   10   12 1
  20   11   29 1
  21   13   14 ar
  22   13   30 1
  23   14   15 ar
  24   14   17 1
  25   15   16 ar
  26   15   31 1
  27   16   32 1
  28   18   19 1
  29   18   20 1
  30   19   23 1
  31   19   33 1
  32   19   34 1
  33   20   21 1
  34   20   35 1
  35   20   36 1
  36   21   22 1
  37   21   37 1
  38   21   38 1
  39   22   23 1
  40   22   24 1
  41   23   39 1
  42   23   40 1
  43   24   41 1
  44   24   42 1
  45   24   43 1
  46   25   26 1
  47   25   44 1
  48   25   45 1
  49   25   46 1
  50   26   47 1
  51   26   48 1

#	End of record

