#	Name: ASD01880013
#	Creating user name:	WinNT
#	Creation time:	15. 06. 2019 19:39

#	Modifying user name:	WinNT
#	Modification time:	15. 06. 2019 19:39

#	Program:	/corina/corina34_cracker 3.40 0067  02.08.2006

@<TRIPOS>MOLECULE
ASD01880013
  56   58    0    0    0
SMALL
NO_CHARGES


@<TRIPOS>ATOM
   1 N1             0.0105     0.1510     0.3778 N.pl3   
   2 N2            -0.0243     1.1282    -0.4595 N.2     
   3 N3             1.1838     1.4812    -0.7417 N.2     
   4 C4             2.0047     0.6829    -0.0445 C.2     
   5 N5             1.2376    -0.1377     0.6454 N.2     
   6 C6             3.4885     0.7160    -0.0491 C.ar    
   7 C7             4.1633     1.6476    -0.8359 C.ar    
   8 C8             5.5417     1.6767    -0.8387 C.ar    
   9 C9             6.2582     0.7775    -0.0581 C.ar    
  10 C10            5.5874    -0.1526     0.7269 C.ar    
  11 C11            4.2090    -0.1806     0.7378 C.ar    
  12 C12           13.5959     5.0875    -0.1763 C.ar    
  13 C13           14.4618     4.0145     0.0179 C.ar    
  14 C14           15.8097     4.2175     0.0823 C.ar    
  15 C15           16.3316     5.5116    -0.0476 C.ar    
  16 C16           15.4593     6.5977    -0.2444 C.ar    
  17 C17           14.0948     6.3759    -0.3070 C.ar    
  18 C18           13.1516     7.5321    -0.5180 C.3     
  19 C19           12.9276     7.7406    -2.0171 C.3     
  20 C20           11.9700     8.9145    -2.2313 C.3     
  21 O21           15.9527     7.8544    -0.3711 O.3     
  22 C22           17.7781     5.7323     0.0216 C.2     
  23 C23           18.7090     4.5662     0.2330 C.3     
  24 O24           18.2267     6.8540    -0.0913 O.2     
  25 N25            7.6562     0.8084    -0.0628 N.am    
  26 C26            8.3039     1.9860    -0.1635 C.2     
  27 C27           11.8113     3.5212    -0.1074 C.3     
  28 C28            9.8069     2.0303    -0.0632 C.3     
  29 C29           10.2854     3.4762    -0.2092 C.3     
  30 O30           12.2582     4.8716    -0.2437 O.3     
  31 O31            7.6771     3.0102    -0.3349 O.2     
  32 H32           -0.7653    -0.2952     0.7518 H       
  33 H33            3.6068     2.3461    -1.4432 H       
  34 H34            6.0650     2.3984    -1.4483 H       
  35 H35            6.1462    -0.8509     1.3323 H       
  36 H36            3.6880    -0.9034     1.3482 H       
  37 H37           14.0641     3.0154     0.1186 H       
  38 H38           16.4748     3.3802     0.2339 H       
  39 H39           12.1987     7.3165    -0.0348 H       
  40 H40           13.5819     8.4356    -0.0859 H       
  41 H41           13.8805     7.9562    -2.5003 H       
  42 H42           12.4973     6.8371    -2.4493 H       
  43 H43           12.4003     9.8179    -1.7992 H       
  44 H44           11.8104     9.0630    -3.2993 H       
  45 H45           11.0171     8.6988    -1.7481 H       
  46 H46           16.1546     8.1078    -1.2822 H       
  47 H47           18.5901     3.8537    -0.5833 H       
  48 H48           19.7387     4.9229     0.2568 H       
  49 H49           18.4715     4.0784     1.1784 H       
  50 H50            8.1598    -0.0177     0.0064 H       
  51 H51           12.1224     3.1316     0.8619 H       
  52 H52           12.2464     2.9127    -0.9002 H       
  53 H53           10.1180     1.6407     0.9061 H       
  54 H54           10.2420     1.4218    -0.8560 H       
  55 H55            9.8503     4.0847     0.5836 H       
  56 H56            9.9743     3.8658    -1.1785 H       
@<TRIPOS>BOND
   1    1    2 1
   2    1    5 1
   3    1   32 1
   4    2    3 2
   5    3    4 1
   6    4    5 2
   7    4    6 1
   8    6    7 ar
   9    6   11 ar
  10    7    8 ar
  11    7   33 1
  12    8    9 ar
  13    8   34 1
  14    9   10 ar
  15    9   25 1
  16   10   11 ar
  17   10   35 1
  18   11   36 1
  19   12   13 ar
  20   12   17 ar
  21   12   30 1
  22   13   14 ar
  23   13   37 1
  24   14   15 ar
  25   14   38 1
  26   15   16 ar
  27   15   22 1
  28   16   17 ar
  29   16   21 1
  30   17   18 1
  31   18   19 1
  32   18   39 1
  33   18   40 1
  34   19   20 1
  35   19   41 1
  36   19   42 1
  37   20   43 1
  38   20   44 1
  39   20   45 1
  40   21   46 1
  41   22   23 1
  42   22   24 2
  43   23   47 1
  44   23   48 1
  45   23   49 1
  46   25   26 am
  47   25   50 1
  48   26   28 1
  49   26   31 2
  50   27   30 1
  51   27   29 1
  52   27   51 1
  53   27   52 1
  54   28   29 1
  55   28   53 1
  56   28   54 1
  57   29   55 1
  58   29   56 1

#	End of record

