#	Name: ASD05430740
#	Creating user name:	WinNT
#	Creation time:	15. 06. 2019 21:00

#	Modifying user name:	WinNT
#	Modification time:	15. 06. 2019 21:00

#	Program:	/corina/corina34_cracker 3.40 0067  02.08.2006

@<TRIPOS>MOLECULE
ASD05430740
  63   68    0    0    0
SMALL
NO_CHARGES


@<TRIPOS>ATOM
   1 C1            -0.9864     0.5837     2.0604 C.2     
   2 C2            -1.6232    -0.5988     2.4598 C.2     
   3 N3            -2.8558    -0.8696     2.0165 N.2     
   4 C4            -3.4849    -0.0443     1.2094 C.2     
   5 N5            -2.9188     1.1207     0.7852 N.am    
   6 C6            -1.6782     1.4657     1.1950 C.2     
   7 O7            -1.1635     2.5058     0.8214 O.2     
   8 C8            -3.6616     2.0064    -0.1148 C.3     
   9 C9            -3.3245     3.4629     0.2103 C.3     
  10 C10           -3.2787     1.7085    -1.5416 C.ar    
  11 C11           -4.2589     1.5912    -2.5091 C.ar    
  12 C12           -2.5754     1.1609    -4.1625 C.ar    
  13 C13           -1.5937     1.2850    -3.1921 C.ar    
  14 C14           -1.9475     1.5586    -1.8820 C.ar    
  15 N15            0.2322     0.6072     2.6459 N.2     
  16 C16            0.3854    -0.4729     3.3724 C.2     
  17 N17           -0.7443    -1.2487     3.2841 N.pl3   
  18 C18            1.5883    -0.8047     4.1644 C.ar    
  19 C19            2.6792     0.0660     4.1770 C.ar    
  20 C20            3.8024    -0.2482     4.9197 C.ar    
  21 C21            3.8432    -1.4326     5.6537 C.ar    
  22 C22            2.7578    -2.2983     5.6402 C.ar    
  23 C23            1.6333    -1.9870     4.9059 C.ar    
  24 N24            4.9825    -1.7504     6.4066 N.pl3   
  25 C25            6.2687    -1.7342     5.9706 C.2     
  26 N26            7.0466    -2.0883     6.9572 N.2     
  27 C27            6.3005    -2.3400     8.0429 C.2     
  28 C28            5.0091    -2.1305     7.7234 C.2     
  29 C29            6.8182    -2.7767     9.3891 C.3     
  30 N30           -4.7483    -0.3654     0.7813 N.pl3   
  31 C31           -5.3098    -1.6850     1.0802 C.3     
  32 C32           -6.8339    -1.8104     1.1262 C.3     
  33 C33           -6.0522    -2.4084    -0.0452 C.3     
  34 C34           -3.9093     1.3172    -3.8202 C.ar    
  35 F35           -4.8677     1.2017    -4.7653 F       
  36 F36           -0.2924     1.1386    -3.5243 F       
  37 F37           -2.2321     0.8939    -5.4416 F       
  38 O38            4.8668     0.5975     4.9338 O.3     
  39 C39            4.7561     1.7927     4.1583 C.3     
  40 H40           -4.7313     1.8431     0.0160 H       
  41 H41           -4.2009     4.0867     0.0343 H       
  42 H42           -3.0261     3.5423     1.2557 H       
  43 H43           -2.5063     3.7976    -0.4274 H       
  44 H44           -5.2982     1.7130    -2.2419 H       
  45 H45           -1.1828     1.6554    -1.1255 H       
  46 H46           -0.8921    -2.1004     3.7244 H       
  47 H47            2.6461     0.9831     3.6075 H       
  48 H48            2.7929    -3.2155     6.2094 H       
  49 H49            0.7903    -2.6621     4.8971 H       
  50 H50            6.5934    -1.4726     4.9743 H       
  51 H51            4.1574    -2.2455     8.3774 H       
  52 H52            7.0275    -1.8988    10.0002 H       
  53 H53            6.0681    -3.3935     9.8842 H       
  54 H54            7.7333    -3.3539     9.2567 H       
  55 H55           -5.2697     0.2815     0.2806 H       
  56 H56           -4.7335    -2.2944     1.7764 H       
  57 H57           -7.2603    -2.5025     1.8523 H       
  58 H58           -7.4189    -0.9110     0.9340 H       
  59 H59           -6.1228    -1.9024    -1.0080 H       
  60 H60           -5.9642    -3.4939    -0.0897 H       
  61 H61            3.9103     2.3804     4.5153 H       
  62 H62            5.6715     2.3761     4.2573 H       
  63 H63            4.6020     1.5332     3.1109 H       
@<TRIPOS>BOND
   1    1    2 2
   2    1   15 1
   3    1    6 1
   4    2    3 1
   5    2   17 1
   6    3    4 2
   7    4    5 1
   8    4   30 1
   9    5    6 am
  10    5    8 1
  11    6    7 2
  12    8    9 1
  13    8   10 1
  14    8   40 1
  15    9   41 1
  16    9   42 1
  17    9   43 1
  18   10   11 ar
  19   10   14 ar
  20   11   34 ar
  21   11   44 1
  22   12   13 ar
  23   12   37 1
  24   12   34 ar
  25   13   14 ar
  26   13   36 1
  27   14   45 1
  28   15   16 2
  29   16   17 1
  30   16   18 1
  31   17   46 1
  32   18   19 ar
  33   18   23 ar
  34   19   20 ar
  35   19   47 1
  36   20   21 ar
  37   20   38 1
  38   21   22 ar
  39   21   24 1
  40   22   23 ar
  41   22   48 1
  42   23   49 1
  43   24   25 1
  44   24   28 1
  45   25   26 2
  46   25   50 1
  47   26   27 1
  48   27   28 2
  49   27   29 1
  50   28   51 1
  51   29   52 1
  52   29   53 1
  53   29   54 1
  54   30   31 1
  55   30   55 1
  56   31   32 1
  57   31   33 1
  58   31   56 1
  59   32   33 1
  60   32   57 1
  61   32   58 1
  62   33   59 1
  63   33   60 1
  64   34   35 1
  65   38   39 1
  66   39   61 1
  67   39   62 1
  68   39   63 1

#	End of record

