#	Name: ASD01912019
#	Creating user name:	WinNT
#	Creation time:	15. 06. 2019 19:58

#	Modifying user name:	WinNT
#	Modification time:	15. 06. 2019 19:58

#	Program:	/corina/corina34_cracker 3.40 0067  02.08.2006

@<TRIPOS>MOLECULE
ASD01912019
  42   45    0    0    0
SMALL
NO_CHARGES


@<TRIPOS>ATOM
   1 C1             0.1633     1.0858     0.8392 C.ar    
   2 C2             0.0027    -0.0052     0.0024 C.ar    
   3 C3             1.0243    -0.3927    -0.8433 C.ar    
   4 C4             2.2185     0.3105    -0.8577 C.ar    
   5 C5             2.3845     1.4147    -0.0126 C.ar    
   6 C6             1.3455     1.7963     0.8362 C.ar    
   7 C7             3.6551     2.1720    -0.0197 C.ar    
   8 N8             4.8215     1.5389     0.0665 N.ar    
   9 C9             5.9603     2.2135     0.0600 C.ar    
  10 N10            5.9952     3.5367    -0.0315 N.ar    
  11 C11            4.8847     4.2450    -0.1209 C.ar    
  12 C12            3.6524     3.5808    -0.1240 C.ar    
  13 C13            2.4235     4.3096    -0.2192 C.1     
  14 N14            1.4485     4.8878    -0.2948 N.1     
  15 N15            7.1525     1.5166     0.1520 N.pl3   
  16 C16            8.3522     2.1981     0.1472 C.2     
  17 O17            9.5650     1.6236     0.2313 O.3     
  18 C18           10.4989     2.6016     0.1952 C.ar    
  19 C19            9.7994     3.8127     0.0842 C.ar    
  20 N20            8.4758     3.4969     0.0545 N.2     
  21 C21           11.8835     2.6075     0.2436 C.ar    
  22 C22           12.5689     3.8039     0.1825 C.ar    
  23 C23           11.8816     5.0030     0.0728 C.ar    
  24 C24           10.5050     5.0153     0.0234 C.ar    
  25 O25            3.2234    -0.0698    -1.6875 O.3     
  26 C26            2.9822    -1.2056    -2.5204 C.3     
  27 C27            4.2185    -1.4803    -3.3788 C.3     
  28 H28           -0.6420     1.3846     1.4938 H       
  29 H29           -0.9259    -0.5565     0.0108 H       
  30 H30            0.8923    -1.2449    -1.4935 H       
  31 H31            1.4667     2.6471     1.4904 H       
  32 H32            4.9264     5.3217    -0.1945 H       
  33 H33            7.1447     0.5490     0.2198 H       
  34 H34           12.4256     1.6774     0.3293 H       
  35 H35           13.6483     3.8060     0.2207 H       
  36 H36           12.4287     5.9330     0.0261 H       
  37 H37            9.9739     5.9518    -0.0621 H       
  38 H38            2.7720    -2.0749    -1.8974 H       
  39 H39            2.1276    -1.0069    -3.1672 H       
  40 H40            4.0346    -2.3466    -4.0142 H       
  41 H41            4.4288    -0.6109    -4.0018 H       
  42 H42            5.0731    -1.6789    -2.7320 H       
@<TRIPOS>BOND
   1    1    2 ar
   2    1    6 ar
   3    1   28 1
   4    2    3 ar
   5    2   29 1
   6    3    4 ar
   7    3   30 1
   8    4    5 ar
   9    4   25 1
  10    5    6 ar
  11    5    7 1
  12    6   31 1
  13    7    8 ar
  14    7   12 ar
  15    8    9 ar
  16    9   10 ar
  17    9   15 1
  18   10   11 ar
  19   11   12 ar
  20   11   32 1
  21   12   13 1
  22   13   14 3
  23   15   16 1
  24   15   33 1
  25   16   17 1
  26   16   20 2
  27   17   18 1
  28   18   19 ar
  29   18   21 ar
  30   19   20 1
  31   19   24 ar
  32   21   22 ar
  33   21   34 1
  34   22   23 ar
  35   22   35 1
  36   23   24 ar
  37   23   36 1
  38   24   37 1
  39   25   26 1
  40   26   27 1
  41   26   38 1
  42   26   39 1
  43   27   40 1
  44   27   41 1
  45   27   42 1

#	End of record

