#	Name: ASD01208918
#	Creating user name:	WinNT
#	Creation time:	15. 06. 2019 19:10

#	Modifying user name:	WinNT
#	Modification time:	15. 06. 2019 19:10

#	Program:	/corina/corina34_cracker 3.40 0067  02.08.2006

@<TRIPOS>MOLECULE
ASD01208918
  71   75    0    0    0
SMALL
NO_CHARGES


@<TRIPOS>ATOM
   1 C1            -0.6249     1.5513    -0.5831 C.2     
   2 C2            -0.3238     0.1104    -0.4488 C.ar    
   3 C3            -1.3551    -0.8017    -0.2214 C.ar    
   4 C4            -1.0685    -2.1511    -0.0961 C.ar    
   5 C5             0.2422    -2.5962    -0.1960 C.ar    
   6 C6             1.2703    -1.6928    -0.4220 C.ar    
   7 C7             0.9917    -0.3423    -0.5547 C.ar    
   8 O8             0.2749     2.3444    -0.7812 O.2     
   9 N9            -1.8976     1.9852    -0.4915 N.am    
  10 S10           -1.0167     4.5615    -0.8908 S.3     
  11 C11           -2.1805     3.3392    -0.6177 C.2     
  12 N12           -3.3655     3.8601    -0.5459 N.2     
  13 C13           -3.4524     5.1693    -0.6893 C.2     
  14 C14           -2.2854     5.7839    -0.8917 C.2     
  15 C15           -4.7634     5.9100    -0.6292 C.3     
  16 O16            2.5521    -2.1339    -0.5186 O.3     
  17 C17            4.8908    -1.6984    -0.0928 C.3     
  18 C18            3.5730    -1.1408    -0.6344 C.3     
  19 C19            3.7475    -0.7579    -2.1054 C.3     
  20 O20            5.3235    -2.7830    -0.9164 O.3     
  21 C21            6.5523    -3.3785    -0.4952 C.3     
  22 O22           -2.0720    -3.0402     0.1254 O.3     
  23 C23           -2.8446    -3.4056    -0.9301 C.ar    
  24 C24           -2.5288    -2.9594    -2.2072 C.ar    
  25 C25           -3.3103    -3.3281    -3.2808 C.ar    
  26 C26           -4.4206    -4.1515    -3.0836 C.ar    
  27 C27           -4.7345    -4.5983    -1.7985 C.ar    
  28 C28           -3.9453    -4.2293    -0.7307 C.ar    
  29 O29           -6.3561    -5.3344    -4.1877 O.3     
  30 C30           -5.2615    -4.5487    -4.2319 C.2     
  31 N31           -5.0821    -4.2020    -5.4853 N.2     
  32 N32           -6.0053    -4.7316    -6.2082 N.2     
  33 C33           -6.8037    -5.4313    -5.4519 C.2     
  34 C34           -8.0107    -6.2081    -5.9112 C.3     
  35 C35           -9.0101    -5.2551    -6.5698 C.3     
  36 C36          -10.2355    -6.0437    -7.0362 C.3     
  37 C37           -9.8028    -7.1075    -8.0472 C.3     
  38 C38           -8.8034    -8.0604    -7.3887 C.3     
  39 C39           -7.5780    -7.2718    -6.9223 C.3     
  40 H40           -2.3753    -0.4560    -0.1428 H       
  41 H41            0.4624    -3.6488    -0.0972 H       
  42 H42            1.7923     0.3597    -0.7355 H       
  43 H43           -2.6160     1.3520    -0.3374 H       
  44 H44           -2.1434     6.8453    -1.0317 H       
  45 H45           -4.9658     6.2076     0.3997 H       
  46 H46           -4.7087     6.7973    -1.2599 H       
  47 H47           -5.5641     5.2609    -0.9838 H       
  48 H48            5.6472    -0.9135    -0.0987 H       
  49 H49            4.7433    -2.0531     0.9273 H       
  50 H50            3.2886    -0.2587    -0.0607 H       
  51 H51            4.0320    -1.6399    -2.6792 H       
  52 H52            2.8087    -0.3606    -2.4913 H       
  53 H53            4.5262    -0.0003    -2.1937 H       
  54 H54            7.3431    -2.6285    -0.5095 H       
  55 H55            6.4392    -3.7681     0.5165 H       
  56 H56            6.8118    -4.1931    -1.1714 H       
  57 H57           -1.6699    -2.3226    -2.3589 H       
  58 H58           -3.0646    -2.9802    -4.2732 H       
  59 H59           -5.5927    -5.2350    -1.6420 H       
  60 H60           -4.1853    -4.5775     0.2631 H       
  61 H61           -8.4798    -6.6910    -5.0540 H       
  62 H62           -9.3184    -4.4973    -5.8495 H       
  63 H63           -8.5410    -4.7721    -7.4270 H       
  64 H64          -10.7046    -6.5267    -6.1790 H       
  65 H65          -10.9475    -5.3648    -7.5054 H       
  66 H66          -10.6758    -7.6693    -8.3795 H       
  67 H67           -9.3337    -6.6245    -8.9044 H       
  68 H68           -9.2725    -8.5434    -6.5315 H       
  69 H69           -8.4951    -8.8183    -8.1090 H       
  70 H70           -7.1089    -6.7889    -7.7795 H       
  71 H71           -6.8660    -7.9507    -6.4531 H       
@<TRIPOS>BOND
   1    1    2 1
   2    1    8 2
   3    1    9 am
   4    2    3 ar
   5    2    7 ar
   6    3    4 ar
   7    3   40 1
   8    4    5 ar
   9    4   22 1
  10    5    6 ar
  11    5   41 1
  12    6    7 ar
  13    6   16 1
  14    7   42 1
  15    9   11 1
  16    9   43 1
  17   10   11 1
  18   10   14 1
  19   11   12 2
  20   12   13 1
  21   13   14 2
  22   13   15 1
  23   14   44 1
  24   15   45 1
  25   15   46 1
  26   15   47 1
  27   16   18 1
  28   17   18 1
  29   17   20 1
  30   17   48 1
  31   17   49 1
  32   18   19 1
  33   18   50 1
  34   19   51 1
  35   19   52 1
  36   19   53 1
  37   20   21 1
  38   21   54 1
  39   21   55 1
  40   21   56 1
  41   22   23 1
  42   23   24 ar
  43   23   28 ar
  44   24   25 ar
  45   24   57 1
  46   25   26 ar
  47   25   58 1
  48   26   27 ar
  49   26   30 1
  50   27   28 ar
  51   27   59 1
  52   28   60 1
  53   29   30 1
  54   29   33 1
  55   30   31 2
  56   31   32 1
  57   32   33 2
  58   33   34 1
  59   34   35 1
  60   34   39 1
  61   34   61 1
  62   35   36 1
  63   35   62 1
  64   35   63 1
  65   36   37 1
  66   36   64 1
  67   36   65 1
  68   37   38 1
  69   37   66 1
  70   37   67 1
  71   38   39 1
  72   38   68 1
  73   38   69 1
  74   39   70 1
  75   39   71 1

#	End of record

