#	Name: ASD00170503
#	Creating user name:	WinNT
#	Creation time:	15. 06. 2019 18:32

#	Modifying user name:	WinNT
#	Modification time:	15. 06. 2019 18:32

#	Program:	/corina/corina34_cracker 3.40 0067  02.08.2006

@<TRIPOS>MOLECULE
ASD00170503
  54   57    0    0    0
SMALL
NO_CHARGES


@<TRIPOS>ATOM
   1 C1             0.5277     1.1029     1.0122 C.ar    
   2 C2             0.4866    -0.2828     0.9693 C.ar    
   3 C3            -0.7224    -0.9340     0.8227 C.ar    
   4 C4            -1.8972    -0.2010     0.7187 C.ar    
   5 C5            -1.8552     1.1863     0.7622 C.ar    
   6 C6            -0.6458     1.8357     0.9137 C.ar    
   7 N7            -3.1227    -0.8600     0.5697 N.3     
   8 C8            -4.2302     0.1017     0.4794 C.3     
   9 C9            -5.5395    -0.6533     0.2380 C.3     
  10 N10           -5.7616    -1.6065     1.3342 N.3     
  11 C11           -4.6541    -2.5682     1.4245 C.3     
  12 C12           -3.3448    -1.8132     1.6660 C.3     
  13 C13           -7.0481    -2.2982     1.1778 C.3     
  14 C14           -7.1330    -3.4309     2.1682 C.2     
  15 C15           -6.8984    -4.6948     1.8518 C.2     
  16 S16           -7.0890    -5.7366     3.2505 S.3     
  17 C17           -7.4910    -4.4283     4.2662 C.2     
  18 C18           -7.4735    -3.2459     3.5632 C.2     
  19 C19           -7.7754    -1.9443     4.1583 C.2     
  20 O20           -6.8759    -1.2558     4.6054 O.2     
  21 C21           -9.1729    -1.4644     4.2172 C.ar    
  22 C22           -9.4780    -0.2745     4.8805 C.ar    
  23 C23          -10.7830     0.1679     4.9320 C.ar    
  24 C24          -11.7903    -0.5658     4.3274 C.ar    
  25 C25          -11.4938    -1.7472     3.6679 C.ar    
  26 C26          -10.1916    -2.1967     3.6047 C.ar    
  27 Cl27         -13.4310    -0.0029     4.3970 Cl      
  28 N28           -7.7876    -4.5391     5.6095 N.pl3   
  29 O29            1.7188     1.7434     1.1566 O.3     
  30 C30            1.6872     3.1715     1.1929 C.3     
  31 H31            1.4004    -0.8528     1.0502 H       
  32 H32           -0.7542    -2.0130     0.7887 H       
  33 H33           -2.7684     1.7571     0.6814 H       
  34 H34           -0.6129     2.9147     0.9475 H       
  35 H35           -4.3009     0.6636     1.4107 H       
  36 H36           -4.0488     0.7887    -0.3472 H       
  37 H37           -6.3664     0.0558     0.1995 H       
  38 H38           -5.4789    -1.1934    -0.7069 H       
  39 H39           -4.8355    -3.2551     2.2511 H       
  40 H40           -4.5835    -3.1300     0.4932 H       
  41 H41           -2.5179    -2.5223     1.7044 H       
  42 H42           -3.4054    -1.2731     2.6108 H       
  43 H43           -7.8623    -1.5963     1.3578 H       
  44 H44           -7.1269    -2.6942     0.1653 H       
  45 H45           -6.6268    -5.0386     0.8647 H       
  46 H46           -8.6934     0.2983     5.3526 H       
  47 H47          -11.0203     1.0881     5.4452 H       
  48 H48          -12.2833    -2.3151     3.1983 H       
  49 H49           -9.9615    -3.1178     3.0899 H       
  50 H50           -7.8523    -5.4149     6.0212 H       
  51 H51           -7.9314    -3.7411     6.1418 H       
  52 H52            1.2624     3.5494     0.2629 H       
  53 H53            1.0744     3.5002     2.0322 H       
  54 H54            2.7008     3.5545     1.3112 H       
@<TRIPOS>BOND
   1    1    2 ar
   2    1   29 1
   3    1    6 ar
   4    2    3 ar
   5    2   31 1
   6    3    4 ar
   7    3   32 1
   8    4    5 ar
   9    4    7 1
  10    5    6 ar
  11    5   33 1
  12    6   34 1
  13    7    8 1
  14    7   12 1
  15    8    9 1
  16    8   35 1
  17    8   36 1
  18    9   10 1
  19    9   37 1
  20    9   38 1
  21   10   11 1
  22   10   13 1
  23   11   12 1
  24   11   39 1
  25   11   40 1
  26   12   41 1
  27   12   42 1
  28   13   14 1
  29   13   43 1
  30   13   44 1
  31   14   15 2
  32   14   18 1
  33   15   16 1
  34   15   45 1
  35   16   17 1
  36   17   18 2
  37   17   28 1
  38   18   19 1
  39   19   20 2
  40   19   21 1
  41   21   22 ar
  42   21   26 ar
  43   22   23 ar
  44   22   46 1
  45   23   24 ar
  46   23   47 1
  47   24   25 ar
  48   24   27 1
  49   25   26 ar
  50   25   48 1
  51   26   49 1
  52   28   50 1
  53   28   51 1
  54   29   30 1
  55   30   52 1
  56   30   53 1
  57   30   54 1

#	End of record

