#	Name: ASD01901554
#	Creating user name:	WinNT
#	Creation time:	15. 06. 2019 19:53

#	Modifying user name:	WinNT
#	Modification time:	15. 06. 2019 19:53

#	Program:	/corina/corina34_cracker 3.40 0067  02.08.2006

@<TRIPOS>MOLECULE
ASD01901554
  46   51    0    0    0
SMALL
NO_CHARGES


@<TRIPOS>ATOM
   1 C1             0.3646     1.2092    -0.3559 C.3     
   2 N2             0.2960    -0.2513    -0.2646 N.pl3   
   3 N3             0.2698    -1.1319    -1.3511 N.2     
   4 C4             0.2079    -2.3622    -0.9285 C.2     
   5 C5             0.1903    -2.3321     0.5304 C.ar    
   6 C6             0.1319    -3.3165     1.5228 C.ar    
   7 C7             0.1312    -2.9502     2.8378 C.ar    
   8 C8             0.0688    -4.0096     3.9077 C.3     
   9 C9             1.4672    -4.4274     4.2831 C.2     
  10 N10            2.1580    -5.3793     3.7338 N.2     
  11 O11            3.4239    -5.4711     4.3559 O.3     
  12 C12            3.5131    -4.5381     5.3255 C.ar    
  13 C13            4.5095    -4.1927     6.2266 C.ar    
  14 C14            4.2959    -3.1590     7.1252 C.ar    
  15 N15            5.2970    -2.8107     8.0311 N.pl3   
  16 C16            5.4003    -1.4929     8.4861 C.2     
  17 N17            4.6897    -0.4768     8.0747 N.2     
  18 N18            5.0709     0.6831     8.7563 N.pl3   
  19 H19            4.6869     1.5639     8.6237 H       
  20 C20            6.0708     0.3801     9.6397 C.ar    
  21 N21            6.7723     1.0959    10.5106 N.ar    
  22 C22            7.6975     0.5115    11.2458 C.ar    
  23 C23            7.9471    -0.8496    11.1182 C.ar    
  24 N24            7.2617    -1.5763    10.2594 N.ar    
  25 C25            6.3204    -1.0028     9.5147 C.ar    
  26 C26            3.0861    -2.4646     7.1286 C.ar    
  27 C27            2.0975    -2.7943     6.2478 C.ar    
  28 C28            2.2986    -3.8297     5.3304 C.ar    
  29 C29            0.1879    -1.6100     3.1991 C.ar    
  30 C30            0.2455    -0.6305     2.2483 C.ar    
  31 C31            0.2532    -0.9741     0.8989 C.ar    
  32 H32            1.4081     1.5238    -0.3703 H       
  33 H33           -0.1272     1.5396    -1.2708 H       
  34 H34           -0.1361     1.6510     0.5057 H       
  35 H35            0.1754    -3.2468    -1.5472 H       
  36 H36            0.0873    -4.3606     1.2500 H       
  37 H37           -0.4390    -3.6101     4.7855 H       
  38 H38           -0.4799    -4.8733     3.5322 H       
  39 H39            5.4479    -4.7274     6.2284 H       
  40 H40            5.9217    -3.4828     8.3456 H       
  41 H41            8.2668     1.0959    11.9535 H       
  42 H42            8.7084    -1.3147    11.7270 H       
  43 H43            2.9308    -1.6609     7.8331 H       
  44 H44            1.1631    -2.2529     6.2561 H       
  45 H45            0.1860    -1.3389     4.2446 H       
  46 H46            0.2892     0.4076     2.5427 H       
@<TRIPOS>BOND
   1    1    2 1
   2    1   32 1
   3    1   33 1
   4    1   34 1
   5    2   31 1
   6    2    3 1
   7    3    4 2
   8    4    5 1
   9    4   35 1
  10    5   31 ar
  11    5    6 ar
  12    6    7 ar
  13    6   36 1
  14    7    8 1
  15    7   29 ar
  16    8    9 1
  17    8   37 1
  18    8   38 1
  19    9   28 1
  20    9   10 2
  21   10   11 1
  22   11   12 1
  23   12   28 ar
  24   12   13 ar
  25   13   14 ar
  26   13   39 1
  27   14   15 1
  28   14   26 ar
  29   15   16 1
  30   15   40 1
  31   16   25 1
  32   16   17 2
  33   17   18 1
  34   18   19 1
  35   18   20 1
  36   20   25 ar
  37   20   21 ar
  38   21   22 ar
  39   22   23 ar
  40   22   41 1
  41   23   24 ar
  42   23   42 1
  43   24   25 ar
  44   26   27 ar
  45   26   43 1
  46   27   28 ar
  47   27   44 1
  48   29   30 ar
  49   29   45 1
  50   30   31 ar
  51   30   46 1

#	End of record

