#	Name: ASD04880412
#	Creating user name:	WinNT
#	Creation time:	15. 06. 2019 20:53

#	Modifying user name:	WinNT
#	Modification time:	15. 06. 2019 20:53

#	Program:	/corina/corina34_cracker 3.40 0067  02.08.2006

@<TRIPOS>MOLECULE
ASD04880412
  63   67    0    0    0
SMALL
NO_CHARGES


@<TRIPOS>ATOM
   1 C1            -0.0125     1.3686    -0.2499 C.ar    
   2 C2             0.0101    -0.0180    -0.2867 C.ar    
   3 C3             1.2256    -0.6990    -0.2763 C.ar    
   4 C4             2.4131     0.0069    -0.2291 C.ar    
   5 C5             2.3907     1.4036    -0.1920 C.ar    
   6 C6             1.1680     2.0798    -0.2027 C.ar    
   7 C7             3.6539     2.1617    -0.1411 C.2     
   8 N8             4.8330     1.6421    -0.1271 N.2     
   9 N9             5.8660     2.5758    -0.0770 N.am    
  10 C10            5.2848     3.9275    -0.0539 C.3     
  11 C11            3.7659     3.6691    -0.1038 C.3     
  12 O12            1.2436    -2.0583    -0.3120 O.3     
  13 C13            7.1824     2.2880    -0.0530 C.2     
  14 C14            7.1224    -1.4458     0.3493 C.ar    
  15 C15            6.6995    -0.1355     0.2588 C.ar    
  16 C16            7.6300     0.8829     0.0462 C.ar    
  17 C17            8.9850     0.5690    -0.0727 C.ar    
  18 C18            9.3962    -0.7467     0.0206 C.ar    
  19 C19            8.4659    -1.7523     0.2313 C.ar    
  20 O20            8.0019     3.1843    -0.1130 O.2     
  21 C21            3.1642     4.2748    -1.3456 C.ar    
  22 C22            2.1234     5.1800    -1.2353 C.ar    
  23 C23            1.5675     5.7380    -2.3675 C.ar    
  24 C24            2.0581     5.3876    -3.6281 C.ar    
  25 C25            3.1097     4.4732    -3.7315 C.ar    
  26 C26            3.6591     3.9273    -2.5903 C.ar    
  27 O27           -1.1565    -0.7141    -0.3327 O.3     
  28 C28            2.5250    -2.6907    -0.2987 C.3     
  29 C29           -2.3661     0.0467    -0.3404 C.3     
  30 C30            1.4858     5.9624    -4.8082 C.1     
  31 C31            1.0166     6.4337    -5.7756 C.1     
  32 C32            0.4442     7.0085    -6.9557 C.ar    
  33 C33            0.9349     6.6580    -8.2163 C.ar    
  34 C34            0.3787     7.2158    -9.3485 C.ar    
  35 C35           -0.6627     8.1203    -9.2382 C.ar    
  36 C36           -1.1535     8.4725    -7.9932 C.ar    
  37 C37           -0.6115     7.9182    -6.8526 C.ar    
  38 F38           10.7068    -1.0536    -0.0942 F       
  39 H39           -0.9568     1.8925    -0.2627 H       
  40 H40            3.3559    -0.5198    -0.2206 H       
  41 H41            1.1474     3.1592    -0.1744 H       
  42 H42            5.5594     4.4475     0.8640 H       
  43 H43            5.6021     4.4965    -0.9278 H       
  44 H44            3.2831     4.0664     0.7891 H       
  45 H45            6.4031    -2.2335     0.5182 H       
  46 H46            5.6498     0.1015     0.3508 H       
  47 H47            9.7098     1.3524    -0.2376 H       
  48 H48            8.7914    -2.7796     0.3029 H       
  49 H49            1.7452     5.4499    -0.2604 H       
  50 H50            0.7547     6.4438    -2.2800 H       
  51 H51            3.4937     4.1974    -4.7026 H       
  52 H52            4.4745     3.2235    -2.6685 H       
  53 H53            3.0570    -2.4145     0.6117 H       
  54 H54            2.3966    -3.7726    -0.3305 H       
  55 H55            3.0989    -2.3672    -1.1672 H       
  56 H56           -2.4210     0.6509     0.5652 H       
  57 H57           -2.3796     0.6989    -1.2137 H       
  58 H58           -3.2203    -0.6292    -0.3785 H       
  59 H59            1.7478     5.9525    -8.3038 H       
  60 H60            0.7571     6.9462   -10.3234 H       
  61 H61           -1.0944     8.5539   -10.1283 H       
  62 H62           -1.9663     9.1794    -7.9148 H       
  63 H63           -0.9987     8.1903    -5.8818 H       
@<TRIPOS>BOND
   1    1    2 ar
   2    1    6 ar
   3    1   39 1
   4    2    3 ar
   5    2   27 1
   6    3    4 ar
   7    3   12 1
   8    4    5 ar
   9    4   40 1
  10    5    6 ar
  11    5    7 1
  12    6   41 1
  13    7    8 2
  14    7   11 1
  15    8    9 1
  16    9   10 1
  17    9   13 am
  18   10   11 1
  19   10   42 1
  20   10   43 1
  21   11   21 1
  22   11   44 1
  23   12   28 1
  24   13   16 1
  25   13   20 2
  26   14   15 ar
  27   14   19 ar
  28   14   45 1
  29   15   16 ar
  30   15   46 1
  31   16   17 ar
  32   17   18 ar
  33   17   47 1
  34   18   19 ar
  35   18   38 1
  36   19   48 1
  37   21   22 ar
  38   21   26 ar
  39   22   23 ar
  40   22   49 1
  41   23   24 ar
  42   23   50 1
  43   24   25 ar
  44   24   30 1
  45   25   26 ar
  46   25   51 1
  47   26   52 1
  48   27   29 1
  49   28   53 1
  50   28   54 1
  51   28   55 1
  52   29   56 1
  53   29   57 1
  54   29   58 1
  55   30   31 3
  56   31   32 1
  57   32   33 ar
  58   32   37 ar
  59   33   34 ar
  60   33   59 1
  61   34   35 ar
  62   34   60 1
  63   35   36 ar
  64   35   61 1
  65   36   37 ar
  66   36   62 1
  67   37   63 1

#	End of record

