#	Name: ASD01881534
#	Creating user name:	WinNT
#	Creation time:	15. 06. 2019 19:42

#	Modifying user name:	WinNT
#	Modification time:	15. 06. 2019 19:42

#	Program:	/corina/corina34_cracker 3.40 0067  02.08.2006

@<TRIPOS>MOLECULE
ASD01881534
  52   55    0    0    0
SMALL
NO_CHARGES


@<TRIPOS>ATOM
   1 O1            -0.0176     1.4488     0.0100 O.3     
   2 C2             0.0021    -0.0041     0.0020 C.3     
   3 C3             1.4983    -0.3618    -0.0142 C.3     
   4 N4             2.1760     0.9458    -0.0137 N.pl3   
   5 C5             1.2451     1.9289     0.0005 C.2     
   6 C6             3.5109     1.2389    -0.0244 C.2     
   7 C7             3.9099     2.5280    -0.0209 C.2     
   8 C8             2.9177     3.5408    -0.0060 C.2     
   9 N9             1.6250     3.1995     0.0041 N.2     
  10 O10            3.2421     4.7184    -0.0018 O.2     
  11 C11           -0.6906    -0.5420    -1.2517 C.3     
  12 O12           -2.0827    -0.2236    -1.2005 O.3     
  13 C13           -2.8480    -0.6329    -2.2459 C.ar    
  14 C14           -4.2083    -0.3561    -2.2589 C.ar    
  15 C15           -4.9875    -0.7699    -3.3188 C.ar    
  16 C16           -4.4080    -1.4667    -4.3777 C.ar    
  17 C17           -3.0420    -1.7432    -4.3619 C.ar    
  18 C18           -2.2669    -1.3222    -3.3017 C.ar    
  19 C19           -5.2436    -1.9137    -5.5192 C.ar    
  20 C20           -4.8465    -1.6390    -6.8263 C.ar    
  21 C21           -6.4258    -2.6148    -5.2884 C.ar    
  22 C22           -5.6279    -2.0572    -7.8845 C.ar    
  23 C23           -6.8029    -2.7477    -7.6494 C.ar    
  24 C24           -7.1991    -3.0281    -6.3539 C.ar    
  25 C25            5.3745     2.8826    -0.0321 C.3     
  26 C26            5.8277     3.1328    -1.4718 C.3     
  27 C27           -5.2000    -1.7605    -9.2987 C.3     
  28 C28           -3.5666    -0.8863    -7.0840 C.3     
  29 H29           -0.4743    -0.3969     0.9003 H       
  30 H30            1.7650    -0.9310     0.8763 H       
  31 H31            1.7479    -0.9214    -0.9157 H       
  32 H32            4.2418     0.4438    -0.0354 H       
  33 H33           -0.2459    -0.0861    -2.1363 H       
  34 H34           -0.5668    -1.6239    -1.2993 H       
  35 H35           -4.6569     0.1836    -1.4380 H       
  36 H36           -6.0458    -0.5546    -3.3282 H       
  37 H37           -2.5903    -2.2832    -5.1809 H       
  38 H38           -1.2083    -1.5358    -3.2891 H       
  39 H39           -6.7358    -2.8346    -4.2774 H       
  40 H40           -7.4114    -3.0727    -8.4804 H       
  41 H41           -8.1177    -3.5676    -6.1760 H       
  42 H42            5.5349     3.7831     0.5609 H       
  43 H43            5.9506     2.0605     0.3926 H       
  44 H44            5.6674     2.2324    -2.0648 H       
  45 H45            5.2516     3.9549    -1.8965 H       
  46 H46            6.8871     3.3893    -1.4799 H       
  47 H47           -4.5806    -2.5770    -9.6698 H       
  48 H48           -6.0818    -1.6570    -9.9310 H       
  49 H49           -4.6281    -0.8328    -9.3182 H       
  50 H50           -2.7418    -1.5929    -7.1759 H       
  51 H51           -3.6606    -0.3154    -8.0078 H       
  52 H52           -3.3718    -0.2062    -6.2548 H       
@<TRIPOS>BOND
   1    1    2 1
   2    1    5 1
   3    2    3 1
   4    2   11 1
   5    2   29 1
   6    3    4 1
   7    3   30 1
   8    3   31 1
   9    4    5 1
  10    4    6 1
  11    5    9 2
  12    6    7 2
  13    6   32 1
  14    7    8 1
  15    7   25 1
  16    8    9 1
  17    8   10 2
  18   11   12 1
  19   11   33 1
  20   11   34 1
  21   12   13 1
  22   13   14 ar
  23   13   18 ar
  24   14   15 ar
  25   14   35 1
  26   15   16 ar
  27   15   36 1
  28   16   17 ar
  29   16   19 1
  30   17   18 ar
  31   17   37 1
  32   18   38 1
  33   19   20 ar
  34   19   21 ar
  35   20   22 ar
  36   20   28 1
  37   21   24 ar
  38   21   39 1
  39   22   23 ar
  40   22   27 1
  41   23   24 ar
  42   23   40 1
  43   24   41 1
  44   25   26 1
  45   25   42 1
  46   25   43 1
  47   26   44 1
  48   26   45 1
  49   26   46 1
  50   27   47 1
  51   27   48 1
  52   27   49 1
  53   28   50 1
  54   28   51 1
  55   28   52 1

#	End of record

