#	Name: ASD01880190
#	Creating user name:	WinNT
#	Creation time:	15. 06. 2019 19:40

#	Modifying user name:	WinNT
#	Modification time:	15. 06. 2019 19:40

#	Program:	/corina/corina34_cracker 3.40 0067  02.08.2006

@<TRIPOS>MOLECULE
ASD01880190
  47   51    0    0    0
SMALL
NO_CHARGES


@<TRIPOS>ATOM
   1 C1            -0.0184     1.5028     0.0103 C.ar    
   2 C2             0.0021    -0.0041     0.0020 C.3     
   3 N3             0.0219    -0.5011     1.3842 N.3     
   4 C4            -0.1986    -1.9697     1.4251 C.3     
   5 C5            -0.6837    -2.2503     2.8636 C.3     
   6 C6            -1.2825    -0.9153     3.3523 C.3     
   7 C7            -1.1087     0.0597     2.1680 C.3     
   8 C8            -2.1815    -2.1374     3.1545 C.3     
   9 H9            -1.0896    -0.5322     4.3543 H       
  10 H10           -0.0452    -2.8610     3.5018 H       
  11 C11           -2.7105    -2.8341     4.4098 C.3     
  12 O12           -4.1342    -2.7195     4.4540 O.3     
  13 C13           -4.7664    -3.2892     5.5136 C.ar    
  14 C14           -6.1477    -3.2160     5.6200 C.ar    
  15 C15           -6.7880    -3.7959     6.6980 C.ar    
  16 C16           -6.0534    -4.4489     7.6705 C.ar    
  17 C17           -4.6766    -4.5229     7.5669 C.ar    
  18 C18           -4.0321    -3.9500     6.4877 C.ar    
  19 C19            1.1779     2.2162     0.0027 C.ar    
  20 N20            1.1994     3.5271     0.0101 N.ar    
  21 C21            0.0693     4.2404     0.0248 C.ar    
  22 C22           -1.1831     3.5773     0.0327 C.ar    
  23 C23           -1.2103     2.1703     0.0196 C.ar    
  24 C24            0.0983     5.6462     0.0332 C.ar    
  25 C25           -1.0688     6.3455     0.0485 C.ar    
  26 C26           -2.2993     5.6912     0.0567 C.ar    
  27 C27           -2.3676     4.3316     0.0485 C.ar    
  28 H28           -0.8878    -0.3767    -0.5053 H       
  29 H29            0.8920    -0.3525    -0.5222 H       
  30 H30           -0.9619    -2.2597     0.7031 H       
  31 H31            0.7333    -2.4997     1.2280 H       
  32 H32           -0.8621     1.0577     2.5302 H       
  33 H33           -2.0144     0.0872     1.5622 H       
  34 H34           -2.8598    -2.1293     2.3013 H       
  35 H35           -2.4313    -3.8875     4.3856 H       
  36 H36           -2.2806    -2.3645     5.2945 H       
  37 H37           -6.7220    -2.7057     4.8608 H       
  38 H38           -7.8632    -3.7388     6.7815 H       
  39 H39           -6.5558    -4.9016     8.5125 H       
  40 H40           -4.1049    -5.0329     8.3282 H       
  41 H41           -2.9567    -4.0080     6.4072 H       
  42 H42            2.1125     1.6752    -0.0092 H       
  43 H43           -2.1472     1.6332     0.0248 H       
  44 H44            1.0434     6.1688     0.0278 H       
  45 H45           -1.0412     7.4251     0.0549 H       
  46 H46           -3.2107     6.2705     0.0695 H       
  47 H47           -3.3271     3.8359     0.0545 H       
@<TRIPOS>BOND
   1    1    2 1
   2    1   19 ar
   3    1   23 ar
   4    2    3 1
   5    2   28 1
   6    2   29 1
   7    3    4 1
   8    3    7 1
   9    4    5 1
  10    4   30 1
  11    4   31 1
  12    5    6 1
  13    5   10 1
  14    5    8 1
  15    6    7 1
  16    6    9 1
  17    6    8 1
  18    7   32 1
  19    7   33 1
  20    8   11 1
  21    8   34 1
  22   11   12 1
  23   11   35 1
  24   11   36 1
  25   12   13 1
  26   13   14 ar
  27   13   18 ar
  28   14   15 ar
  29   14   37 1
  30   15   16 ar
  31   15   38 1
  32   16   17 ar
  33   16   39 1
  34   17   18 ar
  35   17   40 1
  36   18   41 1
  37   19   20 ar
  38   19   42 1
  39   20   21 ar
  40   21   22 ar
  41   21   24 ar
  42   22   23 ar
  43   22   27 ar
  44   23   43 1
  45   24   25 ar
  46   24   44 1
  47   25   26 ar
  48   25   45 1
  49   26   27 ar
  50   26   46 1
  51   27   47 1

#	End of record

