#	Name: ASD05250004
#	Creating user name:	WinNT
#	Creation time:	15. 06. 2019 20:57

#	Modifying user name:	WinNT
#	Modification time:	15. 06. 2019 20:57

#	Program:	/corina/corina34_cracker 3.40 0067  02.08.2006

@<TRIPOS>MOLECULE
ASD05250004
  57   62    0    0    0
SMALL
NO_CHARGES


@<TRIPOS>ATOM
   1 N1            -0.0141     1.3152    -0.0135 N.ar    
   2 C2            -0.0647     0.1210     0.5509 C.ar    
   3 C3             1.0849    -0.4431     1.1315 C.ar    
   4 N4             2.2252     0.2066     1.1218 N.ar    
   5 C5             2.2965     1.4165     0.5550 C.ar    
   6 C6             3.5041     2.1343     0.5309 C.ar    
   7 C7             3.5479     3.3634    -0.0522 C.ar    
   8 C8             2.4098     3.9260    -0.6287 C.ar    
   9 C9             1.2222     3.2627    -0.6251 C.ar    
  10 C10            1.1366     1.9888    -0.0320 C.ar    
  11 C11           -1.3426    -0.6287     0.5722 C.2     
  12 O12           -1.3943    -1.7270     1.0899 O.2     
  13 N13           -2.4478    -0.0925     0.0175 N.am    
  14 C14           -3.6230    -0.8435    -0.0643 C.ar    
  15 C15           -4.8681    -0.2166     0.0643 C.ar    
  16 C16           -6.0335    -0.9741    -0.0192 C.ar    
  17 C17           -5.9562    -2.3368    -0.2280 C.ar    
  18 C18           -4.7246    -2.9542    -0.3548 C.ar    
  19 C19           -3.5610    -2.2123    -0.2790 C.ar    
  20 S20           -3.8715     4.9759     0.9414 S.3     
  21 C21           -4.3477     3.2962     0.6480 C.2     
  22 N22           -5.7067     3.3054     0.5616 N.pl3   
  23 C23           -6.3015     4.5371     0.7157 C.2     
  24 C24           -5.5339     5.5908     0.9301 C.2     
  25 N25           -3.8997     2.0742     0.4859 N.2     
  26 C26           -4.9456     1.2473     0.2890 C.2     
  27 C27           -6.0805     1.9872     0.3313 C.2     
  28 C28           -7.7998     4.6809     0.6414 C.3     
  29 N29           -8.2091     4.8216    -0.7624 N.3     
  30 C30           -9.6694     4.7265    -0.8972 C.3     
  31 C31          -10.0601     4.9569    -2.3590 C.3     
  32 N32           -9.3899     3.9600    -3.2055 N.3     
  33 C33           -7.9296     4.0551    -3.0706 C.3     
  34 C34           -7.5389     3.8247    -1.6089 C.3     
  35 H35            1.0290    -1.4195     1.5898 H       
  36 H36            4.3943     1.7125     0.9738 H       
  37 H37            4.4783     3.9115    -0.0683 H       
  38 H38            2.4720     4.9031    -1.0846 H       
  39 H39            0.3489     3.7114    -1.0749 H       
  40 H40           -2.4272     0.8148    -0.3250 H       
  41 H41           -6.9969    -0.4962     0.0796 H       
  42 H42           -6.8610    -2.9231    -0.2922 H       
  43 H43           -4.6724    -4.0206    -0.5176 H       
  44 H44           -2.6027    -2.6994    -0.3829 H       
  45 H45           -5.8527     6.6132     1.0699 H       
  46 H46           -7.0887     1.6200     0.2084 H       
  47 H47           -8.2714     3.7968     1.0705 H       
  48 H48           -8.1081     5.5646     1.2001 H       
  49 H49           -9.9997     3.7360    -0.5843 H       
  50 H50          -10.1424     5.4827    -0.2708 H       
  51 H51          -11.1403     4.8581    -2.4665 H       
  52 H52           -9.7540     5.9576    -2.6638 H       
  53 H53           -9.7128     3.0283    -2.9916 H       
  54 H54           -7.4565     3.2989    -3.6970 H       
  55 H55           -7.5993     5.0456    -3.3836 H       
  56 H56           -6.4587     3.9235    -1.5013 H       
  57 H57           -7.8450     2.8240    -1.3040 H       
@<TRIPOS>BOND
   1    1    2 ar
   2    1   10 ar
   3    2    3 ar
   4    2   11 1
   5    3    4 ar
   6    3   35 1
   7    4    5 ar
   8    5    6 ar
   9    5   10 ar
  10    6    7 ar
  11    6   36 1
  12    7    8 ar
  13    7   37 1
  14    8    9 ar
  15    8   38 1
  16    9   10 ar
  17    9   39 1
  18   11   12 2
  19   11   13 am
  20   13   14 1
  21   13   40 1
  22   14   15 ar
  23   14   19 ar
  24   15   16 ar
  25   15   26 1
  26   16   17 ar
  27   16   41 1
  28   17   18 ar
  29   17   42 1
  30   18   19 ar
  31   18   43 1
  32   19   44 1
  33   20   21 1
  34   20   24 1
  35   21   22 1
  36   21   25 2
  37   22   23 1
  38   22   27 1
  39   23   24 2
  40   23   28 1
  41   24   45 1
  42   25   26 1
  43   26   27 2
  44   27   46 1
  45   28   29 1
  46   28   47 1
  47   28   48 1
  48   29   30 1
  49   29   34 1
  50   30   31 1
  51   30   49 1
  52   30   50 1
  53   31   32 1
  54   31   51 1
  55   31   52 1
  56   32   33 1
  57   32   53 1
  58   33   34 1
  59   33   54 1
  60   33   55 1
  61   34   56 1
  62   34   57 1

#	End of record

