#	Name: ASD01120054
#	Creating user name:	WinNT
#	Creation time:	15. 06. 2019 18:58

#	Modifying user name:	WinNT
#	Modification time:	15. 06. 2019 18:58

#	Program:	/corina/corina34_cracker 3.40 0067  02.08.2006

@<TRIPOS>MOLECULE
ASD01120054
  51   54    0    0    0
SMALL
NO_CHARGES


@<TRIPOS>ATOM
   1 C1            -0.0886     1.3622     0.6790 C.ar    
   2 C2            -0.0578    -0.0335     0.5521 C.ar    
   3 C3            -1.1978    -0.7359     0.2293 C.ar    
   4 C4            -2.3990    -0.0458     0.0264 C.ar    
   5 C5            -2.4225     1.3650     0.1564 C.ar    
   6 C6            -1.2510     2.0547     0.4904 C.ar    
   7 N7            -3.5372    -0.6832    -0.2902 N.ar    
   8 C8            -4.6475    -0.0095    -0.4747 C.ar    
   9 N9            -4.7172     1.3075    -0.3640 N.ar    
  10 C10           -3.6513     2.0347    -0.0551 C.ar    
  11 N11           -3.7383     3.4074     0.0566 N.pl3   
  12 C12           -4.9846     4.0398    -0.0343 C.ar    
  13 C13           -5.0737     5.3285    -0.5434 C.ar    
  14 C14           -6.3165     5.9536    -0.6323 C.ar    
  15 C15           -7.4632     5.2802    -0.2090 C.ar    
  16 C16           -7.3641     3.9972     0.2965 C.ar    
  17 C17           -6.1321     3.3755     0.3796 C.ar    
  18 C18           -6.4198     7.3307    -1.1748 C.2     
  19 O19            1.0498     2.0336     0.9989 O.3     
  20 O20            1.1092    -0.7004     0.7491 O.3     
  21 C21            0.9542     3.4548     1.1137 C.3     
  22 C22            2.3246     4.0304     1.4765 C.3     
  23 C23            1.0763    -2.1218     0.6055 C.3     
  24 C24            2.4722    -2.6929     0.8629 C.3     
  25 C25           -7.5910     7.9890    -1.2865 C.2     
  26 S26           -7.2556     9.5770    -1.9719 S.3     
  27 C27           -5.5881     9.2087    -2.0426 C.2     
  28 N28           -5.3684     8.0239    -1.5869 N.2     
  29 C29           -4.5233    10.1415    -2.5594 C.3     
  30 F30           -3.9595     5.9746    -0.9509 F       
  31 F31           -8.6698     5.8820    -0.2928 F       
  32 H32           -1.1653    -1.8111     0.1332 H       
  33 H33           -1.2642     3.1300     0.5905 H       
  34 H34           -5.5450    -0.5539    -0.7288 H       
  35 H35           -2.9363     3.9344     0.1980 H       
  36 H36           -8.2524     3.4774     0.6237 H       
  37 H37           -6.0607     2.3732     0.7754 H       
  38 H38            0.6237     3.8747     0.1637 H       
  39 H39            0.2356     3.7088     1.8929 H       
  40 H40            2.6552     3.6105     2.4265 H       
  41 H41            3.0433     3.7763     0.6973 H       
  42 H42            2.2518     5.1144     1.5641 H       
  43 H43            0.3732    -2.5434     1.3238 H       
  44 H44            0.7599    -2.3776    -0.4057 H       
  45 H45            2.4471    -3.7771     0.7534 H       
  46 H46            3.1754    -2.2713     0.1446 H       
  47 H47            2.7886    -2.4371     1.8741 H       
  48 H48           -8.5626     7.6100    -1.0060 H       
  49 H49           -4.9830    11.0776    -2.8764 H       
  50 H50           -3.8003    10.3414    -1.7685 H       
  51 H51           -4.0164     9.6803    -3.4070 H       
@<TRIPOS>BOND
   1    1    2 ar
   2    1   19 1
   3    1    6 ar
   4    2    3 ar
   5    2   20 1
   6    3    4 ar
   7    3   32 1
   8    4    5 ar
   9    4    7 ar
  10    5    6 ar
  11    5   10 ar
  12    6   33 1
  13    7    8 ar
  14    8    9 ar
  15    8   34 1
  16    9   10 ar
  17   10   11 1
  18   11   12 1
  19   11   35 1
  20   12   13 ar
  21   12   17 ar
  22   13   14 ar
  23   13   30 1
  24   14   15 ar
  25   14   18 1
  26   15   16 ar
  27   15   31 1
  28   16   17 ar
  29   16   36 1
  30   17   37 1
  31   18   25 2
  32   18   28 1
  33   19   21 1
  34   20   23 1
  35   21   22 1
  36   21   38 1
  37   21   39 1
  38   22   40 1
  39   22   41 1
  40   22   42 1
  41   23   24 1
  42   23   43 1
  43   23   44 1
  44   24   45 1
  45   24   46 1
  46   24   47 1
  47   25   26 1
  48   25   48 1
  49   26   27 1
  50   27   28 2
  51   27   29 1
  52   29   49 1
  53   29   50 1
  54   29   51 1

#	End of record

