#	Name: ASD01151068
#	Creating user name:	WinNT
#	Creation time:	15. 06. 2019 19:05

#	Modifying user name:	WinNT
#	Modification time:	15. 06. 2019 19:05

#	Program:	/corina/corina34_cracker 3.40 0067  02.08.2006

@<TRIPOS>MOLECULE
ASD01151068
  53   56    0    0    0
SMALL
NO_CHARGES


@<TRIPOS>ATOM
   1 C1            -0.0067     1.3920     0.0248 C.ar    
   2 C2             0.0081    -0.0006     0.0114 C.ar    
   3 C3             1.2175    -0.6777    -0.0075 C.ar    
   4 C4             2.4127     0.0307    -0.0126 C.ar    
   5 C5             2.4028     1.4123     0.0006 C.ar    
   6 C6             1.2000     2.0992     0.0190 C.ar    
   7 C7            -1.2967     2.1220     0.0388 C.2     
   8 N8            -1.3084     3.4345     0.0514 N.2     
   9 N9            -2.4940     4.1722     0.0644 N.am    
  10 C10           -3.7003     3.5623     0.0648 C.2     
  11 C11           -3.7522     2.1111     0.0512 C.2     
  12 C12           -4.7743     1.0708     0.0466 C.2     
  13 N13           -4.1168    -0.0548     0.0325 N.2     
  14 O14           -2.9156     0.0960     0.0278 O.3     
  15 C15           -2.5530     1.3829     0.0326 C.2     
  16 O16           -4.7271     4.2194     0.0767 O.2     
  17 C17           -2.4292     5.6357     0.0785 C.3     
  18 C18           -1.7033     6.1182    -1.1508 C.ar    
  19 C19           -6.2697     1.2570     0.0560 C.3     
  20 C20           -0.5929     5.4348    -1.6104 C.ar    
  21 C21           -2.1514     7.2408    -1.8218 C.ar    
  22 C22           -1.4863     7.6835    -2.9496 C.ar    
  23 C23           -0.3719     7.0031    -3.4070 C.ar    
  24 C24            0.0730     5.8766    -2.7381 C.ar    
  25 Cl25           0.4640     7.5586    -4.8235 Cl      
  26 N26            1.2347    -2.0787    -0.0209 N.am    
  27 C27            2.1945    -2.7344    -0.7031 C.2     
  28 C28            2.2854    -4.2363    -0.6203 C.3     
  29 O29            2.9851    -2.1155    -1.3837 O.2     
  30 C30           -1.6799     6.1010     1.3288 C.3     
  31 O31            1.1925     3.4581     0.0315 O.3     
  32 C32            2.4621     4.1140     0.0247 C.3     
  33 H33           -0.9206    -0.5518     0.0161 H       
  34 H34            3.3529    -0.5005    -0.0266 H       
  35 H35            3.3349     1.9578    -0.0031 H       
  36 H36           -3.4397     6.0441     0.0875 H       
  37 H37           -6.6355     1.3117    -0.9694 H       
  38 H38           -6.7377     0.4139     0.5642 H       
  39 H39           -6.5176     2.1802     0.5799 H       
  40 H40           -0.2455     4.5558    -1.0879 H       
  41 H41           -3.0215     7.7716    -1.4649 H       
  42 H42           -1.8367     8.5603    -3.4739 H       
  43 H43            0.9406     5.3429    -3.0968 H       
  44 H44            0.5558    -2.5767     0.4608 H       
  45 H45            1.4981    -4.6125     0.0329 H       
  46 H46            2.1661    -4.6630    -1.6162 H       
  47 H47            3.2579    -4.5198    -0.2177 H       
  48 H48           -1.6317     7.1899     1.3392 H       
  49 H49           -2.2050     5.7520     2.2179 H       
  50 H50           -0.6694     5.6926     1.3198 H       
  51 H51            3.0297     3.8162     0.9063 H       
  52 H52            3.0117     3.8324    -0.8735 H       
  53 H53            2.3133     5.1938     0.0360 H       
@<TRIPOS>BOND
   1    1    2 ar
   2    1    6 ar
   3    1    7 1
   4    2    3 ar
   5    2   33 1
   6    3    4 ar
   7    3   26 1
   8    4    5 ar
   9    4   34 1
  10    5    6 ar
  11    5   35 1
  12    6   31 1
  13    7    8 2
  14    7   15 1
  15    8    9 1
  16    9   10 am
  17    9   17 1
  18   10   11 1
  19   10   16 2
  20   11   12 1
  21   11   15 2
  22   12   13 2
  23   12   19 1
  24   13   14 1
  25   14   15 1
  26   17   18 1
  27   17   30 1
  28   17   36 1
  29   18   21 ar
  30   18   20 ar
  31   19   37 1
  32   19   38 1
  33   19   39 1
  34   20   24 ar
  35   20   40 1
  36   21   22 ar
  37   21   41 1
  38   22   23 ar
  39   22   42 1
  40   23   24 ar
  41   23   25 1
  42   24   43 1
  43   26   27 am
  44   26   44 1
  45   27   28 1
  46   27   29 2
  47   28   45 1
  48   28   46 1
  49   28   47 1
  50   30   48 1
  51   30   49 1
  52   30   50 1
  53   31   32 1
  54   32   51 1
  55   32   52 1
  56   32   53 1

#	End of record

