#	Name: ASD07301339
#	Creating user name:	WinNT
#	Creation time:	15. 06. 2019 21:11

#	Modifying user name:	WinNT
#	Modification time:	15. 06. 2019 21:11

#	Program:	/corina/corina34_cracker 3.40 0067  02.08.2006

@<TRIPOS>MOLECULE
ASD07301339
  39   40    0    0    0
SMALL
NO_CHARGES


@<TRIPOS>ATOM
   1 C1            -0.0169     1.4661     0.0598 C.2     
   2 C2             0.0021    -0.0041     0.0009 C.2     
   3 C3             1.2715    -0.6338    -0.0647 C.2     
   4 C4             2.3706     0.1578    -0.0686 C.2     
   5 N5             2.2550     1.5070    -0.0109 N.pl3   
   6 N6             1.1280     2.1149     0.0488 N.2     
   7 O7            -1.0314    -0.6546     0.0087 O.2     
   8 C8             3.4243     2.2748    -0.0175 C.ar    
   9 C9             3.3472     3.6572    -0.1136 C.ar    
  10 C10            4.5101     4.4152    -0.1199 C.ar    
  11 C11            5.7476     3.7875    -0.0299 C.ar    
  12 C12            5.8202     2.4115     0.0656 C.ar    
  13 C13            4.6642     1.6545     0.0779 C.ar    
  14 S14            4.4182     6.1706    -0.2422 S.3     
  15 C15            6.1607     6.6737    -0.2087 C.3     
  16 C16           -1.2981     2.2006     0.1239 C.2     
  17 C17           -1.3009     3.6121     0.1800 C.2     
  18 C18           -2.4728     4.2840     0.2387 C.2     
  19 O19           -2.3516     1.5887     0.1283 O.2     
  20 N20           -2.4755     5.6482     0.2929 N.pl3   
  21 C21           -1.2087     6.3840     0.2876 C.3     
  22 C22           -3.7453     6.3762     0.3564 C.3     
  23 H23            1.3588    -1.7093    -0.1098 H       
  24 H24            3.3514    -0.2917    -0.1178 H       
  25 H25            2.3847     4.1420    -0.1837 H       
  26 H26            6.6528     4.3764    -0.0350 H       
  27 H27            6.7826     1.9264     0.1351 H       
  28 H28            4.7246     0.5791     0.1571 H       
  29 H29            6.2269     7.7594    -0.2797 H       
  30 H30            6.6168     6.3421     0.7241 H       
  31 H31            6.6856     6.2220    -1.0505 H       
  32 H32           -0.3670     4.1546     0.1761 H       
  33 H33           -3.4067     3.7415     0.2426 H       
  34 H34           -0.9226     6.6073    -0.7402 H       
  35 H35           -1.3270     7.3149     0.8422 H       
  36 H36           -0.4342     5.7774     0.7568 H       
  37 H37           -4.0322     6.5160     1.3987 H       
  38 H38           -3.6309     7.3486    -0.1225 H       
  39 H39           -4.5174     5.8056    -0.1596 H       
@<TRIPOS>BOND
   1    1    2 1
   2    1    6 2
   3    1   16 1
   4    2    3 1
   5    2    7 2
   6    3    4 2
   7    3   23 1
   8    4    5 1
   9    4   24 1
  10    5    6 1
  11    5    8 1
  12    8    9 ar
  13    8   13 ar
  14    9   10 ar
  15    9   25 1
  16   10   11 ar
  17   10   14 1
  18   11   12 ar
  19   11   26 1
  20   12   13 ar
  21   12   27 1
  22   13   28 1
  23   14   15 1
  24   15   29 1
  25   15   30 1
  26   15   31 1
  27   16   17 1
  28   16   19 2
  29   17   18 2
  30   17   32 1
  31   18   20 1
  32   18   33 1
  33   20   21 1
  34   20   22 1
  35   21   34 1
  36   21   35 1
  37   21   36 1
  38   22   37 1
  39   22   38 1
  40   22   39 1

#	End of record

