#	Name: ASD01910138
#	Creating user name:	WinNT
#	Creation time:	15. 06. 2019 19:55

#	Modifying user name:	WinNT
#	Modification time:	15. 06. 2019 19:55

#	Program:	/corina/corina34_cracker 3.40 0067  02.08.2006

@<TRIPOS>MOLECULE
ASD01910138
  37   39    0    0    0
SMALL
NO_CHARGES


@<TRIPOS>ATOM
   1 C1            -0.0167     1.3797     0.0096 C.ar    
   2 C2             0.0021    -0.0041     0.0020 C.ar    
   3 C3             1.2058    -0.6867    -0.0131 C.ar    
   4 C4             2.3967     0.0087    -0.0203 C.ar    
   5 C5             2.3859     1.4064    -0.0127 C.ar    
   6 C6             1.1661     2.0888     0.0021 C.ar    
   7 C7             3.6183     2.1356    -0.0195 C.1     
   8 C8             4.6286     2.7335    -0.0252 C.1     
   9 C9             5.8610     3.4627    -0.0321 C.ar    
  10 N10            5.8376     4.7937    -0.0247 N.ar    
  11 C11            6.9452     5.5021    -0.0302 C.ar    
  12 C12            8.1923     4.8722    -0.0445 C.ar    
  13 C13            8.2501     3.4705    -0.0525 C.ar    
  14 C14            7.0755     2.7675    -0.0406 C.ar    
  15 C15            9.4333     5.6715    -0.0516 C.2     
  16 O16           10.5144     5.1154    -0.0640 O.2     
  17 N17            9.3678     7.0177    -0.0442 N.am    
  18 C18           10.5995     7.8109    -0.0512 C.3     
  19 C19           10.2525     9.2774    -0.0408 C.2     
  20 C20           10.0916     9.9961     1.1313 C.2     
  21 C21            9.7861    11.2836     0.9636 C.2     
  22 S22            9.6872    11.6475    -0.7543 S.3     
  23 C23           10.0829     9.9825    -1.1602 C.2     
  24 H24           -0.9600     1.9055     0.0169 H       
  25 H25           -0.9274    -0.5540     0.0083 H       
  26 H26            1.2126    -1.7666    -0.0190 H       
  27 H27            3.3354    -0.5253    -0.0314 H       
  28 H28            1.1499     3.1687     0.0077 H       
  29 H29            6.8905     6.5807    -0.0239 H       
  30 H30            9.2003     2.9573    -0.0639 H       
  31 H31            7.0859     1.6876    -0.0464 H       
  32 H32            8.5053     7.4613    -0.0343 H       
  33 H33           11.1911     7.5712     0.8323 H       
  34 H34           11.1752     7.5801    -0.9476 H       
  35 H35           10.2044     9.5481     2.1075 H       
  36 H36            9.6237    11.9939     1.7608 H       
  37 H37           10.1700     9.5899    -2.1626 H       
@<TRIPOS>BOND
   1    1    2 ar
   2    1    6 ar
   3    1   24 1
   4    2    3 ar
   5    2   25 1
   6    3    4 ar
   7    3   26 1
   8    4    5 ar
   9    4   27 1
  10    5    6 ar
  11    5    7 1
  12    6   28 1
  13    7    8 3
  14    8    9 1
  15    9   10 ar
  16    9   14 ar
  17   10   11 ar
  18   11   12 ar
  19   11   29 1
  20   12   13 ar
  21   12   15 1
  22   13   14 ar
  23   13   30 1
  24   14   31 1
  25   15   16 2
  26   15   17 am
  27   17   18 1
  28   17   32 1
  29   18   19 1
  30   18   33 1
  31   18   34 1
  32   19   20 1
  33   19   23 2
  34   20   21 2
  35   20   35 1
  36   21   22 1
  37   21   36 1
  38   22   23 1
  39   23   37 1

#	End of record

