#	Name: ASD01148884
#	Creating user name:	WinNT
#	Creation time:	15. 06. 2019 19:03

#	Modifying user name:	WinNT
#	Modification time:	15. 06. 2019 19:03

#	Program:	/corina/corina34_cracker 3.40 0067  02.08.2006

@<TRIPOS>MOLECULE
ASD01148884
  39   41    0    0    0
SMALL
NO_CHARGES


@<TRIPOS>ATOM
   1 N1            -0.0011     1.3231     0.2956 N.pl3   
   2 C2             0.0053    -0.0067    -0.0481 C.2     
   3 C3             1.2912    -0.3599    -0.3276 C.2     
   4 C4             2.0886     0.7829    -0.1499 C.2     
   5 C5             1.2786     1.7948     0.2296 C.2     
   6 C6             1.7135     3.2062     0.5292 C.3     
   7 C7            -1.1319     2.0715     0.6487 C.ar    
   8 C8            -1.2787     2.5393     1.9479 C.ar    
   9 C9            -2.3942     3.2766     2.2930 C.ar    
  10 C10           -3.3649     3.5488     1.3462 C.ar    
  11 C11           -3.2218     3.0841     0.0520 C.ar    
  12 C12           -2.1050     2.3517    -0.3009 C.ar    
  13 S13           -2.5814     3.8706     3.9413 S.o2    
  14 O14           -3.9863     4.0012     4.1093 O.2     
  15 O15           -1.8310     2.9574     4.7301 O.2     
  16 C16           -1.7875     5.5016     3.9275 C.3     
  17 C17           -1.1737    -0.8967    -0.1047 C.ar    
  18 C18           -2.3403    -0.5589     0.5832 C.ar    
  19 C19           -3.4372    -1.3933     0.5266 C.ar    
  20 C20           -3.3825    -2.5644    -0.2104 C.ar    
  21 C21           -2.2280    -2.9048    -0.8949 C.ar    
  22 C22           -1.1267    -2.0753    -0.8510 C.ar    
  23 Cl23          -4.7666    -3.6101    -0.2759 Cl      
  24 H24            1.6343    -1.3383    -0.6301 H       
  25 H25            3.1576     0.8419    -0.2914 H       
  26 H26            1.9626     3.2929     1.5868 H       
  27 H27            2.5891     3.4519    -0.0717 H       
  28 H28            0.9033     3.8948     0.2892 H       
  29 H29           -0.5213     2.3264     2.6879 H       
  30 H30           -4.2366     4.1253     1.6185 H       
  31 H31           -3.9817     3.2980    -0.6851 H       
  32 H32           -1.9912     1.9933    -1.3134 H       
  33 H33           -2.2896     6.1439     3.2040 H       
  34 H34           -1.8571     5.9479     4.9195 H       
  35 H35           -0.7389     5.3930     3.6507 H       
  36 H36           -2.3839     0.3538     1.1589 H       
  37 H37           -4.3404    -1.1330     1.0585 H       
  38 H38           -2.1912    -3.8195    -1.4681 H       
  39 H39           -0.2283    -2.3396    -1.3890 H       
@<TRIPOS>BOND
   1    1    2 1
   2    1    5 1
   3    1    7 1
   4    2    3 2
   5    2   17 1
   6    3    4 1
   7    3   24 1
   8    4    5 2
   9    4   25 1
  10    5    6 1
  11    6   26 1
  12    6   27 1
  13    6   28 1
  14    7    8 ar
  15    7   12 ar
  16    8    9 ar
  17    8   29 1
  18    9   10 ar
  19    9   13 1
  20   10   11 ar
  21   10   30 1
  22   11   12 ar
  23   11   31 1
  24   12   32 1
  25   13   14 2
  26   13   15 2
  27   13   16 1
  28   16   33 1
  29   16   34 1
  30   16   35 1
  31   17   18 ar
  32   17   22 ar
  33   18   19 ar
  34   18   36 1
  35   19   20 ar
  36   19   37 1
  37   20   21 ar
  38   20   23 1
  39   21   22 ar
  40   21   38 1
  41   22   39 1

#	End of record

