#	Name: ASD03330309
#	Creating user name:	WinNT
#	Creation time:	15. 06. 2019 20:37

#	Modifying user name:	WinNT
#	Modification time:	15. 06. 2019 20:37

#	Program:	/corina/corina34_cracker 3.40 0067  02.08.2006

@<TRIPOS>MOLECULE
ASD03330309
  69   72    0    0    0
SMALL
NO_CHARGES


@<TRIPOS>ATOM
   1 C1             0.4720     1.1958     0.9836 C.3     
   2 N2             0.1571    -0.2186     0.7314 N.am    
   3 C3             0.6607    -0.8291    -0.5138 C.3     
   4 C4             2.0838    -0.3588    -0.6897 C.2     
   5 N5             2.6568     0.6242     0.0493 N.pl3   
   6 C6             1.9894     1.3590     1.1264 C.3     
   7 C7             3.0160    -0.8009    -1.5717 C.2     
   8 N8             4.1438    -0.0828    -1.3694 N.2     
   9 C9             3.9347     0.7765    -0.3986 C.2     
  10 C10            4.9217     1.7483     0.1215 C.ar    
  11 C11            6.0779     2.0301    -0.6066 C.ar    
  12 C12            2.8325    -1.8704    -2.5688 C.2     
  13 O13            1.7645    -2.4461    -2.6535 O.2     
  14 C14            3.6658    -3.2740    -4.3779 C.3     
  15 N15            3.8482    -2.2107    -3.3867 N.am    
  16 C16            3.0364    -2.6887    -5.6437 C.3     
  17 S17           -0.7355    -1.0996     1.8128 S.o2    
  18 C18            6.9942     2.9377    -0.1163 C.ar    
  19 C19            6.7684     3.5678     1.0944 C.ar    
  20 C20            5.6238     3.2926     1.8212 C.ar    
  21 C21            4.6972     2.3910     1.3393 C.ar    
  22 C22            3.9006    -1.5349    -6.1563 C.3     
  23 C23            2.9464    -3.7748    -6.7176 C.3     
  24 C24            1.6328    -2.1711    -5.3229 C.3     
  25 C25            5.0033    -3.8803    -4.7161 C.2     
  26 O26            6.0248    -3.2854    -4.4448 O.2     
  27 O27           -0.5004    -0.5237     3.0904 O.2     
  28 C28            6.3592    -5.6326    -5.7300 C.3     
  29 N29            5.0643    -5.0837    -5.3200 N.am    
  30 C30           -2.4342    -0.8130     1.4429 C.ar    
  31 O31           -0.4861    -2.4673     1.5190 O.2     
  32 C32           -3.4102    -1.6024     2.0213 C.ar    
  33 C33           -4.7431    -1.3776     1.7309 C.ar    
  34 C34           -5.0996    -0.3630     0.8627 C.ar    
  35 C35           -4.1234     0.4273     0.2848 C.ar    
  36 C36           -2.7912     0.2053     0.5784 C.ar    
  37 N37           -3.0283    -2.6890     2.9511 N.pl3   
  38 O38           -3.8741    -3.4615     3.3652 O.2     
  39 O39           -1.8684    -2.8105     3.3021 O.2     
  40 H40            0.1178     1.8017     0.1496 H       
  41 H41           -0.0168     1.5192     1.9025 H       
  42 H42            0.6353    -1.9157    -0.4322 H       
  43 H43            0.0543    -0.5042    -1.3592 H       
  44 H44            2.2496     2.4155     1.0621 H       
  45 H45            2.3091     0.9625     2.0901 H       
  46 H46            6.2555     1.5387    -1.5517 H       
  47 H47            3.0110    -4.0435    -3.9689 H       
  48 H48            4.7000    -1.7516    -3.3191 H       
  49 H49            7.8898     3.1565    -0.6788 H       
  50 H50            7.4888     4.2772     1.4741 H       
  51 H51            5.4532     3.7877     2.7657 H       
  52 H52            3.8041     2.1770     1.9076 H       
  53 H53            4.9006    -1.9037    -6.3849 H       
  54 H54            3.4522    -1.1180    -7.0581 H       
  55 H55            3.9647    -0.7612    -5.3913 H       
  56 H56            2.3323    -4.5976    -6.3516 H       
  57 H57            2.4963    -3.3583    -7.6187 H       
  58 H58            3.9465    -4.1422    -6.9474 H       
  59 H59            1.6969    -1.3974    -4.5578 H       
  60 H60            1.1844    -1.7542    -6.2247 H       
  61 H61            1.0171    -2.9931    -4.9577 H       
  62 H62            6.8315    -4.9562    -6.4424 H       
  63 H63            7.0000    -5.7442    -4.8553 H       
  64 H64            6.2097    -6.6059    -6.1973 H       
  65 H65            4.2509    -5.5863    -5.4832 H       
  66 H66           -5.5057    -1.9949     2.1823 H       
  67 H67           -6.1408    -0.1878     0.6354 H       
  68 H68           -4.4020     1.2198    -0.3939 H       
  69 H69           -2.0286     0.8226     0.1270 H       
@<TRIPOS>BOND
   1    1    2 1
   2    1    6 1
   3    1   40 1
   4    1   41 1
   5    2    3 1
   6    2   17 am
   7    3    4 1
   8    3   42 1
   9    3   43 1
  10    4    5 1
  11    4    7 2
  12    5    6 1
  13    5    9 1
  14    6   44 1
  15    6   45 1
  16    7    8 1
  17    7   12 1
  18    8    9 2
  19    9   10 1
  20   10   11 ar
  21   10   21 ar
  22   11   18 ar
  23   11   46 1
  24   12   13 2
  25   12   15 am
  26   14   15 1
  27   14   25 1
  28   14   16 1
  29   14   47 1
  30   15   48 1
  31   16   22 1
  32   16   23 1
  33   16   24 1
  34   17   27 2
  35   17   30 1
  36   17   31 2
  37   18   19 ar
  38   18   49 1
  39   19   20 ar
  40   19   50 1
  41   20   21 ar
  42   20   51 1
  43   21   52 1
  44   22   53 1
  45   22   54 1
  46   22   55 1
  47   23   56 1
  48   23   57 1
  49   23   58 1
  50   24   59 1
  51   24   60 1
  52   24   61 1
  53   25   26 2
  54   25   29 am
  55   28   29 1
  56   28   62 1
  57   28   63 1
  58   28   64 1
  59   29   65 1
  60   30   32 ar
  61   30   36 ar
  62   32   33 ar
  63   32   37 1
  64   33   34 ar
  65   33   66 1
  66   34   35 ar
  67   34   67 1
  68   35   36 ar
  69   35   68 1
  70   36   69 1
  71   37   38 2
  72   37   39 2

#	End of record

