#	Name: ASD05872027
#	Creating user name:	WinNT
#	Creation time:	15. 06. 2019 21:04

#	Modifying user name:	WinNT
#	Modification time:	15. 06. 2019 21:04

#	Program:	/corina/corina34_cracker 3.40 0067  02.08.2006

@<TRIPOS>MOLECULE
ASD05872027
  36   36    0    0    0
SMALL
NO_CHARGES


@<TRIPOS>ATOM
   1 Na1            0.0000     0.0000     0.0000 Du      
   2 C2             6.1714    14.6850     8.2083 C.2     
   3 C3             6.1919    13.1781     8.2001 C.3     
   4 C4             7.6411    12.6878     8.1836 C.3     
   5 O5             7.2095    15.3033     8.2018 O.2     
   6 O6             5.0000    15.3402     8.2175 O.3     
   7 O7             7.6841     9.0927     7.4801 O.3     
   8 C8             7.6627    10.3824     7.0996 C.2     
   9 C9             7.6615    11.1810     8.1753 C.2     
  10 C10            7.6847    10.2931     9.3446 C.ar    
  11 C11            7.6980     8.9883     8.8252 C.ar    
  12 C12            7.6946    10.5011    10.7238 C.ar    
  13 C13            7.7176     9.4165    11.5774 C.ar    
  14 C14            7.7308     8.1194    11.0618 C.ar    
  15 C15            7.7212     7.9066     9.6964 C.ar    
  16 O16            7.7278     9.6121    12.9237 O.3     
  17 S17            6.3422     9.6821    13.5496 S.o2    
  18 O18            6.5113    10.2422    14.8814 O.co2   
  19 O19            5.5384    10.5411    12.6941 O.co2   
  20 O20            5.8313     8.3207    13.5909 O.co2   
  21 C21            7.6432    10.8601     5.6705 C.3     
  22 O22            7.7539     7.0566    11.9100 O.3     
  23 C23            7.7665     5.7554    11.3194 C.3     
  24 H24            5.6915    12.8031     9.0929 H       
  25 H25            5.6745    12.8126     7.3130 H       
  26 H26            8.1414    13.0629     7.2908 H       
  27 H27            8.1584    13.0533     9.0706 H       
  28 H28            5.0375    16.3065     8.2225 H       
  29 H29            7.6847    11.5051    11.1217 H       
  30 H30            7.7312     6.8994     9.3067 H       
  31 H31            7.6489    10.0007     5.0000 H       
  32 H32            6.7435    11.4505     5.4969 H       
  33 H33            8.5233    11.4747     5.4808 H       
  34 H34            7.7847     5.0000    12.1050 H       
  35 H35            6.8724     5.6243    10.7099 H       
  36 H36            8.6521     5.6493    10.6928 H       
@<TRIPOS>BOND
   1    2    3 1
   2    2    5 2
   3    2    6 1
   4    3    4 1
   5    3   24 1
   6    3   25 1
   7    4    9 1
   8    4   26 1
   9    4   27 1
  10    6   28 1
  11    7    8 1
  12    7   11 1
  13    8    9 2
  14    8   21 1
  15    9   10 1
  16   10   11 ar
  17   10   12 ar
  18   11   15 ar
  19   12   13 ar
  20   12   29 1
  21   13   14 ar
  22   13   16 1
  23   14   15 ar
  24   14   22 1
  25   15   30 1
  26   16   17 1
  27   17   18 ar
  28   17   19 ar
  29   17   20 ar
  30   21   31 1
  31   21   32 1
  32   21   33 1
  33   22   23 1
  34   23   34 1
  35   23   35 1
  36   23   36 1

#	End of record

