#	Name: ASD02408032
#	Creating user name:	WinNT
#	Creation time:	15. 06. 2019 20:21

#	Modifying user name:	WinNT
#	Modification time:	15. 06. 2019 20:21

#	Program:	/corina/corina34_cracker 3.40 0067  02.08.2006

@<TRIPOS>MOLECULE
ASD02408032
  37   39    0    0    0
SMALL
NO_CHARGES


@<TRIPOS>ATOM
   1 C1            -0.0167     1.3782     0.0096 C.ar    
   2 C2             0.0021    -0.0041     0.0020 C.ar    
   3 C3             1.2782     2.1491     0.0014 C.3     
   4 C4             1.6963     2.4137    -1.4221 C.2     
   5 N5             2.8360     3.0946    -1.6501 N.am    
   6 N6             0.9447     1.9708    -2.3931 N.2     
   7 C7             1.2665     2.1757    -3.6768 C.2     
   8 C8             2.4397     2.8834    -3.9865 C.2     
   9 C9             3.2408     3.3490    -2.9123 C.2     
  10 N10            0.4586     1.6986    -4.6796 N.pl3   
  11 O11            4.2689     3.9684    -3.1243 O.2     
  12 C12           -0.7629     0.9610    -4.3476 C.3     
  13 C13           -1.1852    -0.7116     0.0096 C.ar    
  14 C14           -2.3926    -0.0363     0.0247 C.ar    
  15 C15           -2.4107     1.3471     0.0323 C.ar    
  16 C16           -1.2228     2.0536     0.0190 C.ar    
  17 Cl17          -3.8842    -0.9243     0.0336 Cl      
  18 C18           -1.8363     1.0202    -5.4473 C.3     
  19 C19           -2.1143    -0.4620    -5.1461 C.3     
  20 C20           -0.6679    -0.5474    -4.6310 C.3     
  21 C21            2.8186     3.1233    -5.3465 C.1     
  22 N22            3.1192     3.3135    -6.4253 N.1     
  23 H23            0.9446    -0.5312    -0.0102 H       
  24 H24            1.1401     3.0969     0.5217 H       
  25 H25            2.0505     1.5675     0.5048 H       
  26 H26            3.3695     3.4047    -0.9017 H       
  27 H27            0.6967     1.8500    -5.6076 H       
  28 H28           -1.1428     1.1969    -3.3536 H       
  29 H29           -1.1704    -1.7915     0.0033 H       
  30 H30           -3.3529     1.8749     0.0441 H       
  31 H31           -1.2368     3.1335     0.0249 H       
  32 H32           -2.6712     1.6786    -5.2076 H       
  33 H33           -1.4310     1.1946    -6.4441 H       
  34 H34           -2.8640    -0.6166    -4.3701 H       
  35 H35           -2.2965    -1.0620    -6.0376 H       
  36 H36            0.0568    -0.8016    -5.4046 H       
  37 H37           -0.5596    -1.1546    -3.7322 H       
@<TRIPOS>BOND
   1    1    2 ar
   2    1    3 1
   3    1   16 ar
   4    2   13 ar
   5    2   23 1
   6    3    4 1
   7    3   24 1
   8    3   25 1
   9    4    5 1
  10    4    6 2
  11    5    9 am
  12    5   26 1
  13    6    7 1
  14    7    8 2
  15    7   10 1
  16    8    9 1
  17    8   21 1
  18    9   11 2
  19   10   12 1
  20   10   27 1
  21   12   18 1
  22   12   20 1
  23   12   28 1
  24   13   14 ar
  25   13   29 1
  26   14   15 ar
  27   14   17 1
  28   15   16 ar
  29   15   30 1
  30   16   31 1
  31   18   19 1
  32   18   32 1
  33   18   33 1
  34   19   20 1
  35   19   34 1
  36   19   35 1
  37   20   36 1
  38   20   37 1
  39   21   22 3

#	End of record

