#	Name: ASD08150094
#	Creating user name:	WinNT
#	Creation time:	15. 06. 2019 21:15

#	Modifying user name:	WinNT
#	Modification time:	15. 06. 2019 21:15

#	Program:	/corina/corina34_cracker 3.40 0067  02.08.2006

@<TRIPOS>MOLECULE
ASD08150094
  50   54    0    0    0
SMALL
NO_CHARGES


@<TRIPOS>ATOM
   1 N1            -0.0155     1.2939     0.0092 N.2     
   2 C2             0.0021    -0.0041     0.0020 C.2     
   3 N3             1.1497    -0.7358    -0.0129 N.am    
   4 C4             2.3566    -0.1239    -0.0206 C.2     
   5 C5             2.3716     1.3443    -0.0129 C.ar    
   6 C6             3.5650     2.0675    -0.0195 C.ar    
   7 C7             3.5250     3.4462    -0.0113 C.ar    
   8 C8             2.2984     4.1189     0.0039 C.ar    
   9 C9             1.1096     3.4157     0.0106 C.ar    
  10 C10            1.1307     2.0209     0.0021 C.ar    
  11 O11            3.3909    -0.7664    -0.0331 O.2     
  12 C12           -1.3143    -0.7377     0.0112 C.3     
  13 S13           -2.6719     0.4593     0.0311 S.3     
  14 N14           -5.9168     1.0917     0.0666 N.2     
  15 C15           -7.2140     0.9868     0.0790 C.2     
  16 N16           -7.5748    -0.3278     0.0761 N.pl3   
  17 C17           -6.4214    -1.0707     0.0610 C.ar    
  18 N18           -6.1422    -2.3702     0.0515 N.ar    
  19 C19           -4.8939    -2.7884     0.0367 C.ar    
  20 N20           -3.8679    -1.9576     0.0300 N.ar    
  21 C21           -4.0489    -0.6400     0.0388 C.ar    
  22 C22           -5.3645    -0.1450     0.0550 C.ar    
  23 O23            2.2764     5.4769     0.0127 O.3     
  24 C24            0.9929     6.1048     0.0282 C.3     
  25 O25            4.6851     4.1560    -0.0177 O.3     
  26 C26            5.9029     3.4085    -0.0328 C.3     
  27 C27            1.0808    -2.1350    -0.0197 C.ar    
  28 C28            1.0580    -2.8372     1.1796 C.ar    
  29 C29            0.9894    -4.2174     1.1688 C.ar    
  30 C30            0.9441    -4.8992    -0.0336 C.ar    
  31 C31            0.9671    -4.2032    -1.2279 C.ar    
  32 C32            1.0293    -2.8230    -1.2242 C.ar    
  33 Cl33           1.1160    -1.9815     2.6889 Cl      
  34 H34            4.5135     1.5512    -0.0306 H       
  35 H35            0.1674     3.9436     0.0224 H       
  36 H36           -1.3904    -1.3586    -0.8815 H       
  37 H37           -1.3727    -1.3681     0.8984 H       
  38 H38           -7.9029     1.8185     0.0899 H       
  39 H39           -8.4807    -0.6744     0.0834 H       
  40 H40           -4.7019    -3.8512     0.0297 H       
  41 H41            1.1181     7.1876     0.0339 H       
  42 H42            0.4327     5.8086    -0.8587 H       
  43 H43            0.4487     5.7973     0.9212 H       
  44 H44            6.7501     4.0943    -0.0365 H       
  45 H45            5.9517     2.7755     0.8532 H       
  46 H46            5.9358     2.7856    -0.9267 H       
  47 H47            0.9717    -4.7640     2.1000 H       
  48 H48            0.8909    -5.9779    -0.0396 H       
  49 H49            0.9322    -4.7389    -2.1650 H       
  50 H50            1.0424    -2.2801    -2.1577 H       
@<TRIPOS>BOND
   1    1    2 2
   2    1   10 1
   3    2    3 1
   4    2   12 1
   5    3    4 am
   6    3   27 1
   7    4    5 1
   8    4   11 2
   9    5    6 ar
  10    5   10 ar
  11    6    7 ar
  12    6   34 1
  13    7    8 ar
  14    7   25 1
  15    8    9 ar
  16    8   23 1
  17    9   10 ar
  18    9   35 1
  19   12   13 1
  20   12   36 1
  21   12   37 1
  22   13   21 1
  23   14   15 2
  24   14   22 1
  25   15   16 1
  26   15   38 1
  27   16   17 1
  28   16   39 1
  29   17   18 ar
  30   17   22 ar
  31   18   19 ar
  32   19   20 ar
  33   19   40 1
  34   20   21 ar
  35   21   22 ar
  36   23   24 1
  37   24   41 1
  38   24   42 1
  39   24   43 1
  40   25   26 1
  41   26   44 1
  42   26   45 1
  43   26   46 1
  44   27   28 ar
  45   27   32 ar
  46   28   29 ar
  47   28   33 1
  48   29   30 ar
  49   29   47 1
  50   30   31 ar
  51   30   48 1
  52   31   32 ar
  53   31   49 1
  54   32   50 1

#	End of record

