#	Name: ASD01911173
#	Creating user name:	WinNT
#	Creation time:	15. 06. 2019 19:57

#	Modifying user name:	WinNT
#	Modification time:	15. 06. 2019 19:57

#	Program:	/corina/corina34_cracker 3.40 0067  02.08.2006

@<TRIPOS>MOLECULE
ASD01911173
  39   42    0    0    0
SMALL
NO_CHARGES


@<TRIPOS>ATOM
   1 C1             0.5893     1.0243     0.2956 C.ar    
   2 C2             0.8173    -0.3395     0.3912 C.ar    
   3 C3             2.1079    -0.8331     0.4320 C.ar    
   4 C4             3.1919     0.0291     0.3774 C.ar    
   5 C5             2.9791     1.3949     0.2813 C.ar    
   6 C6             1.6632     1.8982     0.2401 C.ar    
   7 C7             3.8661     2.5749     0.2042 C.2     
   8 N8             3.1032     3.6800     0.1237 N.am    
   9 C9             1.7950     3.3670     0.1389 C.2     
  10 C10            3.6280     5.0447     0.0318 C.3     
  11 C11            3.9553     5.3614    -1.4047 C.ar    
  12 C12            2.9542     5.7857    -2.2683 C.ar    
  13 C13            3.2594     6.0773    -3.5916 C.ar    
  14 C14            4.5569     5.9445    -4.0450 C.ar    
  15 C15            5.5528     5.5209    -3.1822 C.ar    
  16 C16            5.2526     5.2353    -1.8621 C.ar    
  17 N17            1.6403     5.9190    -1.8064 N.am    
  18 C18            0.6137     5.8979    -2.6793 C.2     
  19 C19           -0.7579     6.1540    -2.2091 C.2     
  20 O20            0.8759     4.1586     0.0791 O.2     
  21 O21            5.0803     2.5507     0.2121 O.2     
  22 O22            0.8202     5.6672    -3.8557 O.2     
  23 Cl23           7.1829     5.3545    -3.7557 Cl      
  24 C24           -1.8336     6.1484    -3.0286 C.2     
  25 S25           -3.2320     6.4866    -2.1056 S.3     
  26 C26           -2.3010     6.6159    -0.6799 C.2     
  27 N27           -1.0567     6.4079    -0.9324 N.2     
  28 H28           -0.4212     1.4040     0.2599 H       
  29 H29           -0.0191    -1.0214     0.4344 H       
  30 H30            2.2727    -1.8978     0.5073 H       
  31 H31            4.1980    -0.3621     0.4101 H       
  32 H32            2.8791     5.7473     0.3973 H       
  33 H33            4.5307     5.1283     0.6371 H       
  34 H34            2.4825     6.4072    -4.2654 H       
  35 H35            4.7947     6.1711    -5.0738 H       
  36 H36            6.0315     4.9049    -1.1909 H       
  37 H37            1.4682     6.0265    -0.8578 H       
  38 H38           -1.8124     5.9615    -4.0921 H       
  39 H39           -2.7016     6.8367     0.2984 H       
@<TRIPOS>BOND
   1    1    2 ar
   2    1    6 ar
   3    1   28 1
   4    2    3 ar
   5    2   29 1
   6    3    4 ar
   7    3   30 1
   8    4    5 ar
   9    4   31 1
  10    5    6 ar
  11    5    7 1
  12    6    9 1
  13    7    8 am
  14    7   21 2
  15    8    9 am
  16    8   10 1
  17    9   20 2
  18   10   11 1
  19   10   32 1
  20   10   33 1
  21   11   12 ar
  22   11   16 ar
  23   12   13 ar
  24   12   17 1
  25   13   14 ar
  26   13   34 1
  27   14   15 ar
  28   14   35 1
  29   15   16 ar
  30   15   23 1
  31   16   36 1
  32   17   18 am
  33   17   37 1
  34   18   19 1
  35   18   22 2
  36   19   24 2
  37   19   27 1
  38   24   25 1
  39   24   38 1
  40   25   26 1
  41   26   27 2
  42   26   39 1

#	End of record

