#	Name: ASD06170081
#	Creating user name:	WinNT
#	Creation time:	15. 06. 2019 21:05

#	Modifying user name:	WinNT
#	Modification time:	15. 06. 2019 21:05

#	Program:	/corina/corina34_cracker 3.40 0067  02.08.2006

@<TRIPOS>MOLECULE
ASD06170081
  70   74    0    0    0
SMALL
NO_CHARGES


@<TRIPOS>ATOM
   1 N1             0.1637     0.6573    -1.3453 N.pl3   
   2 N2             0.1699    -0.5551    -0.6492 N.am    
   3 C3             1.4365    -0.8277    -0.2725 C.2     
   4 C4             2.2672     0.2828    -0.7647 C.2     
   5 C5             1.4134     1.1541    -1.4128 C.2     
   6 C6             3.7176     0.4349    -0.5992 C.2     
   7 O7             4.2835     1.4091    -1.0588 O.2     
   8 N8             4.4226    -0.5045     0.0619 N.am    
   9 C9            -0.9493    -1.3519    -0.3870 C.ar    
  10 C10           -1.8431    -1.6534    -1.4064 C.ar    
  11 C11           -2.9473    -2.4404    -1.1442 C.ar    
  12 C12           -3.1637    -2.9276     0.1317 C.ar    
  13 C13           -2.2758    -2.6292     1.1489 C.ar    
  14 C14           -1.1663    -1.8479     0.8920 C.ar    
  15 O15            1.8170    -1.8003     0.3520 O.2     
  16 C16            1.8134     2.4433    -2.0829 C.3     
  17 C17            5.8151    -0.4322     0.1015 C.ar    
  18 C18            6.4472     0.7850    -0.1269 C.ar    
  19 C19            7.8283     0.8455    -0.0848 C.ar    
  20 C20            8.5357    -0.3233     0.1865 C.ar    
  21 C21            7.8382    -1.5006     0.4040 C.ar    
  22 N22            6.5196    -1.5217     0.3614 N.ar    
  23 O23            9.8943    -0.3092     0.2369 O.3     
  24 N24           11.9481    -1.7268    -3.0483 N.ar    
  25 C25           10.6368    -1.7829    -3.0145 C.ar    
  26 C26            9.9116    -1.3155    -1.9251 C.ar    
  27 C27           10.5764    -0.7736    -0.8398 C.ar    
  28 C28           11.9870    -0.7182    -0.8870 C.ar    
  29 C29           12.7315    -0.1831     0.1755 C.ar    
  30 C30           14.0894    -0.1463     0.0959 C.ar    
  31 C31           14.7535    -0.6356    -1.0330 C.ar    
  32 C32           14.0572    -1.1621    -2.0837 C.ar    
  33 C33           12.6545    -1.2153    -2.0330 C.ar    
  34 O34           16.1101    -0.5864    -1.0859 O.3     
  35 C35           16.7833    -0.0246     0.0424 C.3     
  36 O36           12.6318    -2.2242    -4.1842 O.3     
  37 C37           -1.0253     1.2903    -1.9215 C.3     
  38 C38           -1.7020     2.1631    -0.8627 C.3     
  39 C39           -0.7261     3.2437    -0.3927 C.3     
  40 C40           -2.9438     2.8242    -1.4644 C.3     
  41 O41           -2.0859     1.3518     0.2492 O.3     
  42 H42            3.9617    -1.2308     0.5102 H       
  43 H43           -1.6749    -1.2726    -2.4030 H       
  44 H44           -3.6427    -2.6753    -1.9365 H       
  45 H45           -4.0284    -3.5423     0.3343 H       
  46 H46           -2.4479    -3.0110     2.1444 H       
  47 H47           -0.4708    -1.6189     1.6858 H       
  48 H48            1.7563     3.2598    -1.3631 H       
  49 H49            2.8342     2.3578    -2.4552 H       
  50 H50            1.1388     2.6447    -2.9150 H       
  51 H51            5.8670     1.6719    -0.3348 H       
  52 H52            8.3461     1.7772    -0.2586 H       
  53 H53            8.3800    -2.4108     0.6146 H       
  54 H54           10.1073    -2.2039    -3.8564 H       
  55 H55            8.8332    -1.3743    -1.9262 H       
  56 H56           12.2289     0.1980     1.0521 H       
  57 H57           14.6609     0.2662     0.9142 H       
  58 H58           14.5831    -1.5365    -2.9495 H       
  59 H59           16.4581     1.0062     0.1833 H       
  60 H60           16.5459    -0.6055     0.9336 H       
  61 H61           17.8596    -0.0458    -0.1290 H       
  62 H62           -0.7325     1.9091    -2.7696 H       
  63 H63           -1.7205     0.5204    -2.2563 H       
  64 H64           -0.4333     3.8626    -1.2409 H       
  65 H65           -1.2083     3.8656     0.3615 H       
  66 H66            0.1585     2.7728     0.0359 H       
  67 H67           -3.6390     2.0544    -1.7992 H       
  68 H68           -3.4259     3.4460    -0.7101 H       
  69 H69           -2.6510     3.4431    -2.3126 H       
  70 H70           -2.7053     0.6440     0.0244 H       
@<TRIPOS>BOND
   1    1    2 1
   2    1    5 1
   3    1   37 1
   4    2    3 am
   5    2    9 1
   6    3    4 1
   7    3   15 2
   8    4    5 2
   9    4    6 1
  10    5   16 1
  11    6    7 2
  12    6    8 am
  13    8   17 1
  14    8   42 1
  15    9   10 ar
  16    9   14 ar
  17   10   11 ar
  18   10   43 1
  19   11   12 ar
  20   11   44 1
  21   12   13 ar
  22   12   45 1
  23   13   14 ar
  24   13   46 1
  25   14   47 1
  26   16   48 1
  27   16   49 1
  28   16   50 1
  29   17   18 ar
  30   17   22 ar
  31   18   19 ar
  32   18   51 1
  33   19   20 ar
  34   19   52 1
  35   20   21 ar
  36   20   23 1
  37   21   22 ar
  38   21   53 1
  39   23   27 1
  40   24   25 ar
  41   24   33 ar
  42   24   36 1
  43   25   26 ar
  44   25   54 1
  45   26   27 ar
  46   26   55 1
  47   27   28 ar
  48   28   29 ar
  49   28   33 ar
  50   29   30 ar
  51   29   56 1
  52   30   31 ar
  53   30   57 1
  54   31   32 ar
  55   31   34 1
  56   32   33 ar
  57   32   58 1
  58   34   35 1
  59   35   59 1
  60   35   60 1
  61   35   61 1
  62   37   38 1
  63   37   62 1
  64   37   63 1
  65   38   39 1
  66   38   40 1
  67   38   41 1
  68   39   64 1
  69   39   65 1
  70   39   66 1
  71   40   67 1
  72   40   68 1
  73   40   69 1
  74   41   70 1

#	End of record

