#	Name: ASD01140573
#	Creating user name:	WinNT
#	Creation time:	15. 06. 2019 19:01

#	Modifying user name:	WinNT
#	Modification time:	15. 06. 2019 19:01

#	Program:	/corina/corina34_cracker 3.40 0067  02.08.2006

@<TRIPOS>MOLECULE
ASD01140573
  70   75    0    0    0
SMALL
NO_CHARGES


@<TRIPOS>ATOM
   1 C1            -0.2922     1.5122    -0.3489 C.3     
   2 C2            -0.2149    -0.0147    -0.2861 C.3     
   3 C3             0.4430    -0.4384     1.0285 C.3     
   4 C4             1.8536     0.1489     1.1066 C.3     
   5 C5             1.7753     1.6760     1.0429 C.3     
   6 C6             1.1207     2.0961    -0.2757 C.3     
   7 C7             1.9514     1.5643    -1.4444 C.3     
   8 C8             3.1876     2.2605     1.1185 C.3     
   9 C9             4.0201     1.7361    -0.0534 C.3     
  10 C10            3.3672     2.1569    -1.3706 C.3     
  11 C11            2.1252     1.4611    -3.9658 C.3     
  12 C12            1.2703     1.9032    -2.7660 C.3     
  13 C13            3.4724     2.1444    -3.8362 C.3     
  14 C14            4.4980     1.8406    -4.9234 C.3     
  15 C15            4.1475     1.6016    -2.5476 C.3     
  16 C16            5.5803     2.1216    -2.7055 C.3     
  17 C17            5.8733     1.8802    -4.2116 C.3     
  18 C18           -0.3895     0.0766     2.2044 C.3     
  19 H19            1.1807     2.0453     1.8785 H       
  20 H20            3.3147     3.2443    -1.4246 H       
  21 C21            3.2758     3.6572    -3.7192 C.3     
  22 C22            4.4392     2.8891    -6.0044 C.2     
  23 O23            5.1686     3.8501    -5.9537 O.2     
  24 C24            3.4700     2.7382    -7.1485 C.3     
  25 O25            0.5170    -1.8643     1.0861 O.3     
  26 H26            2.0190     0.4794    -1.3634 H       
  27 H27            4.1263     0.5119    -2.5361 H       
  28 H28            1.0687     3.1836    -0.3265 H       
  29 N29            3.6066     3.8787    -8.0578 N.pl3   
  30 N30            2.8973     5.0806    -7.9642 N.2     
  31 C31            4.4540     3.9413    -9.1329 C.ar    
  32 C32            4.2657     5.2053    -9.7245 C.ar    
  33 C33            3.2528     5.8857    -8.9242 C.2     
  34 C34            5.3772     3.0575    -9.6866 C.ar    
  35 C35            6.0888     3.4230   -10.7938 C.ar    
  36 C36            5.9047     4.6700   -11.3787 C.ar    
  37 C37            5.0073     5.5565   -10.8581 C.ar    
  38 H38           -0.7623     1.8142    -1.2848 H       
  39 H39           -0.8820     1.8811     0.4902 H       
  40 H40           -1.2204    -0.4320    -0.3403 H       
  41 H41            0.3771    -0.3833    -1.1239 H       
  42 H42            2.3210    -0.1521     2.0442 H       
  43 H43            2.4473    -0.2196     0.2701 H       
  44 H44            3.1339     3.3480     1.0682 H       
  45 H45            3.6542     1.9628     2.0576 H       
  46 H46            5.0268     2.1505     0.0019 H       
  47 H47            4.0717     0.6484    -0.0045 H       
  48 H48            2.2552     0.3790    -3.9498 H       
  49 H49            1.6438     1.7639    -4.8957 H       
  50 H50            0.3054     1.3980    -2.8099 H       
  51 H51            1.1107     2.9802    -2.8192 H       
  52 H52            4.3194     0.8516    -5.3454 H       
  53 H53            5.6334     3.1840    -2.4677 H       
  54 H54            6.2687     1.5509    -2.0823 H       
  55 H55            6.3907     0.9300    -4.3444 H       
  56 H56            6.4777     2.6948    -4.6104 H       
  57 H57           -1.3943    -0.3423     2.1492 H       
  58 H58            0.0790    -0.2252     3.1411 H       
  59 H59           -0.4464     1.1643     2.1605 H       
  60 H60            2.6286     3.8749    -2.8697 H       
  61 H61            4.2425     4.1389    -3.5724 H       
  62 H62            2.8163     4.0356    -4.6324 H       
  63 H63            3.6854     1.8157    -7.6878 H       
  64 H64            2.4521     2.7029    -6.7602 H       
  65 H65           -0.3427    -2.3049     1.0421 H       
  66 H66            2.8683     6.8803    -9.0959 H       
  67 H67            5.5304     2.0856    -9.2413 H       
  68 H68            6.8036     2.7344   -11.2196 H       
  69 H69            6.4776     4.9403   -12.2534 H       
  70 H70            4.8701     6.5238   -11.3184 H       
@<TRIPOS>BOND
   1    1    2 1
   2    1    6 1
   3    1   38 1
   4    1   39 1
   5    2    3 1
   6    2   40 1
   7    2   41 1
   8    3    4 1
   9    3   18 1
  10    3   25 1
  11    4    5 1
  12    4   42 1
  13    4   43 1
  14    5    6 1
  15    5    8 1
  16    5   19 1
  17    6    7 1
  18    6   28 1
  19    7   10 1
  20    7   26 1
  21    7   12 1
  22    8    9 1
  23    8   44 1
  24    8   45 1
  25    9   10 1
  26    9   46 1
  27    9   47 1
  28   10   15 1
  29   10   20 1
  30   11   12 1
  31   11   13 1
  32   11   48 1
  33   11   49 1
  34   12   50 1
  35   12   51 1
  36   13   15 1
  37   13   21 1
  38   13   14 1
  39   14   17 1
  40   14   22 1
  41   14   52 1
  42   15   16 1
  43   15   27 1
  44   16   17 1
  45   16   53 1
  46   16   54 1
  47   17   55 1
  48   17   56 1
  49   18   57 1
  50   18   58 1
  51   18   59 1
  52   21   60 1
  53   21   61 1
  54   21   62 1
  55   22   23 2
  56   22   24 1
  57   24   29 1
  58   24   63 1
  59   24   64 1
  60   25   65 1
  61   29   31 1
  62   29   30 1
  63   30   33 2
  64   31   34 ar
  65   31   32 ar
  66   32   33 1
  67   32   37 ar
  68   33   66 1
  69   34   35 ar
  70   34   67 1
  71   35   36 ar
  72   35   68 1
  73   36   37 ar
  74   36   69 1
  75   37   70 1

#	End of record

