#	Name: ASD00060034
#	Creating user name:	WinNT
#	Creation time:	15. 06. 2019 18:29

#	Modifying user name:	WinNT
#	Modification time:	15. 06. 2019 18:29

#	Program:	/corina/corina34_cracker 3.40 0067  02.08.2006

@<TRIPOS>MOLECULE
ASD00060034
  45   47    0    0    0
SMALL
NO_CHARGES


@<TRIPOS>ATOM
   1 C1            -0.0167     1.3782     0.0096 C.ar    
   2 C2             0.0021    -0.0041     0.0020 C.ar    
   3 C3             1.2076    -0.6815    -0.0127 C.ar    
   4 C4             2.3963     0.0219    -0.0199 C.ar    
   5 C5             2.3802     1.4093    -0.0127 C.ar    
   6 C6             1.1697     2.0864     0.0021 C.ar    
   7 C7            -1.2934    -0.7740     0.0103 C.3     
   8 C8             1.1485     3.5933     0.0099 C.3     
   9 O9             3.5484     2.1036    -0.0193 O.3     
  10 C10            4.7565     1.3405    -0.0336 C.3     
  11 C11            5.9580     2.2878    -0.0392 C.3     
  12 S12            7.4882     1.3212    -0.0572 S.3     
  13 C13            8.6736     2.6249    -0.0609 C.2     
  14 N14           10.0290     2.4538    -0.0789 N.pl3   
  15 N15            8.3867     3.9037    -0.0524 N.2     
  16 C16           10.6021     3.7151    -0.0754 C.ar    
  17 C17           11.9094     4.1768    -0.0871 C.ar    
  18 C18            9.5356     4.6290    -0.0585 C.ar    
  19 C19            9.8049     6.0001    -0.0546 C.ar    
  20 C20           11.1094     6.4408    -0.0638 C.ar    
  21 C21           12.1587     5.5339    -0.0784 C.ar    
  22 C22           10.7433     1.1748    -0.0978 C.3     
  23 C23           10.9713     0.7479    -1.5250 C.2     
  24 O24           10.5776     1.4409    -2.4331 O.2     
  25 O25           11.6118    -0.4022    -1.7873 O.3     
  26 H26           -0.9595     1.9050     0.0170 H       
  27 H27            1.2196    -1.7614    -0.0183 H       
  28 H28            3.3375    -0.5076    -0.0307 H       
  29 H29           -1.6156    -0.9541    -1.0153 H       
  30 H30           -1.1461    -1.7274     0.5176 H       
  31 H31           -2.0554    -0.1973     0.5346 H       
  32 H32            1.1530     3.9513     1.0394 H       
  33 H33            2.0284     3.9717    -0.5102 H       
  34 H34            0.2487     3.9466    -0.4937 H       
  35 H35            4.7970     0.7076     0.8529 H       
  36 H36            4.7816     0.7166    -0.9270 H       
  37 H37            5.9176     2.9207    -0.9256 H       
  38 H38            5.9329     2.9117     0.8542 H       
  39 H39           12.7309     3.4758    -0.1026 H       
  40 H40            8.9926     6.7118    -0.0449 H       
  41 H41           11.3170     7.5006    -0.0608 H       
  42 H42           13.1774     5.8923    -0.0875 H       
  43 H43           11.7035     1.2874     0.4056 H       
  44 H44           10.1496     0.4195     0.4169 H       
  45 H45           11.7344    -0.6340    -2.7181 H       
@<TRIPOS>BOND
   1    1    2 ar
   2    1    6 ar
   3    1   26 1
   4    2    3 ar
   5    2    7 1
   6    3    4 ar
   7    3   27 1
   8    4    5 ar
   9    4   28 1
  10    5    6 ar
  11    5    9 1
  12    6    8 1
  13    7   29 1
  14    7   30 1
  15    7   31 1
  16    8   32 1
  17    8   33 1
  18    8   34 1
  19    9   10 1
  20   10   11 1
  21   10   35 1
  22   10   36 1
  23   11   12 1
  24   11   37 1
  25   11   38 1
  26   12   13 1
  27   13   15 2
  28   13   14 1
  29   14   16 1
  30   14   22 1
  31   15   18 1
  32   16   18 ar
  33   16   17 ar
  34   17   21 ar
  35   17   39 1
  36   18   19 ar
  37   19   20 ar
  38   19   40 1
  39   20   21 ar
  40   20   41 1
  41   21   42 1
  42   22   23 1
  43   22   43 1
  44   22   44 1
  45   23   24 2
  46   23   25 1
  47   25   45 1

#	End of record

