#	Name: ASD04882210
#	Creating user name:	WinNT
#	Creation time:	15. 06. 2019 20:54

#	Modifying user name:	WinNT
#	Modification time:	15. 06. 2019 20:54

#	Program:	/corina/corina34_cracker 3.40 0067  02.08.2006

@<TRIPOS>MOLECULE
ASD04882210
  76   80    0    0    0
SMALL
NO_CHARGES


@<TRIPOS>ATOM
   1 C1            -0.1618     1.4811     0.4536 C.2     
   2 C2            -0.1422     0.0094     0.4882 C.2     
   3 N3            -1.1637    -0.6908    -0.0434 N.am    
   4 C4            -1.0913    -2.0877    -0.1181 C.ar    
   5 C5            -2.2496    -2.8568     0.0250 C.ar    
   6 C6            -2.1791    -4.2432    -0.0490 C.ar    
   7 C7            -0.9686    -4.8638    -0.2638 C.ar    
   8 C8             0.1935    -4.1007    -0.4078 C.ar    
   9 C9             0.1248    -2.7065    -0.3391 C.ar    
  10 N10           -3.4756    -2.2335     0.2424 N.3     
  11 C11           -3.5001    -1.5610     1.5488 C.3     
  12 C12           -4.5822    -3.1934     0.1266 C.3     
  13 C13           -5.9131    -2.4561     0.2928 C.3     
  14 N14           -5.9377    -1.7836     1.5992 N.3     
  15 C15           -4.8310    -0.8237     1.7151 C.3     
  16 C16           -7.1675    -1.1584     1.8173 C.ar    
  17 C17           -7.9520    -1.5253     2.9031 C.ar    
  18 C18           -7.6062    -0.1641     0.9518 C.ar    
  19 C19           -8.8225     0.4519     1.1702 C.ar    
  20 C20           -9.6037     0.0805     2.2495 C.ar    
  21 C21           -9.1677    -0.9050     3.1158 C.ar    
  22 C22            1.4902    -4.7659    -0.6375 C.2     
  23 N23            1.5547    -6.1102    -0.7087 N.am    
  24 O24            2.5007    -4.1013    -0.7627 O.2     
  25 O25            0.7961    -0.5745     0.9965 O.2     
  26 S26            1.0896     2.5370     1.1016 S.3     
  27 C27            0.1998     3.9112     0.6053 C.2     
  28 C28           -0.9335     3.5088     0.0092 C.2     
  29 N29           -1.1073     2.2155    -0.0675 N.2     
  30 C30           -7.4776    -2.5993     3.8478 C.3     
  31 C31            2.8423    -6.7708    -0.9369 C.3     
  32 C32            2.6383    -8.2866    -0.9745 C.3     
  33 C33            3.9830    -8.9764    -1.2128 C.3     
  34 N34            3.7876   -10.4279    -1.2489 N.am    
  35 C35            3.4932   -11.1938    -2.4657 C.3     
  36 C36            2.9491   -12.5538    -1.9750 C.3     
  37 C37            3.5931   -12.6640    -0.5736 C.3     
  38 C38            3.8607   -11.2300    -0.1727 C.2     
  39 O39            4.0991   -10.8574     0.9565 O.2     
  40 C40            0.6206     5.3443     0.8059 C.3     
  41 H41           -1.9490    -0.2275    -0.3742 H       
  42 H42           -3.0756    -4.8350     0.0627 H       
  43 H43           -0.9172    -5.9411    -0.3208 H       
  44 H44            1.0211    -2.1143    -0.4503 H       
  45 H45           -3.3934    -2.3018     2.3412 H       
  46 H46           -2.6790    -0.8464     1.6055 H       
  47 H47           -4.5500    -3.6691    -0.8537 H       
  48 H48           -4.4878    -3.9528     0.9028 H       
  49 H49           -6.0199    -1.7153    -0.4996 H       
  50 H50           -6.7343    -3.1707     0.2361 H       
  51 H51           -4.8633    -0.3480     2.6953 H       
  52 H52           -4.9255    -0.0643     0.9388 H       
  53 H53           -6.9964     0.1269     0.1092 H       
  54 H54           -9.1642     1.2249     0.4978 H       
  55 H55          -10.5543     0.5644     2.4185 H       
  56 H56           -9.7801    -1.1928     3.9575 H       
  57 H57            0.7486    -6.6404    -0.6089 H       
  58 H58           -1.6543     4.2093    -0.3859 H       
  59 H59           -6.8984    -2.1457     4.6522 H       
  60 H60           -8.3383    -3.1193     4.2684 H       
  61 H61           -6.8529    -3.3096     3.3062 H       
  62 H62            3.2588    -6.4365    -1.8870 H       
  63 H63            3.5291    -6.5165    -0.1296 H       
  64 H64            2.2217    -8.6209    -0.0244 H       
  65 H65            1.9514    -8.5408    -1.7818 H       
  66 H66            4.3995    -8.6422    -2.1630 H       
  67 H67            4.6698    -8.7222    -0.4055 H       
  68 H68            2.7400   -10.6793    -3.0623 H       
  69 H69            4.4024   -11.3396    -3.0489 H       
  70 H70            1.8615   -12.5363    -1.9043 H       
  71 H71            3.2833   -13.3643    -2.6228 H       
  72 H72            2.9043   -13.1366     0.1267 H       
  73 H73            4.5279   -13.2222    -0.6261 H       
  74 H74            1.5827     5.3723     1.3174 H       
  75 H75            0.7096     5.8359    -0.1628 H       
  76 H76           -0.1263     5.8613     1.4084 H       
@<TRIPOS>BOND
   1    1    2 1
   2    1   26 1
   3    1   29 2
   4    2    3 am
   5    2   25 2
   6    3    4 1
   7    3   41 1
   8    4    5 ar
   9    4    9 ar
  10    5    6 ar
  11    5   10 1
  12    6    7 ar
  13    6   42 1
  14    7    8 ar
  15    7   43 1
  16    8    9 ar
  17    8   22 1
  18    9   44 1
  19   10   11 1
  20   10   12 1
  21   11   15 1
  22   11   45 1
  23   11   46 1
  24   12   13 1
  25   12   47 1
  26   12   48 1
  27   13   14 1
  28   13   49 1
  29   13   50 1
  30   14   15 1
  31   14   16 1
  32   15   51 1
  33   15   52 1
  34   16   17 ar
  35   16   18 ar
  36   17   30 1
  37   17   21 ar
  38   18   19 ar
  39   18   53 1
  40   19   20 ar
  41   19   54 1
  42   20   21 ar
  43   20   55 1
  44   21   56 1
  45   22   23 am
  46   22   24 2
  47   23   31 1
  48   23   57 1
  49   26   27 1
  50   27   28 2
  51   27   40 1
  52   28   29 1
  53   28   58 1
  54   30   59 1
  55   30   60 1
  56   30   61 1
  57   31   32 1
  58   31   62 1
  59   31   63 1
  60   32   33 1
  61   32   64 1
  62   32   65 1
  63   33   34 1
  64   33   66 1
  65   33   67 1
  66   34   35 1
  67   34   38 am
  68   35   36 1
  69   35   68 1
  70   35   69 1
  71   36   37 1
  72   36   70 1
  73   36   71 1
  74   37   38 1
  75   37   72 1
  76   37   73 1
  77   38   39 2
  78   40   74 1
  79   40   75 1
  80   40   76 1

#	End of record

