#	Name: ASD01180037
#	Creating user name:	WinNT
#	Creation time:	15. 06. 2019 19:06

#	Modifying user name:	WinNT
#	Modification time:	15. 06. 2019 19:06

#	Program:	/corina/corina34_cracker 3.40 0067  02.08.2006

@<TRIPOS>MOLECULE
ASD01180037
  35   36    0    0    0
SMALL
NO_CHARGES


@<TRIPOS>ATOM
   1 N1             0.0659     1.2377     0.5163 N.ar    
   2 C2             0.0460    -0.0400     0.2231 C.ar    
   3 C3             1.1822    -0.6687    -0.3164 C.ar    
   4 N4             2.2870     0.0184    -0.5359 N.ar    
   5 C5             2.3244     1.3243    -0.2419 C.ar    
   6 C6             3.4858     2.0824    -0.4642 C.ar    
   7 C7             3.4960     3.4095    -0.1560 C.ar    
   8 C8             2.3662     4.0295     0.3790 C.ar    
   9 C9             1.2235     3.3241     0.6077 C.ar    
  10 C10            1.1769     1.9539     0.3015 C.ar    
  11 S11           -1.4180    -0.9782     0.5081 S.o2    
  12 O12           -0.9428    -2.2551     0.9116 O.2     
  13 O13           -2.1860    -0.1702     1.3893 O.2     
  14 C14           -2.2141    -1.0802    -1.1187 C.3     
  15 Cl15           2.4178     5.7226     0.7589 Cl      
  16 Cl16           4.9343     4.3417    -0.4322 Cl      
  17 C17            2.3565    -2.7100    -1.0623 C.3     
  18 N18            1.1414    -2.0216    -0.6197 N.pl3   
  19 C19            3.1624    -3.1578     0.1587 C.3     
  20 C20            1.9739    -3.9335    -1.8976 C.3     
  21 N21            4.6941     1.4418    -1.0306 N.pl3   
  22 O22            4.8559     1.4066    -2.2373 O.2     
  23 O23            5.5266     0.9500    -0.2899 O.2     
  24 H24            0.3565     3.8164     1.0229 H       
  25 H25           -1.5436    -1.5756    -1.8209 H       
  26 H26           -3.1391    -1.6508    -1.0354 H       
  27 H27           -2.4380    -0.0755    -1.4773 H       
  28 H28            2.9589    -2.0316    -1.6664 H       
  29 H29            0.3084    -2.5119    -0.5387 H       
  30 H30            2.5600    -3.8363     0.7628 H       
  31 H31            4.0665    -3.6700    -0.1706 H       
  32 H32            3.4350    -2.2862     0.7538 H       
  33 H33            1.3715    -4.6119    -1.2935 H       
  34 H34            1.3998    -3.6144    -2.7674 H       
  35 H35            2.8780    -4.4457    -2.2269 H       
@<TRIPOS>BOND
   1    1    2 ar
   2    1   10 ar
   3    2    3 ar
   4    2   11 1
   5    3    4 ar
   6    3   18 1
   7    4    5 ar
   8    5    6 ar
   9    5   10 ar
  10    6    7 ar
  11    6   21 1
  12    7    8 ar
  13    7   16 1
  14    8    9 ar
  15    8   15 1
  16    9   10 ar
  17    9   24 1
  18   11   12 2
  19   11   13 2
  20   11   14 1
  21   14   25 1
  22   14   26 1
  23   14   27 1
  24   17   19 1
  25   17   20 1
  26   17   18 1
  27   17   28 1
  28   18   29 1
  29   19   30 1
  30   19   31 1
  31   19   32 1
  32   20   33 1
  33   20   34 1
  34   20   35 1
  35   21   22 2
  36   21   23 2

#	End of record

