#	Name: ASD01903287
#	Creating user name:	WinNT
#	Creation time:	15. 06. 2019 19:54

#	Modifying user name:	WinNT
#	Modification time:	15. 06. 2019 19:54

#	Program:	/corina/corina34_cracker 3.40 0067  02.08.2006

@<TRIPOS>MOLECULE
ASD01903287
  42   45    0    0    0
SMALL
NO_CHARGES


@<TRIPOS>ATOM
   1 C1             0.0316     1.3107     0.0770 C.ar    
   2 C2            -1.0987     1.6194    -0.6625 C.ar    
   3 C3            -1.0980     2.7498    -1.4651 C.ar    
   4 C4             0.0426     3.5361    -1.4984 C.ar    
   5 C5             1.1430     3.1652    -0.7284 C.ar    
   6 N6             1.1011     2.0746     0.0269 N.ar    
   7 C7             2.3700     3.9947    -0.7533 C.2     
   8 O8             2.4139     4.9942    -1.4434 O.2     
   9 N9             3.4376     3.6411    -0.0106 N.am    
  10 C10            4.6295     4.3682    -0.1080 C.ar    
  11 C11            4.5904     5.7427    -0.3032 C.ar    
  12 C12            5.7669     6.4606    -0.3998 C.ar    
  13 C13            6.9890     5.8075    -0.3011 C.ar    
  14 C14            7.0279     4.4328    -0.1053 C.ar    
  15 C15            5.8513     3.7160    -0.0036 C.ar    
  16 N16            8.1845     6.5360    -0.4044 N.am    
  17 C17            8.8330     6.7747    -1.5586 C.2     
  18 C18           10.0437     7.5695    -1.2630 C.ar    
  19 C19           10.0433     7.7682     0.1327 C.ar    
  20 C20            8.8293     7.0923     0.6370 C.2     
  21 O21            8.4824     6.3998    -2.6593 O.2     
  22 O22            8.4768     7.0414     1.7981 O.2     
  23 C23           12.0847     8.8160    -1.4260 C.ar    
  24 C24           12.0847     9.0102    -0.0574 C.ar    
  25 C25           11.0668     8.4891     0.7263 C.ar    
  26 C26           11.0675     8.0965    -2.0337 C.ar    
  27 Cl27           5.7179     8.1785    -0.6450 Cl      
  28 C28           11.0753     7.8880    -3.5262 C.3     
  29 Cl29           8.5551     3.6166     0.0181 Cl      
  30 H30            0.0328     0.4333     0.7067 H       
  31 H31           -1.9716     0.9853    -0.6145 H       
  32 H32           -1.9665     3.0115    -2.0512 H       
  33 H33            0.0782     4.4236    -2.1128 H       
  34 H34            3.3800     2.8827     0.5913 H       
  35 H35            3.6402     6.2504    -0.3800 H       
  36 H36            5.8815     2.6472     0.1486 H       
  37 H37           12.8831     9.2270    -2.0259 H       
  38 H38           12.8830     9.5720     0.4045 H       
  39 H39           11.0715     8.6448     1.7950 H       
  40 H40           10.5381     8.7039    -4.0098 H       
  41 H41           12.1045     7.8677    -3.8847 H       
  42 H42           10.5891     6.9418    -3.7634 H       
@<TRIPOS>BOND
   1    1    2 ar
   2    1    6 ar
   3    1   30 1
   4    2    3 ar
   5    2   31 1
   6    3    4 ar
   7    3   32 1
   8    4    5 ar
   9    4   33 1
  10    5    6 ar
  11    5    7 1
  12    7    8 2
  13    7    9 am
  14    9   10 1
  15    9   34 1
  16   10   11 ar
  17   10   15 ar
  18   11   12 ar
  19   11   35 1
  20   12   27 1
  21   12   13 ar
  22   13   14 ar
  23   13   16 1
  24   14   15 ar
  25   14   29 1
  26   15   36 1
  27   16   17 am
  28   16   20 am
  29   17   18 1
  30   17   21 2
  31   18   19 ar
  32   18   26 ar
  33   19   20 1
  34   19   25 ar
  35   20   22 2
  36   23   24 ar
  37   23   26 ar
  38   23   37 1
  39   24   25 ar
  40   24   38 1
  41   25   39 1
  42   26   28 1
  43   28   40 1
  44   28   41 1
  45   28   42 1

#	End of record

