#	Name: ASD04590274
#	Creating user name:	WinNT
#	Creation time:	15. 06. 2019 20:50

#	Modifying user name:	WinNT
#	Modification time:	15. 06. 2019 20:50

#	Program:	/corina/corina34_cracker 3.40 0067  02.08.2006

@<TRIPOS>MOLECULE
ASD04590274
  39   42    0    0    0
SMALL
NO_CHARGES


@<TRIPOS>ATOM
   1 C1            -0.0167     1.3832     0.0096 C.ar    
   2 C2             0.0021    -0.0041     0.0020 C.ar    
   3 C3             1.1969    -0.6870    -0.0126 C.ar    
   4 C4             2.4020     0.0223    -0.0204 C.ar    
   5 C5             2.3769     1.4283    -0.0131 C.ar    
   6 C6             1.1624     2.0987     0.0022 C.ar    
   7 N7             3.7040    -0.3552    -0.0345 N.2     
   8 C8             4.4709     0.7083    -0.0364 C.2     
   9 N9             3.6969     1.8375    -0.0234 N.pl3   
  10 C10            5.9482     0.6906    -0.0508 C.2     
  11 C11            6.7657    -0.4631    -0.0653 C.2     
  12 C12            8.0580    -0.0539    -0.0759 C.2     
  13 N13            8.0646     1.3050    -0.0686 N.pl3   
  14 N14            6.7360     1.7480    -0.0582 N.2     
  15 N15            6.3189    -1.7943    -0.0681 N.am    
  16 C16            7.2110    -2.8045    -0.0825 C.2     
  17 C17            6.7406    -4.2059    -0.0855 C.ar    
  18 O18            8.4025    -2.5632    -0.0931 O.2     
  19 C19            5.3732    -4.4863    -0.0791 C.ar    
  20 C20            4.9409    -5.7964    -0.0819 C.ar    
  21 C21            5.8594    -6.8312    -0.0909 C.ar    
  22 C22            7.2162    -6.5601    -0.0968 C.ar    
  23 C23            7.6618    -5.2545    -0.1004 C.ar    
  24 C24            5.3798    -8.2598    -0.0939 C.3     
  25 Br25           5.1612    -8.8739    -1.9487 Br      
  26 H26           -0.9614     1.9066     0.0170 H       
  27 H27           -0.9283    -0.5525     0.0080 H       
  28 H28            1.2037    -1.7669    -0.0178 H       
  29 H29            1.1403     3.1784     0.0075 H       
  30 H30            4.0155     2.7537    -0.0215 H       
  31 H31            8.9277    -0.6940    -0.0878 H       
  32 H32            8.8529     1.8702    -0.0729 H       
  33 H33            5.3683    -1.9868    -0.0596 H       
  34 H34            4.6553    -3.6795    -0.0717 H       
  35 H35            3.8833    -6.0148    -0.0766 H       
  36 H36            7.9279    -7.3724    -0.1031 H       
  37 H37            8.7211    -5.0442    -0.1099 H       
  38 H38            6.1107    -8.8895     0.4135 H       
  39 H39            4.4233    -8.3231     0.4250 H       
@<TRIPOS>BOND
   1    1    2 ar
   2    1    6 ar
   3    1   26 1
   4    2    3 ar
   5    2   27 1
   6    3    4 ar
   7    3   28 1
   8    4    5 ar
   9    4    7 1
  10    5    6 ar
  11    5    9 1
  12    6   29 1
  13    7    8 2
  14    8    9 1
  15    8   10 1
  16    9   30 1
  17   10   11 1
  18   10   14 2
  19   11   12 2
  20   11   15 1
  21   12   13 1
  22   12   31 1
  23   13   14 1
  24   13   32 1
  25   15   16 am
  26   15   33 1
  27   16   17 1
  28   16   18 2
  29   17   23 ar
  30   17   19 ar
  31   19   20 ar
  32   19   34 1
  33   20   21 ar
  34   20   35 1
  35   21   22 ar
  36   21   24 1
  37   22   23 ar
  38   22   36 1
  39   23   37 1
  40   24   25 1
  41   24   38 1
  42   24   39 1

#	End of record

