#	Name: ASD01890361
#	Creating user name:	WinNT
#	Creation time:	15. 06. 2019 19:50

#	Modifying user name:	WinNT
#	Modification time:	15. 06. 2019 19:50

#	Program:	/corina/corina34_cracker 3.40 0067  02.08.2006

@<TRIPOS>MOLECULE
ASD01890361
  29   29    0    0    0
SMALL
NO_CHARGES


@<TRIPOS>ATOM
   1 C1            -0.0184     1.5028     0.0103 C.2     
   2 C2             0.0021    -0.0041     0.0020 C.3     
   3 C3             1.4513    -0.4944    -0.0145 C.3     
   4 O4             1.0197     2.1211     0.0037 O.2     
   5 O5            -1.1898     2.1580     0.0194 O.3     
   6 N6             1.4712    -1.9592    -0.0225 N.pl3   
   7 C7             2.6901    -2.6411    -0.0378 C.ar    
   8 C8             2.7107    -4.0300    -0.0455 C.ar    
   9 C9             3.9177    -4.7010    -0.0611 C.ar    
  10 C10            5.1048    -3.9918    -0.0691 C.ar    
  11 C11            5.0879    -2.6091    -0.0615 C.ar    
  12 C12            3.8844    -1.9317    -0.0512 C.ar    
  13 C13           -1.1335     3.6089     0.0270 C.3     
  14 C14           -2.5551     4.1744     0.0369 C.3     
  15 H15           -0.4983    -0.3791     0.8948 H       
  16 H16           -0.5153    -0.3696    -0.8850 H       
  17 H17            1.9516    -0.1193    -0.9073 H       
  18 H18            1.9686    -0.1289     0.8726 H       
  19 H19            0.6378    -2.4556    -0.0172 H       
  20 H20            1.7840    -4.5845    -0.0389 H       
  21 H21            3.9345    -5.7809    -0.0667 H       
  22 H22            6.0473    -4.5190    -0.0809 H       
  23 H23            6.0168    -2.0582    -0.0678 H       
  24 H24            3.8718    -0.8518    -0.0498 H       
  25 H25           -0.6017     3.9472     0.9164 H       
  26 H26           -0.6102     3.9569    -0.8636 H       
  27 H27           -3.0869     3.8361    -0.8525 H       
  28 H28           -3.0784     3.8265     0.9275 H       
  29 H29           -2.5128     5.2636     0.0426 H       
@<TRIPOS>BOND
   1    1    2 1
   2    1    4 2
   3    1    5 1
   4    2    3 1
   5    2   15 1
   6    2   16 1
   7    3    6 1
   8    3   17 1
   9    3   18 1
  10    5   13 1
  11    6    7 1
  12    6   19 1
  13    7    8 ar
  14    7   12 ar
  15    8    9 ar
  16    8   20 1
  17    9   10 ar
  18    9   21 1
  19   10   11 ar
  20   10   22 1
  21   11   12 ar
  22   11   23 1
  23   12   24 1
  24   13   14 1
  25   13   25 1
  26   13   26 1
  27   14   27 1
  28   14   28 1
  29   14   29 1

#	End of record

