#	Name: ASD01890214
#	Creating user name:	WinNT
#	Creation time:	15. 06. 2019 19:50

#	Modifying user name:	WinNT
#	Modification time:	15. 06. 2019 19:50

#	Program:	/corina/corina34_cracker 3.40 0067  02.08.2006

@<TRIPOS>MOLECULE
ASD01890214
  33   34    0    0    0
SMALL
NO_CHARGES


@<TRIPOS>ATOM
   1 C1            -0.0184     1.5028     0.0103 C.2     
   2 C2             0.0021    -0.0041     0.0020 C.3     
   3 C3             1.4513    -0.4944    -0.0145 C.3     
   4 O4             1.0234     2.1233     0.0037 O.2     
   5 C5             1.4717    -2.0012    -0.0227 C.ar    
   6 C6             1.4697    -2.6859    -1.2236 C.ar    
   7 C7             1.4884    -4.0681    -1.2312 C.ar    
   8 C8             1.5096    -4.7656    -0.0379 C.ar    
   9 C9             1.5126    -4.0809     1.1629 C.ar    
  10 C10            1.4982    -2.6987     1.1705 C.ar    
  11 C11            1.5290    -6.2725    -0.0462 C.3     
  12 F12            2.8538    -6.7217    -0.0623 F       
  13 F13            0.8873    -6.7534     1.1002 F       
  14 F14            0.8638    -6.7411    -1.1842 F       
  15 C15           -1.3027     2.2212     0.0203 C.ar    
  16 C16           -1.3259     3.6195     0.0280 C.ar    
  17 C17           -2.5333     4.2853     0.0374 C.ar    
  18 C18           -3.7202     3.5735     0.0397 C.ar    
  19 C19           -3.7057     2.1896     0.0321 C.ar    
  20 C20           -2.5064     1.5092     0.0164 C.ar    
  21 H21           -0.4983    -0.3791     0.8948 H       
  22 H22           -0.5153    -0.3696    -0.8850 H       
  23 H23            1.9516    -0.1193    -0.9073 H       
  24 H24            1.9686    -0.1289     0.8726 H       
  25 H25            1.4531    -2.1409    -2.1559 H       
  26 H26            1.4860    -4.6030    -2.1694 H       
  27 H27            1.5288    -4.6259     2.0952 H       
  28 H28            1.5043    -2.1637     2.1086 H       
  29 H29           -0.4005     4.1764     0.0270 H       
  30 H30           -2.5529     5.3652     0.0434 H       
  31 H31           -4.6628     4.1007     0.0478 H       
  32 H32           -4.6360     1.6411     0.0339 H       
  33 H33           -2.4967     0.4293     0.0055 H       
@<TRIPOS>BOND
   1    1    2 1
   2    1    4 2
   3    1   15 1
   4    2    3 1
   5    2   21 1
   6    2   22 1
   7    3    5 1
   8    3   23 1
   9    3   24 1
  10    5    6 ar
  11    5   10 ar
  12    6    7 ar
  13    6   25 1
  14    7    8 ar
  15    7   26 1
  16    8    9 ar
  17    8   11 1
  18    9   10 ar
  19    9   27 1
  20   10   28 1
  21   11   12 1
  22   11   13 1
  23   11   14 1
  24   15   16 ar
  25   15   20 ar
  26   16   17 ar
  27   16   29 1
  28   17   18 ar
  29   17   30 1
  30   18   19 ar
  31   18   31 1
  32   19   20 ar
  33   19   32 1
  34   20   33 1

#	End of record

