#	Name: ASD00122029
#	Creating user name:	WinNT
#	Creation time:	15. 06. 2019 18:31

#	Modifying user name:	WinNT
#	Modification time:	15. 06. 2019 18:31

#	Program:	/corina/corina34_cracker 3.40 0067  02.08.2006

@<TRIPOS>MOLECULE
ASD00122029
  37   37    0    0    0
SMALL
NO_CHARGES


@<TRIPOS>ATOM
   1 C1            -0.0169     1.3918     0.0097 C.ar    
   2 C2             0.0021    -0.0041     0.0020 C.ar    
   3 C3             1.2205    -0.6853    -0.0133 C.ar    
   4 C4             2.4043     0.0203    -0.0208 C.ar    
   5 C5             2.3851     1.4157    -0.0126 C.ar    
   6 C6             1.1672     2.0969     0.0022 C.ar    
   7 C7             3.6569     2.1734    -0.0202 C.2     
   8 N8             3.6385     3.5210    -0.0124 N.am    
   9 O9             4.7175     1.5802    -0.0335 O.2     
  10 C10            4.8971     4.2708    -0.0199 C.3     
  11 C11            4.6605     5.6584    -0.6194 C.3     
  12 C12            5.4130     4.4156     1.4132 C.3     
  13 C13            5.7676     3.0352     1.9696 C.3     
  14 C14            4.2644     5.5176    -2.0905 C.3     
  15 C15           -1.2687    -0.7612     0.0106 C.2     
  16 O16           -2.3286    -0.1684     0.0243 O.2     
  17 O17           -1.2503    -2.1079     0.0032 O.3     
  18 C18           -2.5349    -2.7848     0.0123 C.3     
  19 H19           -0.9594     1.9191     0.0170 H       
  20 H20            1.2354    -1.7652    -0.0189 H       
  21 H21            3.3469    -0.5067    -0.0326 H       
  22 H22            1.1526     3.1768     0.0085 H       
  23 H23            2.7920     3.9944    -0.0017 H       
  24 H24            5.6345     3.7369    -0.6193 H       
  25 H25            3.8600     6.1582    -0.0739 H       
  26 H26            5.5745     6.2475    -0.5440 H       
  27 H27            6.3007     5.0481     1.4176 H       
  28 H28            4.6402     4.8698     2.0334 H       
  29 H29            6.5404     2.5810     1.3493 H       
  30 H30            6.1351     3.1383     2.9905 H       
  31 H31            4.8799     2.4027     1.9651 H       
  32 H32            5.0649     5.0178    -2.6360 H       
  33 H33            3.3504     4.9285    -2.1660 H       
  34 H34            4.0959     6.5062    -2.5177 H       
  35 H35           -3.0870    -2.5044     0.9093 H       
  36 H36           -3.1046    -2.4948    -0.8705 H       
  37 H37           -2.3773    -3.8633     0.0049 H       
@<TRIPOS>BOND
   1    1    2 ar
   2    1    6 ar
   3    1   19 1
   4    2    3 ar
   5    2   15 1
   6    3    4 ar
   7    3   20 1
   8    4    5 ar
   9    4   21 1
  10    5    6 ar
  11    5    7 1
  12    6   22 1
  13    7    8 am
  14    7    9 2
  15    8   10 1
  16    8   23 1
  17   10   11 1
  18   10   12 1
  19   10   24 1
  20   11   14 1
  21   11   25 1
  22   11   26 1
  23   12   13 1
  24   12   27 1
  25   12   28 1
  26   13   29 1
  27   13   30 1
  28   13   31 1
  29   14   32 1
  30   14   33 1
  31   14   34 1
  32   15   16 2
  33   15   17 1
  34   17   18 1
  35   18   35 1
  36   18   36 1
  37   18   37 1

#	End of record

