#	Name: ASD00450057
#	Creating user name:	WinNT
#	Creation time:	15. 06. 2019 18:36

#	Modifying user name:	WinNT
#	Modification time:	15. 06. 2019 18:36

#	Program:	/corina/corina34_cracker 3.40 0067  02.08.2006

@<TRIPOS>MOLECULE
ASD00450057
  46   48    0    0    0
SMALL
NO_CHARGES


@<TRIPOS>ATOM
   1 C1            -0.7465     1.4502     0.5039 C.ar    
   2 C2            -0.8927     0.0548     0.5381 C.ar    
   3 C3             0.1774    -0.7401     0.9114 C.ar    
   4 C4             1.3909    -0.1634     1.2509 C.ar    
   5 C5             1.5473     1.2120     1.2209 C.ar    
   6 C6             0.4881     2.0265     0.8498 C.ar    
   7 C7            -1.8749     2.3031     0.1031 C.2     
   8 O8            -2.6551     2.7134     0.9415 O.2     
   9 N9            -2.0451     2.6304    -1.1932 N.am    
  10 N10            0.6465     3.4064     0.8198 N.pl3   
  11 C11            1.6414     4.0133     1.5939 C.ar    
  12 C12            2.1241     5.2708     1.2473 C.ar    
  13 C13            2.1450     3.3640     2.7131 C.ar    
  14 C14            3.1269     3.9658     3.4760 C.ar    
  15 C15            3.6094     5.2143     3.1267 C.ar    
  16 C16            3.1071     5.8674     2.0154 C.ar    
  17 F17            2.4285    -0.9487     1.6141 F       
  18 F18            1.6336     5.9083     0.1618 F       
  19 I19            5.0982     6.1219     4.2881 I       
  20 O20           -2.0792    -0.5131     0.2069 O.3     
  21 C21           -2.1459    -1.8698     0.1594 C.ar    
  22 C22           -2.3707    -2.5947     1.3204 C.ar    
  23 C23           -2.4387    -3.9806     1.2678 C.ar    
  24 C24           -1.9950    -2.5304    -1.0517 C.ar    
  25 C25           -2.0636    -3.9100    -1.1019 C.ar    
  26 N26           -2.6654    -4.7150     2.4350 N.am    
  27 C27           -2.2815    -4.6362     0.0528 C.ar    
  28 S28           -3.5391    -6.1204     2.3724 S.o2    
  29 N29           -2.6154    -7.2365     1.5703 N.am    
  30 O30           -3.6532    -6.5818     3.7116 O.2     
  31 O31           -4.6623    -5.8580     1.5424 O.2     
  32 Cl32          -2.5659    -1.7711     2.8361 Cl      
  33 H33            0.0660    -1.8140     0.9384 H       
  34 H34            2.4971     1.6518     1.4873 H       
  35 H35           -1.4231     2.3032    -1.8618 H       
  36 H36           -2.7896     3.1931    -1.4577 H       
  37 H37            0.0674     3.9490     0.2621 H       
  38 H38            1.7691     2.3894     2.9873 H       
  39 H39            3.5183     3.4608     4.3467 H       
  40 H40            3.4829     6.8438     1.7476 H       
  41 H41           -1.8241    -1.9658    -1.9563 H       
  42 H42           -1.9465    -4.4213    -2.0459 H       
  43 H43           -2.3110    -4.4015     3.2817 H       
  44 H44           -2.3342    -5.7141     0.0105 H       
  45 H45           -1.7357    -6.9925     1.2425 H       
  46 H46           -2.9541    -8.1343     1.4283 H       
@<TRIPOS>BOND
   1    1    2 ar
   2    1    6 ar
   3    1    7 1
   4    2    3 ar
   5    2   20 1
   6    3    4 ar
   7    3   33 1
   8    4    5 ar
   9    4   17 1
  10    5    6 ar
  11    5   34 1
  12    6   10 1
  13    7    8 2
  14    7    9 am
  15    9   35 1
  16    9   36 1
  17   10   11 1
  18   10   37 1
  19   11   13 ar
  20   11   12 ar
  21   12   16 ar
  22   12   18 1
  23   13   14 ar
  24   13   38 1
  25   14   15 ar
  26   14   39 1
  27   15   16 ar
  28   15   19 1
  29   16   40 1
  30   20   21 1
  31   21   22 ar
  32   21   24 ar
  33   22   23 ar
  34   22   32 1
  35   23   27 ar
  36   23   26 1
  37   24   25 ar
  38   24   41 1
  39   25   27 ar
  40   25   42 1
  41   26   28 am
  42   26   43 1
  43   27   44 1
  44   28   29 am
  45   28   30 2
  46   28   31 2
  47   29   45 1
  48   29   46 1

#	End of record

