#	Name: ASD05430275
#	Creating user name:	WinNT
#	Creation time:	15. 06. 2019 21:00

#	Modifying user name:	WinNT
#	Modification time:	15. 06. 2019 21:00

#	Program:	/corina/corina34_cracker 3.40 0067  02.08.2006

@<TRIPOS>MOLECULE
ASD05430275
  67   72    0    0    0
SMALL
NO_CHARGES


@<TRIPOS>ATOM
   1 C1             0.0561     1.1832     0.3925 C.ar    
   2 C2             0.0204    -0.0140    -0.3219 C.ar    
   3 C3             1.1705    -0.4960    -0.9340 C.ar    
   4 C4             2.3520     0.2063    -0.8383 C.ar    
   5 C5             2.3953     1.4082    -0.1237 C.ar    
   6 C6             1.2378     1.8934     0.4925 C.ar    
   7 C7             4.8672    -0.0036     0.2181 C.3     
   8 C8             4.8285     1.5000     0.0685 C.2     
   9 C9             3.6566     2.1595    -0.0198 C.2     
  10 C10            6.2180    -0.4423     0.7869 C.3     
  11 C11            6.8648     0.5961     1.7087 C.3     
  12 N12            7.0838     1.8309     0.9540 N.pl3   
  13 C13            6.1096     2.2210     0.0229 C.2     
  14 N14           -1.1786    -0.7327    -0.4222 N.pl3   
  15 N15           -2.4193    -0.3828     0.1352 N.2     
  16 C16           -3.2630    -1.3245    -0.1989 C.2     
  17 N17           -2.6257    -2.2387    -0.9292 N.2     
  18 C18           -1.3719    -1.8938    -1.0774 C.2     
  19 C19           -4.7206    -1.3688     0.1812 C.3     
  20 C20            8.2617     2.6705     1.1654 C.3     
  21 C21            8.7536     3.1837    -0.1928 C.3     
  22 N22            7.6222     3.7260    -0.9488 N.pl3   
  23 N23            6.3513     3.1479    -0.8487 N.2     
  24 C24            7.8977     3.8388     2.0450 C.ar    
  25 C25            8.7766     4.2678     3.0222 C.ar    
  26 C26            7.2297     5.9824     3.6595 C.ar    
  27 C27            6.3532     5.5561     2.6761 C.ar    
  28 C28            6.6878     4.4843     1.8704 C.ar    
  29 C29            8.4437     5.3387     3.8297 C.ar    
  30 F30            6.9039     7.0303     4.4475 F       
  31 C31            7.8231     4.8868    -1.8198 C.3     
  32 C32           -0.9631     2.8867     1.7014 C.3     
  33 O33           -1.0724     1.6545     0.9859 O.3     
  34 C34            6.1747    -1.8415     1.4092 C.3     
  35 S35            7.8969    -2.1149     0.9091 S.o2    
  36 C36            7.1775    -0.9589    -0.2897 C.3     
  37 O37            8.8285    -1.4918     1.7827 O.2     
  38 O38            8.1120    -3.4093     0.3636 O.2     
  39 H39            1.1385    -1.4237    -1.4860 H       
  40 H40            3.2447    -0.1713    -1.3146 H       
  41 H41            1.2667     2.8210     1.0448 H       
  42 H42            4.0713    -0.3202     0.8922 H       
  43 H43            4.7179    -0.4675    -0.7569 H       
  44 H44            3.6429     3.2394    -0.0144 H       
  45 H45            6.2047     0.7965     2.5526 H       
  46 H46            7.8197     0.2166     2.0725 H       
  47 H47           -0.6218    -2.4472    -1.6228 H       
  48 H48           -5.3108    -0.8621    -0.5824 H       
  49 H49           -5.0439    -2.4066     0.2611 H       
  50 H50           -4.8614    -0.8696     1.1399 H       
  51 H51            9.0478     2.0839     1.6407 H       
  52 H52            9.4960     3.9667    -0.0381 H       
  53 H53            9.2029     2.3621    -0.7506 H       
  54 H54            9.7234     3.7655     3.1548 H       
  55 H55            5.4082     6.0606     2.5391 H       
  56 H56            6.0039     4.1511     1.1038 H       
  57 H57            9.1301     5.6732     4.5935 H       
  58 H58            8.0962     4.5482    -2.8192 H       
  59 H59            6.9012     5.4660    -1.8716 H       
  60 H60            8.6214     5.5098    -1.4164 H       
  61 H61           -0.2340     2.7772     2.5042 H       
  62 H62           -0.6390     3.6743     1.0211 H       
  63 H63           -1.9329     3.1484     2.1245 H       
  64 H64            6.0401    -1.8254     2.4907 H       
  65 H65            5.4727    -2.5103     0.9112 H       
  66 H66            6.6679    -1.4583    -1.1137 H       
  67 H67            7.8837    -0.2028    -0.6326 H       
@<TRIPOS>BOND
   1    1    2 ar
   2    1    6 ar
   3    1   33 1
   4    2    3 ar
   5    2   14 1
   6    3    4 ar
   7    3   39 1
   8    4    5 ar
   9    4   40 1
  10    5    6 ar
  11    5    9 1
  12    6   41 1
  13    7    8 1
  14    7   10 1
  15    7   42 1
  16    7   43 1
  17    8    9 2
  18    8   13 1
  19    9   44 1
  20   10   11 1
  21   10   34 1
  22   10   36 1
  23   11   12 1
  24   11   45 1
  25   11   46 1
  26   12   13 1
  27   12   20 1
  28   13   23 2
  29   14   15 1
  30   14   18 1
  31   15   16 2
  32   16   17 1
  33   16   19 1
  34   17   18 2
  35   18   47 1
  36   19   48 1
  37   19   49 1
  38   19   50 1
  39   20   21 1
  40   20   24 1
  41   20   51 1
  42   21   22 1
  43   21   52 1
  44   21   53 1
  45   22   23 1
  46   22   31 1
  47   24   25 ar
  48   24   28 ar
  49   25   29 ar
  50   25   54 1
  51   26   27 ar
  52   26   30 1
  53   26   29 ar
  54   27   28 ar
  55   27   55 1
  56   28   56 1
  57   29   57 1
  58   31   58 1
  59   31   59 1
  60   31   60 1
  61   32   33 1
  62   32   61 1
  63   32   62 1
  64   32   63 1
  65   34   35 1
  66   34   64 1
  67   34   65 1
  68   35   36 1
  69   35   37 2
  70   35   38 2
  71   36   66 1
  72   36   67 1

#	End of record

