#	Name: ASD01882700
#	Creating user name:	WinNT
#	Creation time:	15. 06. 2019 19:45

#	Modifying user name:	WinNT
#	Modification time:	15. 06. 2019 19:45

#	Program:	/corina/corina34_cracker 3.40 0067  02.08.2006

@<TRIPOS>MOLECULE
ASD01882700
  41   44    0    0    0
SMALL
NO_CHARGES


@<TRIPOS>ATOM
   1 C1            -0.0380     1.3039     0.0118 C.2     
   2 N2            -0.0327    -0.0223     0.0119 N.2     
   3 C3             1.1108    -0.7150    -0.0053 C.2     
   4 C4             2.3487    -0.0238    -0.0241 C.2     
   5 C5             2.3304     1.3255    -0.0241 C.2     
   6 N6             1.1328     1.9839    -0.0061 N.pl3   
   7 O7            -1.1135     2.1213     0.0223 O.3     
   8 C8             0.8523     3.4297    -0.0020 C.3     
   9 C9            -0.6840     3.5094     0.0179 C.3     
  10 O10            1.0892    -1.9363    -0.0043 O.2     
  11 C11           -1.1955     4.2240    -1.2345 C.3     
  12 O12           -2.6209     4.3119    -1.1842 O.3     
  13 C13           -3.2389     4.9237    -2.2294 C.ar    
  14 C14           -4.6209     5.0431    -2.2442 C.ar    
  15 C15           -5.2492     5.6643    -3.3054 C.ar    
  16 C16           -4.4974     6.1699    -4.3576 C.ar    
  17 C17           -3.1142     6.0504    -4.3419 C.ar    
  18 C18           -2.4868     5.4333    -3.2778 C.ar    
  19 N19           -5.1343     6.7999    -5.4348 N.am    
  20 C20           -4.4908     7.4156    -6.4417 C.2     
  21 C21           -5.4887     7.9916    -7.4219 C.3     
  22 C22           -6.8255     7.9941    -6.6447 C.3     
  23 C23           -6.5896     6.8671    -5.6122 C.3     
  24 O24           -3.2853     7.4976    -6.5485 O.2     
  25 H25            3.2837    -0.5642    -0.0378 H       
  26 H26            3.2561     1.8816    -0.0378 H       
  27 H27            1.2729     3.8983     0.8877 H       
  28 H28            1.2458     3.8980    -0.9042 H       
  29 H29           -1.0306     4.0187     0.9171 H       
  30 H30           -0.7710     5.2269    -1.2795 H       
  31 H31           -0.8971     3.6631    -2.1203 H       
  32 H32           -5.2056     4.6498    -1.4258 H       
  33 H33           -6.3252     5.7566    -3.3172 H       
  34 H34           -2.5288     6.4435    -5.1600 H       
  35 H35           -1.4106     5.3439    -3.2635 H       
  36 H36           -5.2074     9.0072    -7.7003 H       
  37 H37           -5.5630     7.3592    -8.3066 H       
  38 H38           -6.9883     8.9525    -6.1517 H       
  39 H39           -7.6595     7.7488    -7.3023 H       
  40 H40           -6.9674     5.9181    -5.9926 H       
  41 H41           -7.0737     7.1151    -4.6676 H       
@<TRIPOS>BOND
   1    1    2 2
   2    1    6 1
   3    1    7 1
   4    2    3 1
   5    3    4 1
   6    3   10 2
   7    4    5 2
   8    4   25 1
   9    5    6 1
  10    5   26 1
  11    6    8 1
  12    7    9 1
  13    8    9 1
  14    8   27 1
  15    8   28 1
  16    9   11 1
  17    9   29 1
  18   11   12 1
  19   11   30 1
  20   11   31 1
  21   12   13 1
  22   13   14 ar
  23   13   18 ar
  24   14   15 ar
  25   14   32 1
  26   15   16 ar
  27   15   33 1
  28   16   17 ar
  29   16   19 1
  30   17   18 ar
  31   17   34 1
  32   18   35 1
  33   19   20 am
  34   19   23 1
  35   20   21 1
  36   20   24 2
  37   21   22 1
  38   21   36 1
  39   21   37 1
  40   22   23 1
  41   22   38 1
  42   22   39 1
  43   23   40 1
  44   23   41 1

#	End of record

