#	Name: ASD04910070
#	Creating user name:	WinNT
#	Creation time:	15. 06. 2019 20:55

#	Modifying user name:	WinNT
#	Modification time:	15. 06. 2019 20:55

#	Program:	/corina/corina34_cracker 3.40 0067  02.08.2006

@<TRIPOS>MOLECULE
ASD04910070
  65   65    0    0    0
SMALL
NO_CHARGES


@<TRIPOS>ATOM
   1 C1             1.7991     2.1893     0.2067 C.2     
   2 C2             1.4969     0.7198     0.3492 C.3     
   3 C3             2.7320    -0.0950    -0.0402 C.3     
   4 O4             2.8903     2.5481    -0.1679 O.2     
   5 O5             0.8542     3.0994     0.4906 O.3     
   6 C6             2.0987    -2.2499    -0.9850 C.2     
   7 C7             2.0235    -1.6051    -2.3134 C.ar    
   8 C8             2.1824    -2.3668    -3.4722 C.ar    
   9 C9             2.1106    -1.7591    -4.7086 C.ar    
  10 C10            1.8822    -0.3976    -4.8014 C.ar    
  11 C11            1.7239     0.3631    -3.6567 C.ar    
  12 C12            1.7876    -0.2332    -2.4142 C.ar    
  13 O13            1.8544    -3.4350    -0.8700 O.2     
  14 N14            2.4382    -1.5235     0.0983 N.am    
  15 C15            1.8060     0.2596    -6.1554 C.3     
  16 C16            0.3397     0.4662    -6.5403 C.3     
  17 C17            0.2599     1.0351    -7.9583 C.3     
  18 C18            0.7857    -0.0008    -8.9539 C.3     
  19 C19           -1.1951     1.3706    -8.2921 C.3     
  20 O20            2.4690     1.5247    -6.1088 O.3     
  21 C21            2.5135    -2.1626     1.4144 C.3     
  22 C22            1.5609    -1.4549     2.3802 C.3     
  23 C23            2.1137    -3.6342     1.2905 C.3     
  24 C24            3.9445    -2.0660     1.9472 C.3     
  25 C25            1.2155     4.4966     0.3308 C.3     
  26 C26            1.6137     4.7573    -1.1233 C.3     
  27 C27            0.0199     5.3778     0.6980 C.3     
  28 C28            2.3938     4.8270     1.2492 C.3     
  29 H29            1.2295     0.5025     1.3833 H       
  30 H30            0.6659     0.4547    -0.3043 H       
  31 H31            2.9994     0.1223    -1.0743 H       
  32 H32            3.5631     0.1701     0.6133 H       
  33 H33            2.3614    -3.4295    -3.4010 H       
  34 H34            2.2333    -2.3473    -5.6060 H       
  35 H35            1.5458     1.4254    -3.7360 H       
  36 H36            1.6594     0.3610    -1.5215 H       
  37 H37            2.2899    -0.3771    -6.8961 H       
  38 H38           -0.1840    -0.4890    -6.5021 H       
  39 H39           -0.1244     1.1631    -5.8425 H       
  40 H40            0.8650     1.9396    -8.0215 H       
  41 H41            0.1807    -0.9053    -8.8907 H       
  42 H42            0.7289     0.4045    -9.9641 H       
  43 H43            1.8223    -0.2398    -8.7161 H       
  44 H44           -1.5424     2.1713    -7.6391 H       
  45 H45           -1.2645     1.6931    -9.3310 H       
  46 H46           -1.8150     0.4864    -8.1440 H       
  47 H47            2.0906     2.1437    -5.4695 H       
  48 H48            0.5415    -1.5237     2.0007 H       
  49 H49            1.6170    -1.9303     3.3594 H       
  50 H50            1.8458    -0.4065     2.4685 H       
  51 H51            2.7874    -4.1365     0.5963 H       
  52 H52            2.1774    -4.1116     2.2683 H       
  53 H53            1.0914    -3.7029     0.9186 H       
  54 H54            4.2294    -1.0176     2.0355 H       
  55 H55            4.0005    -2.5414     2.9264 H       
  56 H56            4.6231    -2.5701     1.2591 H       
  57 H57            0.7743     4.5219    -1.7776 H       
  58 H58            1.8849     5.8062    -1.2433 H       
  59 H59            2.4655     4.1295    -1.3849 H       
  60 H60           -0.2637     5.1921     1.7340 H       
  61 H61            0.2911     6.4267     0.5781 H       
  62 H62           -0.8195     5.1424     0.0437 H       
  63 H63            3.2455     4.1992     0.9876 H       
  64 H64            2.6650     5.8759     1.1293 H       
  65 H65            2.1101     4.6413     2.2852 H       
@<TRIPOS>BOND
   1    1    2 1
   2    1    4 2
   3    1    5 1
   4    2    3 1
   5    2   29 1
   6    2   30 1
   7    3   14 1
   8    3   31 1
   9    3   32 1
  10    5   25 1
  11    6    7 1
  12    6   13 2
  13    6   14 am
  14    7    8 ar
  15    7   12 ar
  16    8    9 ar
  17    8   33 1
  18    9   10 ar
  19    9   34 1
  20   10   11 ar
  21   10   15 1
  22   11   12 ar
  23   11   35 1
  24   12   36 1
  25   14   21 1
  26   15   16 1
  27   15   20 1
  28   15   37 1
  29   16   17 1
  30   16   38 1
  31   16   39 1
  32   17   18 1
  33   17   19 1
  34   17   40 1
  35   18   41 1
  36   18   42 1
  37   18   43 1
  38   19   44 1
  39   19   45 1
  40   19   46 1
  41   20   47 1
  42   21   22 1
  43   21   24 1
  44   21   23 1
  45   22   48 1
  46   22   49 1
  47   22   50 1
  48   23   51 1
  49   23   52 1
  50   23   53 1
  51   24   54 1
  52   24   55 1
  53   24   56 1
  54   25   26 1
  55   25   28 1
  56   25   27 1
  57   26   57 1
  58   26   58 1
  59   26   59 1
  60   27   60 1
  61   27   61 1
  62   27   62 1
  63   28   63 1
  64   28   64 1
  65   28   65 1

#	End of record

