#	Name: ASD01913853
#	Creating user name:	WinNT
#	Creation time:	15. 06. 2019 20:02

#	Modifying user name:	WinNT
#	Modification time:	15. 06. 2019 20:02

#	Program:	/corina/corina34_cracker 3.40 0067  02.08.2006

@<TRIPOS>MOLECULE
ASD01913853
  41   43    0    0    0
SMALL
NO_CHARGES


@<TRIPOS>ATOM
   1 C1            -0.0192     1.4278    -0.0132 C.ar    
   2 C2             0.0008    -0.0040    -0.0142 C.1     
   3 C3             0.0171    -1.1779    -0.0150 C.1     
   4 C4             0.0371    -2.6098    -0.0160 C.ar    
   5 C5            -1.1523    -3.3387     0.1334 C.ar    
   6 C6             0.1560    -5.3344    -0.0290 C.ar    
   7 N7             1.2610    -4.6186    -0.1733 N.ar    
   8 C8             1.2401    -3.3019    -0.1716 C.ar    
   9 C9            -1.0817    -4.7173     0.1255 C.ar    
  10 C10            1.1702     2.1462    -0.1626 C.ar    
  11 C11            1.1444     3.5247    -0.1608 C.ar    
  12 C12           -1.2416     3.4912     0.1317 C.ar    
  13 C13           -1.2289     2.1125     0.1315 C.ar    
  14 C14           -0.0578     4.1981    -0.0107 C.ar    
  15 N15            0.2331    -6.7252    -0.0380 N.am    
  16 C16            0.1549    -7.3615    -1.2116 C.2     
  17 O17            0.1740    -8.6989    -1.3225 O.3     
  18 C18            0.6539    -9.4539    -0.1759 C.3     
  19 C19           -0.0190    -8.8891     1.0827 C.3     
  20 C20            0.4016    -7.4226     1.2343 C.3     
  21 C21            0.2874   -10.9303    -0.3394 C.3     
  22 C22            2.1724    -9.3074    -0.0598 C.3     
  23 O23            0.0619    -6.6978    -2.2251 O.2     
  24 F24           -0.0766     5.5489    -0.0092 F       
  25 H25           -2.0995    -2.8337     0.2521 H       
  26 H26            2.1619    -2.7521    -0.2920 H       
  27 H27           -1.9772    -5.3104     0.2384 H       
  28 H28            2.1076     1.6227    -0.2790 H       
  29 H29            2.0629     4.0810    -0.2762 H       
  30 H30           -2.1758     4.0215     0.2431 H       
  31 H31           -2.1520     1.5629     0.2421 H       
  32 H32           -1.1022    -8.9557     0.9811 H       
  33 H33            0.3038    -9.4547     1.9568 H       
  34 H34            1.4455    -7.3756     1.5445 H       
  35 H35           -0.2211    -6.9436     1.9899 H       
  36 H36            0.7479   -11.3207    -1.2469 H       
  37 H37            0.6490   -11.4919     0.5220 H       
  38 H38           -0.7957   -11.0302    -0.4096 H       
  39 H39            2.4272    -8.2554     0.0684 H       
  40 H40            2.5274    -9.8747     0.8006 H       
  41 H41            2.6445    -9.6878    -0.9656 H       
@<TRIPOS>BOND
   1    1    2 1
   2    1   10 ar
   3    1   13 ar
   4    2    3 3
   5    3    4 1
   6    4    5 ar
   7    4    8 ar
   8    5    9 ar
   9    5   25 1
  10    6    7 ar
  11    6   15 1
  12    6    9 ar
  13    7    8 ar
  14    8   26 1
  15    9   27 1
  16   10   11 ar
  17   10   28 1
  18   11   14 ar
  19   11   29 1
  20   12   13 ar
  21   12   14 ar
  22   12   30 1
  23   13   31 1
  24   14   24 1
  25   15   16 am
  26   15   20 1
  27   16   17 1
  28   16   23 2
  29   17   18 1
  30   18   19 1
  31   18   21 1
  32   18   22 1
  33   19   20 1
  34   19   32 1
  35   19   33 1
  36   20   34 1
  37   20   35 1
  38   21   36 1
  39   21   37 1
  40   21   38 1
  41   22   39 1
  42   22   40 1
  43   22   41 1

#	End of record

