#	Name: ASD01911798
#	Creating user name:	WinNT
#	Creation time:	15. 06. 2019 19:58

#	Modifying user name:	WinNT
#	Modification time:	15. 06. 2019 19:58

#	Program:	/corina/corina34_cracker 3.40 0067  02.08.2006

@<TRIPOS>MOLECULE
ASD01911798
  38   40    0    0    0
SMALL
NO_CHARGES


@<TRIPOS>ATOM
   1 C1            -0.3831     1.5498     0.1082 C.2     
   2 N2            -0.3635     0.2313     0.5170 N.pl3   
   3 C3             1.5084     1.9345     1.5094 C.2     
   4 N4             1.4779     0.6458     1.8698 N.2     
   5 C5             0.5879    -0.1825     1.4029 C.2     
   6 C6            -1.3898    -0.4087    -0.1157 C.2     
   7 C7            -2.0238     0.5380    -0.9067 C.2     
   8 N8            -1.3731     1.7176    -0.7422 N.2     
   9 N9            -1.7314    -1.7441     0.0078 N.pl3   
  10 C10           -1.0171    -2.7169    -0.6990 C.ar    
  11 C11           -1.3942    -4.0539    -0.6197 C.ar    
  12 C12            0.0661    -2.3500    -1.4860 C.ar    
  13 C13            0.7696    -3.3132    -2.1836 C.ar    
  14 C14            0.3962    -4.6421    -2.0995 C.ar    
  15 C15           -0.6858    -5.0122    -1.3203 C.ar    
  16 F16           -2.4505    -4.4151     0.1412 F       
  17 I17            1.4662    -6.0974    -3.1608 I       
  18 C18           -3.1868     0.3045    -1.7713 C.2     
  19 N19           -3.7063     1.3190    -2.4905 N.am    
  20 O20           -3.6819    -0.8052    -1.8387 O.2     
  21 O21           -4.8282     1.0938    -3.3246 O.3     
  22 C22           -5.2726     2.2559    -4.0274 C.3     
  23 C23           -6.4825     1.8972    -4.8925 C.3     
  24 O24           -7.5754     1.5232    -4.0512 O.3     
  25 C25            0.5970     2.4286     0.6316 C.2     
  26 Cl26           0.6328     4.0993     0.1614 Cl      
  27 H27            2.2639     2.5875     1.9207 H       
  28 H28            0.6030    -1.2140     1.7226 H       
  29 H29           -2.4662    -2.0054     0.5846 H       
  30 H30            0.3584    -1.3125    -1.5531 H       
  31 H31            1.6123    -3.0276    -2.7957 H       
  32 H32           -0.9747    -6.0509    -1.2564 H       
  33 H33           -3.3117     2.2035    -2.4368 H       
  34 H34           -5.5540     3.0281    -3.3114 H       
  35 H35           -4.4682     2.6257    -4.6633 H       
  36 H36           -6.7667     2.7597    -5.4953 H       
  37 H37           -6.2267     1.0644    -5.5475 H       
  38 H38           -8.3784     1.2823    -4.5333 H       
@<TRIPOS>BOND
   1    1    2 1
   2    1   25 1
   3    1    8 2
   4    2    6 1
   5    2    5 1
   6    3    4 1
   7    3   25 2
   8    3   27 1
   9    4    5 2
  10    5   28 1
  11    6    7 2
  12    6    9 1
  13    7    8 1
  14    7   18 1
  15    9   10 1
  16    9   29 1
  17   10   11 ar
  18   10   12 ar
  19   11   16 1
  20   11   15 ar
  21   12   13 ar
  22   12   30 1
  23   13   14 ar
  24   13   31 1
  25   14   15 ar
  26   14   17 1
  27   15   32 1
  28   18   19 am
  29   18   20 2
  30   19   21 1
  31   19   33 1
  32   21   22 1
  33   22   23 1
  34   22   34 1
  35   22   35 1
  36   23   24 1
  37   23   36 1
  38   23   37 1
  39   24   38 1
  40   25   26 1

#	End of record

