#	Name: ASD01410767
#	Creating user name:	WinNT
#	Creation time:	15. 06. 2019 19:18

#	Modifying user name:	WinNT
#	Modification time:	15. 06. 2019 19:18

#	Program:	/corina/corina34_cracker 3.40 0067  02.08.2006

@<TRIPOS>MOLECULE
ASD01410767
  98  104    0    0    0
SMALL
NO_CHARGES


@<TRIPOS>ATOM
   1 C1             2.2374     1.4030    -0.4710 C.3     
   2 C2             1.5912    -2.2384    -1.4980 C.3     
   3 C3             1.5031    -0.6994    -1.6054 C.3     
   4 N4             2.5379    -0.3608    -2.5968 N.am    
   5 C5             2.4835    -1.4105    -3.6265 C.3     
   6 C6             1.8915    -2.6659    -2.9550 C.3     
   7 O7             2.6560    -2.6252    -0.6271 O.3     
   8 C8             1.5994    -0.9700    -4.7646 C.2     
   9 O9             1.0610     0.1162    -4.7290 O.2     
  10 N10            1.4071    -1.7830    -5.8222 N.am    
  11 C11            0.4783    -1.3937    -6.8861 C.3     
  12 C12           -0.9720    -1.3115    -6.4850 C.2     
  13 N13           -1.3507    -1.6839    -5.2463 N.am    
  14 O14           -1.7984    -0.9103    -7.2768 O.2     
  15 S15           -2.9215    -1.4784    -4.7638 S.o2    
  16 C16           -3.8742    -2.5843    -5.8409 C.3     
  17 C17            0.9798    -0.3952    -7.9313 C.3     
  18 C18            0.7926    -1.8673    -8.3066 C.3     
  19 C19           -5.3992    -2.5418    -5.7253 C.3     
  20 C20           -4.7080    -1.9428    -6.9518 C.3     
  21 O21           -2.9408    -1.9494    -3.4233 O.2     
  22 O22           -3.2063    -0.1197    -5.0671 O.2     
  23 C23           -0.0296     0.6100    -8.4896 C.3     
  24 C24            0.6884     1.5917    -9.4178 C.3     
  25 C25            2.5700    -3.8526    -0.0568 C.ar    
  26 C26            3.5466    -4.2944     0.8662 C.ar    
  27 C27            1.5317    -4.6955    -0.3551 C.ar    
  28 C28            1.4657    -5.9591     0.2477 C.ar    
  29 N29            2.3867    -6.3647     1.1056 N.ar    
  30 C30            3.4194    -5.5840     1.4389 C.ar    
  31 C31            0.3406    -6.8587    -0.0826 C.2     
  32 C32            4.3924    -6.0268     2.3519 C.ar    
  33 C33            5.4458    -5.2014     2.6767 C.ar    
  34 C34            5.5576    -3.9289     2.1093 C.ar    
  35 C35            4.6315    -3.4788     1.2190 C.ar    
  36 Cl36           4.2665    -7.6042     3.0659 Cl      
  37 O37            6.3866    -5.6286     3.5590 O.3     
  38 N38            0.1601    -8.0533     0.4041 N.2     
  39 C39            1.8239    -0.0539    -0.2649 C.3     
  40 C40            3.5382     1.4685    -1.2718 C.3     
  41 C41            3.3888     0.6744    -2.5449 C.2     
  42 C42            3.8527     2.9261    -1.6145 C.3     
  43 C43            2.7140     3.5100    -2.4531 C.3     
  44 C44            4.0008     3.7331    -0.3231 C.3     
  45 O45            4.0399     0.9723    -3.5238 O.2     
  46 C46            7.4548    -4.7269     3.8555 C.3     
  47 C47           -0.8984    -8.7106    -0.0038 C.2     
  48 C48           -1.6798    -8.0706    -0.8832 C.2     
  49 S49           -0.9757    -6.4845    -1.1922 S.3     
  50 C50           -1.2158   -10.1000     0.4860 C.3     
  51 C51           -2.1898   -10.0158     1.6629 C.3     
  52 C52           -1.8533   -10.9069    -0.6469 C.3     
  53 H53            1.4517     1.9288    -1.0135 H       
  54 H54            2.3853     1.8778     0.4989 H       
  55 H55            0.6441    -2.6567    -1.1572 H       
  56 H56            0.5185    -0.3970    -1.9622 H       
  57 H57            3.4870    -1.6233    -3.9948 H       
  58 H58            2.6160    -3.4801    -2.9690 H       
  59 H59            0.9727    -2.9669    -3.4583 H       
  60 H60            1.8836    -2.6260    -5.8788 H       
  61 H61           -0.7032    -2.0723    -4.6374 H       
  62 H62           -3.4120    -3.5488    -6.0511 H       
  63 H63            2.0008    -0.0280    -7.8273 H       
  64 H64            1.6906    -2.4684    -8.4496 H       
  65 H65           -0.0495    -2.1192    -8.9511 H       
  66 H66           -5.9404    -3.4784    -5.8599 H       
  67 H67           -5.8301    -1.8494    -5.0021 H       
  68 H68           -4.6841    -0.8563    -7.0355 H       
  69 H69           -4.7944    -2.4853    -7.8933 H       
  70 H70           -0.8001     0.0788    -9.0484 H       
  71 H71           -0.4896     1.1578    -7.6672 H       
  72 H72           -0.0307     2.3078    -9.8155 H       
  73 H73            1.4589     2.1228    -8.8590 H       
  74 H74            1.1485     1.0439   -10.2402 H       
  75 H75            0.7666    -4.3871    -1.0522 H       
  76 H76            6.3912    -3.2967     2.3774 H       
  77 H77            4.7301    -2.4936     0.7877 H       
  78 H78            2.6395    -0.5973     0.2122 H       
  79 H79            0.9426    -0.0926     0.3753 H       
  80 H80            4.3516     1.0521    -0.6776 H       
  81 H81            4.7826     2.9736    -2.1812 H       
  82 H82            1.7841     3.4625    -1.8863 H       
  83 H83            2.9380     4.5484    -2.6972 H       
  84 H84            2.6085     2.9351    -3.3731 H       
  85 H85            3.0912     3.6393     0.2702 H       
  86 H86            4.8478     3.3528     0.2479 H       
  87 H87            4.1688     4.7820    -0.5673 H       
  88 H88            8.1337    -5.1906     4.5712 H       
  89 H89            7.9972    -4.4925     2.9396 H       
  90 H90            7.0484    -3.8098     4.2819 H       
  91 H91           -2.5869    -8.4575    -1.3235 H       
  92 H92           -0.2973   -10.5901     0.8089 H       
  93 H93           -3.1083    -9.5257     1.3400 H       
  94 H94           -2.4194   -11.0207     2.0172 H       
  95 H95           -1.7356    -9.4409     2.4700 H       
  96 H96           -1.1594   -10.9669    -1.4853 H       
  97 H97           -2.0829   -11.9118    -0.2926 H       
  98 H98           -2.7718   -10.4168    -0.9698 H       
@<TRIPOS>BOND
   1    1   39 1
   2    1   40 1
   3    1   53 1
   4    1   54 1
   5    2    3 1
   6    2    7 1
   7    2    6 1
   8    2   55 1
   9    3    4 1
  10    3   39 1
  11    3   56 1
  12    4    5 1
  13    4   41 am
  14    5    6 1
  15    5    8 1
  16    5   57 1
  17    6   58 1
  18    6   59 1
  19    7   25 1
  20    8    9 2
  21    8   10 am
  22   10   11 1
  23   10   60 1
  24   11   12 1
  25   11   17 1
  26   11   18 1
  27   12   13 am
  28   12   14 2
  29   13   15 am
  30   13   61 1
  31   15   16 1
  32   15   21 2
  33   15   22 2
  34   16   19 1
  35   16   20 1
  36   16   62 1
  37   17   18 1
  38   17   23 1
  39   17   63 1
  40   18   64 1
  41   18   65 1
  42   19   20 1
  43   19   66 1
  44   19   67 1
  45   20   68 1
  46   20   69 1
  47   23   24 1
  48   23   70 1
  49   23   71 1
  50   24   72 1
  51   24   73 1
  52   24   74 1
  53   25   26 ar
  54   25   27 ar
  55   26   30 ar
  56   26   35 ar
  57   27   28 ar
  58   27   75 1
  59   28   29 ar
  60   28   31 1
  61   29   30 ar
  62   30   32 ar
  63   31   38 2
  64   31   49 1
  65   32   33 ar
  66   32   36 1
  67   33   34 ar
  68   33   37 1
  69   34   35 ar
  70   34   76 1
  71   35   77 1
  72   37   46 1
  73   38   47 1
  74   39   78 1
  75   39   79 1
  76   40   41 1
  77   40   42 1
  78   40   80 1
  79   41   45 2
  80   42   43 1
  81   42   44 1
  82   42   81 1
  83   43   82 1
  84   43   83 1
  85   43   84 1
  86   44   85 1
  87   44   86 1
  88   44   87 1
  89   46   88 1
  90   46   89 1
  91   46   90 1
  92   47   48 2
  93   47   50 1
  94   48   49 1
  95   48   91 1
  96   50   51 1
  97   50   52 1
  98   50   92 1
  99   51   93 1
 100   51   94 1
 101   51   95 1
 102   52   96 1
 103   52   97 1
 104   52   98 1

#	End of record

