#	Name: ASD01560013
#	Creating user name:	WinNT
#	Creation time:	15. 06. 2019 19:22

#	Modifying user name:	WinNT
#	Modification time:	15. 06. 2019 19:22

#	Program:	/corina/corina34_cracker 3.40 0067  02.08.2006

@<TRIPOS>MOLECULE
ASD01560013
  88   93    0    0    0
SMALL
NO_CHARGES


@<TRIPOS>ATOM
   1 C1             3.2003     3.0984     1.6524 C.3     
   2 C2             4.4883     2.6914     0.8962 C.3     
   3 C3             4.2362     3.1499    -0.5533 C.3     
   4 O4             2.9127     3.7089    -0.6005 O.3     
   5 C5             2.6120     4.1931     0.7260 C.3     
   6 C6             4.3293     1.9526    -1.5013 C.3     
   7 O7             4.2102     2.4041    -2.8519 O.3     
   8 C8             4.4199     1.3810    -3.8273 C.3     
   9 C9             3.4251     0.2698    -3.6116 C.ar    
  10 C10            4.2372     1.9579    -5.2075 C.ar    
  11 C11            5.8185     0.8365    -3.6915 C.ar    
  12 C12            6.8363     1.6522    -3.2337 C.ar    
  13 C13            8.1193     1.1527    -3.1092 C.ar    
  14 C14            8.3843    -0.1625    -3.4420 C.ar    
  15 C15            7.3662    -0.9785    -3.8989 C.ar    
  16 C16            6.0824    -0.4802    -4.0193 C.ar    
  17 C17            3.6118    -0.6352    -2.5835 C.ar    
  18 C18            2.6993    -1.6545    -2.3857 C.ar    
  19 C19            1.5998    -1.7686    -3.2157 C.ar    
  20 C20            1.4125    -0.8631    -4.2432 C.ar    
  21 C21            2.3227     0.1588    -4.4384 C.ar    
  22 C22            3.8188     3.2665    -5.3599 C.ar    
  23 C23            3.6512     3.7957    -6.6259 C.ar    
  24 C24            3.9025     3.0163    -7.7396 C.ar    
  25 C25            4.3219     1.7079    -7.5872 C.ar    
  26 C26            4.4936     1.1801    -6.3212 C.ar    
  27 O27            2.2898     1.9733     1.7680 O.3     
  28 N28            1.1641     4.3075     0.9175 N.pl3   
  29 C29            0.5288     5.1180     1.8178 C.2     
  30 C30           -0.8403     4.8944     1.6426 C.2     
  31 N31           -0.9750     3.9735     0.6602 N.2     
  32 C32            0.2038     3.6303     0.2271 C.2     
  33 N33            0.9430     5.9962     2.7420 N.2     
  34 N34           -1.2485     6.4795     3.3649 N.am    
  35 C35           -1.7507     5.6126     2.4574 C.2     
  36 O36           -2.9538     5.4532     2.3427 O.2     
  37 C37            0.0925     6.6487     3.4838 C.2     
  38 C38            1.4890     1.9455     2.8448 C.2     
  39 C39            0.5177     0.8086     3.0325 C.3     
  40 O40            4.6753     1.2524     0.9488 O.3     
  41 C41            5.9390     0.8008     0.9215 C.2     
  42 C42            6.2110    -0.6806     0.9728 C.3     
  43 O43            6.8585     1.5819     0.8558 O.2     
  44 O44            1.5469     2.8320     3.6638 O.2     
  45 C45           -2.1576     7.2404     4.2256 C.3     
  46 O46           -2.1378     6.6897     5.5441 O.3     
  47 C47           -1.0173     7.1017     6.3294 C.3     
  48 C48           -1.0992     6.4550     7.7136 C.3     
  49 O49           -0.9704     5.0376     7.5856 O.3     
  50 C50           -1.0337     4.3337     8.8275 C.3     
  51 H51            3.4384     3.5062     2.6348 H       
  52 H52            5.3546     3.2033     1.3151 H       
  53 H53            4.9684     3.9064    -0.8354 H       
  54 H54            3.1008     5.1507     0.9051 H       
  55 H55            5.2909     1.4571    -1.3674 H       
  56 H56            3.5251     1.2509    -1.2805 H       
  57 H57            6.6293     2.6798    -2.9737 H       
  58 H58            8.9146     1.7902    -2.7522 H       
  59 H59            9.3867    -0.5526    -3.3454 H       
  60 H60            7.5733    -2.0060    -4.1593 H       
  61 H61            5.2871    -1.1177    -4.3763 H       
  62 H62            4.4709    -0.5461    -1.9351 H       
  63 H63            2.8456    -2.3620    -1.5829 H       
  64 H64            0.8872    -2.5654    -3.0616 H       
  65 H65            0.5536    -0.9524    -4.8919 H       
  66 H66            2.1764     0.8663    -5.2411 H       
  67 H67            3.6224     3.8754    -4.4898 H       
  68 H68            3.3235     4.8179    -6.7449 H       
  69 H69            3.7709     3.4295    -8.7287 H       
  70 H70            4.5179     1.0989    -8.4573 H       
  71 H71            4.8213     0.1579    -6.2022 H       
  72 H72            0.3926     2.9113    -0.5563 H       
  73 H73            0.4676     7.3473     4.2170 H       
  74 H74            0.6091     0.1115     2.1995 H       
  75 H75            0.7401     0.2910     3.9656 H       
  76 H76           -0.4986     1.2011     3.0679 H       
  77 H77            6.2393    -1.0801    -0.0410 H       
  78 H78            7.1700    -0.8573     1.4598 H       
  79 H79            5.4205    -1.1759     1.5366 H       
  80 H80           -1.8372     8.2816     4.2620 H       
  81 H81           -3.1694     7.1854     3.8240 H       
  82 H82           -0.0953     6.7917     5.8375 H       
  83 H83           -1.0262     8.1866     6.4341 H       
  84 H84           -0.2946     6.8377     8.3416 H       
  85 H85           -2.0603     6.6928     8.1694 H       
  86 H86           -0.2278     4.6724     9.4786 H       
  87 H87           -1.9935     4.5275     9.3065 H       
  88 H88           -0.9282     3.2643     8.6449 H       
@<TRIPOS>BOND
   1    1   27 1
   2    1    2 1
   3    1    5 1
   4    1   51 1
   5    2   40 1
   6    2    3 1
   7    2   52 1
   8    3    4 1
   9    3    6 1
  10    3   53 1
  11    4    5 1
  12    5   28 1
  13    5   54 1
  14    6    7 1
  15    6   55 1
  16    6   56 1
  17    7    8 1
  18    8    9 1
  19    8   10 1
  20    8   11 1
  21    9   17 ar
  22    9   21 ar
  23   10   22 ar
  24   10   26 ar
  25   11   12 ar
  26   11   16 ar
  27   12   13 ar
  28   12   57 1
  29   13   14 ar
  30   13   58 1
  31   14   15 ar
  32   14   59 1
  33   15   16 ar
  34   15   60 1
  35   16   61 1
  36   17   18 ar
  37   17   62 1
  38   18   19 ar
  39   18   63 1
  40   19   20 ar
  41   19   64 1
  42   20   21 ar
  43   20   65 1
  44   21   66 1
  45   22   23 ar
  46   22   67 1
  47   23   24 ar
  48   23   68 1
  49   24   25 ar
  50   24   69 1
  51   25   26 ar
  52   25   70 1
  53   26   71 1
  54   27   38 1
  55   28   29 1
  56   28   32 1
  57   29   30 2
  58   29   33 1
  59   30   31 1
  60   30   35 1
  61   31   32 2
  62   32   72 1
  63   33   37 2
  64   34   35 am
  65   34   37 1
  66   34   45 1
  67   35   36 2
  68   37   73 1
  69   38   39 1
  70   38   44 2
  71   39   74 1
  72   39   75 1
  73   39   76 1
  74   40   41 1
  75   41   42 1
  76   41   43 2
  77   42   77 1
  78   42   78 1
  79   42   79 1
  80   45   46 1
  81   45   80 1
  82   45   81 1
  83   46   47 1
  84   47   48 1
  85   47   82 1
  86   47   83 1
  87   48   49 1
  88   48   84 1
  89   48   85 1
  90   49   50 1
  91   50   86 1
  92   50   87 1
  93   50   88 1

#	End of record

