#	Name: ASD01870508
#	Creating user name:	WinNT
#	Creation time:	15. 06. 2019 19:39

#	Modifying user name:	WinNT
#	Modification time:	15. 06. 2019 19:39

#	Program:	/corina/corina34_cracker 3.40 0067  02.08.2006

@<TRIPOS>MOLECULE
ASD01870508
  40   43    0    0    0
SMALL
NO_CHARGES


@<TRIPOS>ATOM
   1 C1            -0.0303     1.3996    -0.2322 C.ar    
   2 C2            -0.0272     0.0160    -0.1045 C.ar    
   3 C3             1.1549    -0.6625     0.1408 C.ar    
   4 C4             2.3487     0.0290     0.2620 C.ar    
   5 C5             2.3600     1.4098     0.1368 C.ar    
   6 C6             1.1569     2.1020    -0.1130 C.ar    
   7 C7             3.4137     2.4425     0.2050 C.2     
   8 N8             2.8481     3.6467     0.0067 N.am    
   9 C9             1.5220     3.5326    -0.1880 C.2     
  10 O10            0.7536     4.4507    -0.3923 O.2     
  11 O11            4.5939     2.2384     0.4071 O.2     
  12 C12            3.5494     4.8624     0.0035 C.ar    
  13 C13            4.0793     5.3548    -1.1813 C.ar    
  14 C14            4.7688     6.5508    -1.1850 C.ar    
  15 C15            4.9326     7.2621    -0.0032 C.ar    
  16 C16            4.4028     6.7701     1.1824 C.ar    
  17 C17            3.7082     5.5758     1.1850 C.ar    
  18 Cl18           3.0399     4.9633     2.6655 Cl      
  19 N19            5.6321     8.4744    -0.0072 N.am    
  20 C20            6.4046     8.8102     1.0449 C.2     
  21 C21            7.2198    10.0341     0.9981 C.2     
  22 O22            6.4279     8.1013     2.0332 O.2     
  23 C23            8.0587    10.5121     1.9900 C.2     
  24 C24            8.6039    11.6912     1.4769 C.2     
  25 N25            8.1113    11.8729     0.2782 N.2     
  26 N26            7.3050    10.9235    -0.0352 N.pl3   
  27 C27            8.3262     9.8924     3.3374 C.3     
  28 F28           -1.1845    -0.6715    -0.2200 F       
  29 H29           -0.9537     1.9243    -0.4279 H       
  30 H30            1.1458    -1.7380     0.2387 H       
  31 H31            3.2675    -0.5053     0.4537 H       
  32 H32            3.9525     4.8019    -2.1004 H       
  33 H33            5.1812     6.9333    -2.1070 H       
  34 H34            4.5301     7.3229     2.1014 H       
  35 H35            5.5609     9.0729    -0.7672 H       
  36 H36            9.3070    12.3383     1.9803 H       
  37 H37            6.8277    10.8504    -0.8765 H       
  38 H38            9.1704     9.2071     3.2610 H       
  39 H39            8.5587    10.6763     4.0582 H       
  40 H40            7.4431     9.3455     3.6676 H       
@<TRIPOS>BOND
   1    1    2 ar
   2    1    6 ar
   3    1   29 1
   4    2    3 ar
   5    2   28 1
   6    3    4 ar
   7    3   30 1
   8    4    5 ar
   9    4   31 1
  10    5    7 1
  11    5    6 ar
  12    6    9 1
  13    7    8 am
  14    7   11 2
  15    8    9 am
  16    8   12 1
  17    9   10 2
  18   12   13 ar
  19   12   17 ar
  20   13   14 ar
  21   13   32 1
  22   14   15 ar
  23   14   33 1
  24   15   16 ar
  25   15   19 1
  26   16   17 ar
  27   16   34 1
  28   17   18 1
  29   19   20 am
  30   19   35 1
  31   20   21 1
  32   20   22 2
  33   21   23 2
  34   21   26 1
  35   23   24 1
  36   23   27 1
  37   24   25 2
  38   24   36 1
  39   25   26 1
  40   26   37 1
  41   27   38 1
  42   27   39 1
  43   27   40 1

#	End of record

