#	Name: ASD04880115
#	Creating user name:	WinNT
#	Creation time:	15. 06. 2019 20:52

#	Modifying user name:	WinNT
#	Modification time:	15. 06. 2019 20:52

#	Program:	/corina/corina34_cracker 3.40 0067  02.08.2006

@<TRIPOS>MOLECULE
ASD04880115
  64   67    0    0    0
SMALL
NO_CHARGES


@<TRIPOS>ATOM
   1 C1            -0.0280     1.4424     0.1664 C.3     
   2 O2            -0.1415     0.2934    -0.6757 O.3     
   3 C3            -1.3386    -0.3477    -0.6859 C.ar    
   4 C4            -2.3838     0.1250     0.0955 C.ar    
   5 C5            -3.6006    -0.5224     0.0890 C.ar    
   6 C6            -3.7842    -1.6564    -0.7054 C.ar    
   7 C7            -2.7318    -2.1323    -1.4928 C.ar    
   8 C8            -1.5168    -1.4759    -1.4857 C.ar    
   9 O9            -0.4924    -1.9330    -2.2547 O.3     
  10 C10           -0.7453    -3.0936    -3.0491 C.3     
  11 C11           -5.0863    -2.3510    -0.7132 C.2     
  12 O12           -5.2446    -3.3382    -1.4053 O.2     
  13 N13           -6.0999    -1.8912     0.0469 N.am    
  14 C14           -7.3615    -2.4892    -0.0339 C.ar    
  15 C15           -7.4707    -3.8596    -0.2319 C.ar    
  16 C16           -8.7181    -4.4471    -0.3107 C.ar    
  17 C17           -9.8576    -3.6725    -0.1927 C.ar    
  18 C18           -9.7523    -2.3078     0.0040 C.ar    
  19 C19           -8.5079    -1.7149     0.0895 C.ar    
  20 C20          -11.2171    -4.3170    -0.2792 C.3     
  21 C21          -11.3722    -4.9996    -1.6397 C.3     
  22 C22          -11.3597    -5.3579     0.8329 C.3     
  23 C23          -12.2996    -3.2477    -0.1188 C.3     
  24 N24          -13.6212    -3.8742    -0.2029 N.am    
  25 C25          -14.7327    -3.1206    -0.0881 C.2     
  26 O26          -14.6385    -1.9200     0.0854 O.2     
  27 C27          -16.0579    -3.7488    -0.1725 C.2     
  28 C28          -16.3228    -5.0739    -0.3571 C.2     
  29 N29          -17.6622    -5.2746    -0.3811 N.pl3   
  30 H30          -18.0906    -6.1367    -0.5004 H       
  31 C31          -18.3314    -4.0791    -0.2117 C.ar    
  32 C32          -19.6798    -3.7425    -0.1610 C.ar    
  33 C33          -20.0550    -2.4295     0.0234 C.ar    
  34 C34          -19.0972    -1.4328     0.1600 C.ar    
  35 F35          -19.4817    -0.1502     0.3402 F       
  36 C36          -17.7546    -1.7477     0.1127 C.ar    
  37 C37          -17.3636    -3.0720    -0.0678 C.ar    
  38 H38            0.9760     1.8580     0.0806 H       
  39 H39           -0.7585     2.1911    -0.1402 H       
  40 H40           -0.2149     1.1546     1.2009 H       
  41 H41           -2.2433     1.0017     0.7103 H       
  42 H42           -4.4121    -0.1529     0.6985 H       
  43 H43           -2.8698    -3.0089    -2.1084 H       
  44 H44            0.1517    -3.3510    -3.6122 H       
  45 H45           -1.0182    -3.9257    -2.4001 H       
  46 H46           -1.5625    -2.8893    -3.7410 H       
  47 H47           -5.9543    -1.1455     0.6499 H       
  48 H48           -6.5812    -4.4650    -0.3245 H       
  49 H49           -8.8038    -5.5126    -0.4651 H       
  50 H50          -10.6442    -1.7055     0.0951 H       
  51 H51           -8.4263    -0.6497     0.2480 H       
  52 H52          -10.6011    -5.7614    -1.7540 H       
  53 H53          -12.3555    -5.4658    -1.7023 H       
  54 H54          -11.2706    -4.2580    -2.4320 H       
  55 H55          -11.2492    -4.8716     1.8021 H       
  56 H56          -12.3431    -5.8241     0.7704 H       
  57 H57          -10.5886    -6.1197     0.7187 H       
  58 H58          -12.1890    -2.7613     0.8504 H       
  59 H59          -12.1979    -2.5061    -0.9112 H       
  60 H60          -13.6962    -4.8313    -0.3412 H       
  61 H61          -15.5768    -5.8470    -0.4678 H       
  62 H62          -20.4325    -4.5098    -0.2664 H       
  63 H63          -21.1034    -2.1730     0.0618 H       
  64 H64          -17.0109    -0.9719     0.2194 H       
@<TRIPOS>BOND
   1    1    2 1
   2    1   38 1
   3    1   39 1
   4    1   40 1
   5    2    3 1
   6    3    8 ar
   7    3    4 ar
   8    4    5 ar
   9    4   41 1
  10    5    6 ar
  11    5   42 1
  12    6    7 ar
  13    6   11 1
  14    7    8 ar
  15    7   43 1
  16    8    9 1
  17    9   10 1
  18   10   44 1
  19   10   45 1
  20   10   46 1
  21   11   12 2
  22   11   13 am
  23   13   14 1
  24   13   47 1
  25   14   19 ar
  26   14   15 ar
  27   15   16 ar
  28   15   48 1
  29   16   17 ar
  30   16   49 1
  31   17   18 ar
  32   17   20 1
  33   18   19 ar
  34   18   50 1
  35   19   51 1
  36   20   21 1
  37   20   22 1
  38   20   23 1
  39   21   52 1
  40   21   53 1
  41   21   54 1
  42   22   55 1
  43   22   56 1
  44   22   57 1
  45   23   24 1
  46   23   58 1
  47   23   59 1
  48   24   25 am
  49   24   60 1
  50   25   26 2
  51   25   27 1
  52   27   37 1
  53   27   28 2
  54   28   29 1
  55   28   61 1
  56   29   30 1
  57   29   31 1
  58   31   37 ar
  59   31   32 ar
  60   32   33 ar
  61   32   62 1
  62   33   34 ar
  63   33   63 1
  64   34   35 1
  65   34   36 ar
  66   36   37 ar
  67   36   64 1

#	End of record

