#	Name: ASD03320008
#	Creating user name:	WinNT
#	Creation time:	15. 06. 2019 20:35

#	Modifying user name:	WinNT
#	Modification time:	15. 06. 2019 20:35

#	Program:	/corina/corina34_cracker 3.40 0067  02.08.2006

@<TRIPOS>MOLECULE
ASD03320008
  38   41    0    0    0
SMALL
NO_CHARGES


@<TRIPOS>ATOM
   1 O1             0.2360     0.0313    -0.1154 O.2     
   2 C2             0.1808     1.2453    -0.0950 C.2     
   3 N3             1.2567     2.0395    -0.1372 N.am    
   4 C4             0.9145     3.3424    -0.1011 C.2     
   5 O5             1.6618     4.2968    -0.1251 O.2     
   6 C6            -0.5992     3.3666    -0.0251 C.3     
   7 N7            -0.9691     1.9407    -0.0332 N.am    
   8 C8            -1.1794     4.0666    -1.2269 C.2     
   9 C9            -1.6098     3.4733    -2.3615 C.2     
  10 N10           -2.0583     4.4467    -3.1965 N.pl3   
  11 N11           -1.8971     5.6794    -2.5510 N.2     
  12 C12           -1.3743     5.4552    -1.3636 C.2     
  13 C13           -1.0392     6.4861    -0.3504 C.ar    
  14 C14           -0.4228     7.6738    -0.7394 C.ar    
  15 C15           -0.1133     8.6299     0.2060 C.ar    
  16 C16           -0.4141     8.4103     1.5405 C.ar    
  17 C17           -1.0265     7.2307     1.9317 C.ar    
  18 C18           -1.3451     6.2719     0.9921 C.ar    
  19 F19           -0.1089     9.3489     2.4630 F       
  20 C20           -2.5887     4.2518    -4.4786 C.ar    
  21 C21           -3.0120     5.3405    -5.2293 C.ar    
  22 C22           -3.5344     5.1451    -6.4928 C.ar    
  23 C23           -3.6366     3.8668    -7.0102 C.ar    
  24 C24           -3.2164     2.7805    -6.2649 C.ar    
  25 C25           -2.6869     2.9699    -5.0034 C.ar    
  26 H26            2.1703     1.7172    -0.1870 H       
  27 H27           -0.9293     3.8468     0.8961 H       
  28 H28           -1.8665     1.5745     0.0043 H       
  29 H29           -1.5990     2.4133    -2.5683 H       
  30 H30           -0.1873     7.8455    -1.7793 H       
  31 H31            0.3644     9.5507    -0.0946 H       
  32 H32           -1.2586     7.0633     2.9731 H       
  33 H33           -1.8228     5.3528     1.2979 H       
  34 H34           -2.9331     6.3391    -4.8255 H       
  35 H35           -3.8638     5.9915    -7.0772 H       
  36 H36           -4.0458     3.7165    -7.9983 H       
  37 H37           -3.2978     1.7833    -6.6716 H       
  38 H38           -2.3589     2.1211    -4.4217 H       
@<TRIPOS>BOND
   1    1    2 2
   2    2    3 am
   3    2    7 am
   4    3    4 am
   5    3   26 1
   6    4    5 2
   7    4    6 1
   8    6    7 1
   9    6    8 1
  10    6   27 1
  11    7   28 1
  12    8    9 2
  13    8   12 1
  14    9   10 1
  15    9   29 1
  16   10   11 1
  17   10   20 1
  18   11   12 2
  19   12   13 1
  20   13   14 ar
  21   13   18 ar
  22   14   15 ar
  23   14   30 1
  24   15   16 ar
  25   15   31 1
  26   16   17 ar
  27   16   19 1
  28   17   18 ar
  29   17   32 1
  30   18   33 1
  31   20   21 ar
  32   20   25 ar
  33   21   22 ar
  34   21   34 1
  35   22   23 ar
  36   22   35 1
  37   23   24 ar
  38   23   36 1
  39   24   25 ar
  40   24   37 1
  41   25   38 1

#	End of record

