#	Name: ASD02408381
#	Creating user name:	WinNT
#	Creation time:	15. 06. 2019 20:21

#	Modifying user name:	WinNT
#	Modification time:	15. 06. 2019 20:21

#	Program:	/corina/corina34_cracker 3.40 0067  02.08.2006

@<TRIPOS>MOLECULE
ASD02408381
  25   26    0    0    0
SMALL
NO_CHARGES


@<TRIPOS>ATOM
   1 C1            -0.0231     1.0631     0.1717 C.2     
   2 C2             0.1742     0.1658     1.2471 C.2     
   3 C3             1.2357     1.5056    -0.2258 C.2     
   4 N4             2.1411     0.9000     0.5757 N.pl3   
   5 N5             1.4548     0.0779     1.4760 N.2     
   6 C6             3.5310     1.0675     0.5147 C.ar    
   7 C7             4.0757     2.3427     0.4474 C.ar    
   8 C8             5.4462     2.5045     0.3874 C.ar    
   9 C9             6.2754     1.3981     0.3944 C.ar    
  10 C10            5.7358     0.1264     0.4614 C.ar    
  11 C11            4.3667    -0.0416     0.5274 C.ar    
  12 N12            1.5086     2.3952    -1.2471 N.pl3   
  13 C13            3.7795    -1.4276     0.6004 C.3     
  14 C14           -1.2791     1.4402    -0.4034 C.1     
  15 N15           -2.2756     1.7393    -0.8596 N.1     
  16 H16           -0.6023    -0.3563     1.7863 H       
  17 H17            3.4285     3.2073     0.4415 H       
  18 H18            5.8705     3.4962     0.3346 H       
  19 H19            7.3466     1.5271     0.3470 H       
  20 H20            6.3860    -0.7359     0.4664 H       
  21 H21            0.7818     2.8448    -1.7058 H       
  22 H22            2.4271     2.5701    -1.5055 H       
  23 H23            3.5902    -1.6876     1.6419 H       
  24 H24            2.8432    -1.4554     0.0430 H       
  25 H25            4.4804    -2.1423     0.1692 H       
@<TRIPOS>BOND
   1    1    2 1
   2    1    3 2
   3    1   14 1
   4    2    5 2
   5    2   16 1
   6    3    4 1
   7    3   12 1
   8    4    5 1
   9    4    6 1
  10    6    7 ar
  11    6   11 ar
  12    7    8 ar
  13    7   17 1
  14    8    9 ar
  15    8   18 1
  16    9   10 ar
  17    9   19 1
  18   10   11 ar
  19   10   20 1
  20   11   13 1
  21   12   21 1
  22   12   22 1
  23   13   23 1
  24   13   24 1
  25   13   25 1
  26   14   15 3

#	End of record

