#	Name: ASD01680033
#	Creating user name:	WinNT
#	Creation time:	15. 06. 2019 19:22

#	Modifying user name:	WinNT
#	Modification time:	15. 06. 2019 19:22

#	Program:	/corina/corina34_cracker 3.40 0067  02.08.2006

@<TRIPOS>MOLECULE
ASD01680033
  89   91    0    0    0
SMALL
NO_CHARGES


@<TRIPOS>ATOM
   1 N1             0.0439    -1.1348    -1.1707 N.am    
   2 C2             0.2191    -2.5973    -1.1096 C.3     
   3 C3             1.4935    -2.8087    -0.2546 C.3     
   4 C4             2.3778    -1.6196    -0.7144 C.3     
   5 C5             1.3486    -0.4941    -0.9496 C.3     
   6 C6            -1.1186    -0.4918    -1.3975 C.2     
   7 O7            -2.1212    -1.1247    -1.6636 O.2     
   8 O8            -1.1692     0.8519    -1.3292 O.3     
   9 C9            -0.9890    -3.2506    -0.4353 C.3     
  10 N10           -1.2216    -2.6204     0.8666 N.pl3   
  11 C11           -2.3297    -2.9801     1.6248 C.ar    
  12 C12           -3.2140    -3.9394     1.1414 C.ar    
  13 C13           -4.3123    -4.2877     1.9062 C.ar    
  14 C14           -4.4904    -3.6628     3.1336 C.ar    
  15 C15           -3.5735    -2.7195     3.5514 C.ar    
  16 N16           -2.5313    -2.4107     2.8030 N.ar    
  17 O17            3.3035    -1.2522     0.3103 O.3     
  18 C18            4.5287    -0.7056    -0.1819 C.3     
  19 C19            5.4245    -0.3555     0.9782 C.2     
  20 N20            6.6412     0.1788     0.7528 N.am    
  21 O21            5.0507    -0.5545     2.1147 O.2     
  22 C22            7.5121     0.5191     1.8806 C.3     
  23 C23            8.8238     1.1044     1.3536 C.3     
  24 N24            8.5337     2.2409     0.4759 N.am    
  25 C25            9.4163     2.5983    -0.4779 C.2     
  26 C26            9.1178     3.7674    -1.3808 C.3     
  27 C27           10.2725     3.9586    -2.3661 C.3     
  28 C28            9.9155     5.0640    -3.3619 C.3     
  29 C29           10.7277     4.8765    -4.6449 C.3     
  30 C30           10.4405     3.4935    -5.2328 C.3     
  31 O31           10.4507     1.9790    -0.6096 O.2     
  32 C32           10.3356     5.9532    -5.6587 C.3     
  33 C33           12.2194     4.9954    -4.3260 C.3     
  34 C34           11.5371     4.3516    -1.5997 C.3     
  35 C35            9.6687     1.5674     2.5124 C.2     
  36 O36            9.9950     2.7278     2.5964 O.2     
  37 O37           10.0588     0.6909     3.4511 O.3     
  38 C38           -2.4544     1.4771    -1.5851 C.3     
  39 C39           -2.3181     2.9731    -1.4651 C.ar    
  40 C40           -1.9900     3.7285    -2.5754 C.ar    
  41 C41           -1.8649     5.1007    -2.4654 C.ar    
  42 C42           -2.0684     5.7177    -1.2452 C.ar    
  43 C43           -2.3974     4.9625    -0.1351 C.ar    
  44 C44           -2.5267     3.5907    -0.2461 C.ar    
  45 H45            0.3620    -3.0044    -2.1106 H       
  46 H46            1.2664    -2.7383     0.8091 H       
  47 H47            1.9676    -3.7618    -0.4890 H       
  48 H48            2.9011    -1.8631    -1.6391 H       
  49 H49            1.6294     0.0876    -1.8276 H       
  50 H50            1.3001     0.1529    -0.0737 H       
  51 H51           -1.8699    -3.1215    -1.0641 H       
  52 H52           -0.7956    -4.3141    -0.2948 H       
  53 H53           -0.6023    -1.9521     1.1995 H       
  54 H54           -3.0451    -4.4054     0.1819 H       
  55 H55           -5.0159    -5.0288     1.5567 H       
  56 H56           -5.3381    -3.9120     3.7547 H       
  57 H57           -3.7082    -2.2311     4.5052 H       
  58 H58            5.0254    -1.4400    -0.8159 H       
  59 H59            4.3184     0.1926    -0.7626 H       
  60 H60            6.9402     0.3379    -0.1561 H       
  61 H61            7.0153     1.2536     2.5146 H       
  62 H62            7.7223    -0.3791     2.4613 H       
  63 H63            9.3631     0.3408     0.7930 H       
  64 H64            7.7063     2.7362     0.5812 H       
  65 H65            8.1976     3.5748    -1.9324 H       
  66 H66            8.9995     4.6693    -0.7802 H       
  67 H67           10.4487     3.0275    -2.9046 H       
  68 H68            8.8518     5.0137    -3.5947 H       
  69 H69           10.1461     6.0354    -2.9245 H       
  70 H70            9.3778     3.4088    -5.4599 H       
  71 H71           11.0192     3.3599    -6.1468 H       
  72 H72           10.7199     2.7265    -4.5105 H       
  73 H73           10.5402     6.9384    -5.2399 H       
  74 H74           10.9142     5.8196    -6.5727 H       
  75 H75            9.2728     5.8685    -5.8858 H       
  76 H76           12.5536     4.0951    -3.8103 H       
  77 H77           12.7809     5.1127    -5.2529 H       
  78 H78           12.3865     5.8630    -3.6877 H       
  79 H79           11.8407     3.5283    -0.9531 H       
  80 H80           12.3368     4.5720    -2.3069 H       
  81 H81           11.3349     5.2344    -0.9933 H       
  82 H82           10.5996     1.0347     4.1752 H       
  83 H83           -2.7887     1.2222    -2.5907 H       
  84 H84           -3.1836     1.1193    -0.8582 H       
  85 H85           -1.8310     3.2464    -3.5287 H       
  86 H86           -1.6078     5.6908    -3.3326 H       
  87 H87           -1.9699     6.7898    -1.1591 H       
  88 H88           -2.5561     5.4445     0.8182 H       
  89 H89           -2.7874     3.0010     0.6203 H       
@<TRIPOS>BOND
   1    1    2 1
   2    1    5 1
   3    1    6 am
   4    2    3 1
   5    2    9 1
   6    2   45 1
   7    3    4 1
   8    3   46 1
   9    3   47 1
  10    4    5 1
  11    4   17 1
  12    4   48 1
  13    5   49 1
  14    5   50 1
  15    6    7 2
  16    6    8 1
  17    8   38 1
  18    9   10 1
  19    9   51 1
  20    9   52 1
  21   10   11 1
  22   10   53 1
  23   11   12 ar
  24   11   16 ar
  25   12   13 ar
  26   12   54 1
  27   13   14 ar
  28   13   55 1
  29   14   15 ar
  30   14   56 1
  31   15   16 ar
  32   15   57 1
  33   17   18 1
  34   18   19 1
  35   18   58 1
  36   18   59 1
  37   19   20 am
  38   19   21 2
  39   20   22 1
  40   20   60 1
  41   22   23 1
  42   22   61 1
  43   22   62 1
  44   23   24 1
  45   23   35 1
  46   23   63 1
  47   24   25 am
  48   24   64 1
  49   25   26 1
  50   25   31 2
  51   26   27 1
  52   26   65 1
  53   26   66 1
  54   27   28 1
  55   27   34 1
  56   27   67 1
  57   28   29 1
  58   28   68 1
  59   28   69 1
  60   29   30 1
  61   29   32 1
  62   29   33 1
  63   30   70 1
  64   30   71 1
  65   30   72 1
  66   32   73 1
  67   32   74 1
  68   32   75 1
  69   33   76 1
  70   33   77 1
  71   33   78 1
  72   34   79 1
  73   34   80 1
  74   34   81 1
  75   35   36 2
  76   35   37 1
  77   37   82 1
  78   38   39 1
  79   38   83 1
  80   38   84 1
  81   39   40 ar
  82   39   44 ar
  83   40   41 ar
  84   40   85 1
  85   41   42 ar
  86   41   86 1
  87   42   43 ar
  88   42   87 1
  89   43   44 ar
  90   43   88 1
  91   44   89 1

#	End of record

