#	Name: ASD03331988
#	Creating user name:	WinNT
#	Creation time:	15. 06. 2019 20:40

#	Modifying user name:	WinNT
#	Modification time:	15. 06. 2019 20:40

#	Program:	/corina/corina34_cracker 3.40 0067  02.08.2006

@<TRIPOS>MOLECULE
ASD03331988
  60   62    0    0    0
SMALL
NO_CHARGES


@<TRIPOS>ATOM
   1 C1            -0.3228     1.1662     0.8587 C.2     
   2 N2            -0.3512    -0.1668     1.0928 N.pl3   
   3 C3             0.9380    -0.5838     1.2534 C.2     
   4 N4             1.7307     0.4560     1.1423 N.2     
   5 C5             0.9824     1.5544     0.9011 C.2     
   6 C6             1.4873     2.9264     0.7160 C.2     
   7 O7             0.7097     3.8370     0.5029 O.2     
   8 N8             2.8108     3.1722     0.7830 N.am    
   9 C9             3.3127     4.5361     0.5991 C.3     
  10 C10            3.4846     4.8193    -0.8946 C.3     
  11 C11            4.3791     3.7457    -1.5176 C.3     
  12 C12            4.6423     4.6801     1.2938 C.2     
  13 C13            2.1156     4.8019    -1.5778 C.3     
  14 C14            4.1308     6.1933    -1.0823 C.3     
  15 O15            5.2307     3.6952     1.6872 O.2     
  16 N16            5.1775     5.9032     1.4780 N.am    
  17 C17            6.5025     6.0387     2.0881 C.3     
  18 C18           -1.5605    -0.9908     1.1729 C.3     
  19 C19           -2.4718    -0.6626    -0.0137 C.3     
  20 C20           -3.3830     0.5071     0.3442 C.3     
  21 N21           -2.7024     1.4500     1.2343 N.3     
  22 C22           -1.5210     2.0384     0.5864 C.3     
  23 C23           -3.6243     2.4957     1.6977 C.3     
  24 C24            1.3698    -1.9755     1.5103 C.ar    
  25 C25            2.6217    -2.4115     1.0766 C.ar    
  26 C26            3.0190    -3.7117     1.3201 C.ar    
  27 C27            2.1772    -4.5807     1.9929 C.ar    
  28 C28            0.9344    -4.1531     2.4251 C.ar    
  29 C29            0.5286    -2.8552     2.1925 C.ar    
  30 Cl30           4.5763    -4.2572     0.7810 Cl      
  31 H31            3.4309     2.4459     0.9530 H       
  32 H32            2.6022     5.2452     1.0239 H       
  33 H33            3.9187     2.7667    -1.3840 H       
  34 H34            4.5015     3.9473    -2.5818 H       
  35 H35            5.3543     3.7580    -1.0309 H       
  36 H36            1.4784     5.5667    -1.1340 H       
  37 H37            2.2380     5.0036    -2.6419 H       
  38 H38            1.6553     3.8230    -1.4441 H       
  39 H39            5.0902     6.2172    -0.5656 H       
  40 H40            4.2856     6.3800    -2.1449 H       
  41 H41            3.4768     6.9617    -0.6699 H       
  42 H42            4.6853     6.6938     1.2066 H       
  43 H43            6.7656     7.0944     2.1545 H       
  44 H44            6.4883     5.6043     3.0877 H       
  45 H45            7.2392     5.5184     1.4762 H       
  46 H46           -1.2857    -2.0451     1.1406 H       
  47 H47           -2.0849    -0.7784     2.1046 H       
  48 H48           -1.8615    -0.3959    -0.8766 H       
  49 H49           -3.0794    -1.5345    -0.2562 H       
  50 H50           -3.6761     1.0250    -0.5691 H       
  51 H51           -4.2755     0.1266     0.8409 H       
  52 H52           -1.3442     3.0362     0.9880 H       
  53 H53           -1.6887     2.1018    -0.4888 H       
  54 H54           -4.4508     2.0370     2.2405 H       
  55 H55           -3.0932     3.1822     2.3569 H       
  56 H56           -4.0130     3.0437     0.8394 H       
  57 H57            3.2787    -1.7341     0.5514 H       
  58 H58            2.4917    -5.5966     2.1808 H       
  59 H59            0.2822    -4.8358     2.9495 H       
  60 H60           -0.4417    -2.5230     2.5309 H       
@<TRIPOS>BOND
   1    1    2 1
   2    1    5 2
   3    1   22 1
   4    2    3 1
   5    2   18 1
   6    3    4 2
   7    3   24 1
   8    4    5 1
   9    5    6 1
  10    6    7 2
  11    6    8 am
  12    8    9 1
  13    8   31 1
  14    9   10 1
  15    9   12 1
  16    9   32 1
  17   10   11 1
  18   10   13 1
  19   10   14 1
  20   11   33 1
  21   11   34 1
  22   11   35 1
  23   12   15 2
  24   12   16 am
  25   13   36 1
  26   13   37 1
  27   13   38 1
  28   14   39 1
  29   14   40 1
  30   14   41 1
  31   16   17 1
  32   16   42 1
  33   17   43 1
  34   17   44 1
  35   17   45 1
  36   18   19 1
  37   18   46 1
  38   18   47 1
  39   19   20 1
  40   19   48 1
  41   19   49 1
  42   20   21 1
  43   20   50 1
  44   20   51 1
  45   21   22 1
  46   21   23 1
  47   22   52 1
  48   22   53 1
  49   23   54 1
  50   23   55 1
  51   23   56 1
  52   24   25 ar
  53   24   29 ar
  54   25   26 ar
  55   25   57 1
  56   26   27 ar
  57   26   30 1
  58   27   28 ar
  59   27   58 1
  60   28   29 ar
  61   28   59 1
  62   29   60 1

#	End of record

