#	Name: ASD02408104
#	Creating user name:	WinNT
#	Creation time:	15. 06. 2019 20:21

#	Modifying user name:	WinNT
#	Modification time:	15. 06. 2019 20:21

#	Program:	/corina/corina34_cracker 3.40 0067  02.08.2006

@<TRIPOS>MOLECULE
ASD02408104
  41   43    0    0    0
SMALL
NO_CHARGES


@<TRIPOS>ATOM
   1 C1             0.5338     0.6383    -0.2459 C.ar    
   2 C2             0.8040    -0.6930    -0.4987 C.ar    
   3 C3             1.6609     1.6363    -0.1769 C.3     
   4 C4             1.7497     2.3847    -1.4819 C.2     
   5 N5             2.6990     3.3294    -1.6275 N.am    
   6 N6             0.9076     2.0924    -2.4355 N.2     
   7 C7             0.9397     2.7241    -3.6159 C.2     
   8 C8             1.9014     3.7245    -3.8338 C.2     
   9 C9             2.8075     4.0187    -2.7827 C.2     
  10 N10            0.0425     2.3970    -4.6028 N.pl3   
  11 C11           -1.3620     2.1170    -4.2747 C.3     
  12 O12            3.6618     4.8775    -2.9183 O.2     
  13 C13           -0.2299    -1.6088    -0.5625 C.ar    
  14 C14           -1.5348    -1.1939    -0.3734 C.ar    
  15 C15           -1.8074     0.1372    -0.1198 C.ar    
  16 C16           -0.7735     1.0561    -0.0615 C.ar    
  17 F17           -1.0388     2.3573     0.1867 F       
  18 C18           -1.7419     0.7521    -4.8576 C.3     
  19 C19           -1.4315     0.7376    -6.3561 C.3     
  20 C20            0.0684     0.9538    -6.5703 C.3     
  21 C21            0.4675     2.3264    -6.0075 C.3     
  22 O22           -1.8145    -0.5230    -6.9095 O.3     
  23 C23            1.9684     4.4231    -5.0821 C.1     
  24 N24            2.0216     4.9773    -6.0723 N.1     
  25 H25            1.8231    -1.0182    -0.6470 H       
  26 H26            1.4736     2.3405     0.6337 H       
  27 H27            2.5992     1.1127     0.0062 H       
  28 H28            3.3088     3.5158    -0.8966 H       
  29 H29           -1.4880     2.0998    -3.1922 H       
  30 H30           -1.9991     2.8888    -4.7066 H       
  31 H31           -0.0178    -2.6491    -0.7605 H       
  32 H32           -2.3416    -1.9100    -0.4241 H       
  33 H33           -2.8270     0.4613     0.0276 H       
  34 H34           -1.1673    -0.0288    -4.3595 H       
  35 H35           -2.8064     0.5748    -4.7048 H       
  36 H36           -1.9874     1.5347    -6.8499 H       
  37 H37            0.6259     0.1710    -6.0560 H       
  38 H38            0.2923     0.9201    -7.6365 H       
  39 H39           -0.0209     3.1132    -6.5825 H       
  40 H40            1.5493     2.4453    -6.0671 H       
  41 H41           -1.6462    -0.6035    -7.8583 H       
@<TRIPOS>BOND
   1    1    2 ar
   2    1    3 1
   3    1   16 ar
   4    2   13 ar
   5    2   25 1
   6    3    4 1
   7    3   26 1
   8    3   27 1
   9    4    5 1
  10    4    6 2
  11    5    9 am
  12    5   28 1
  13    6    7 1
  14    7    8 2
  15    7   10 1
  16    8    9 1
  17    8   23 1
  18    9   12 2
  19   10   11 1
  20   10   21 1
  21   11   18 1
  22   11   29 1
  23   11   30 1
  24   13   14 ar
  25   13   31 1
  26   14   15 ar
  27   14   32 1
  28   15   16 ar
  29   15   33 1
  30   16   17 1
  31   18   19 1
  32   18   34 1
  33   18   35 1
  34   19   20 1
  35   19   22 1
  36   19   36 1
  37   20   21 1
  38   20   37 1
  39   20   38 1
  40   21   39 1
  41   21   40 1
  42   22   41 1
  43   23   24 3

#	End of record

