#	Name: ASD00310248
#	Creating user name:	WinNT
#	Creation time:	15. 06. 2019 18:34

#	Modifying user name:	WinNT
#	Modification time:	15. 06. 2019 18:34

#	Program:	/corina/corina34_cracker 3.40 0067  02.08.2006

@<TRIPOS>MOLECULE
ASD00310248
  34   34    0    0    0
SMALL
NO_CHARGES


@<TRIPOS>ATOM
   1 C1            -0.0184     1.5028     0.0103 C.2     
   2 C2             0.0021    -0.0041     0.0020 C.3     
   3 C3            -0.7002    -0.5305     1.2552 C.3     
   4 O4             1.0197     2.1211     0.0037 O.2     
   5 O5            -1.1898     2.1580     0.0194 O.3     
   6 C6            -0.7241    -0.5171    -1.2431 C.3     
   7 C7             1.4295    -0.4870    -0.0142 C.ar    
   8 C8             2.2696    -0.1348    -1.0609 C.ar    
   9 C9             3.5829    -0.5807    -1.0734 C.ar    
  10 C10            4.0517    -1.3747    -0.0432 C.ar    
  11 C11            3.2116    -1.7246     0.9987 C.ar    
  12 C12            1.9039    -1.2758     1.0157 C.ar    
  13 O13            1.8062     0.6454    -2.0725 O.3     
  14 C14            2.7268     0.9683    -3.1167 C.3     
  15 Br15           5.8420    -1.9834    -0.0589 Br      
  16 C16           -1.1335     3.6089     0.0270 C.3     
  17 C17           -2.5551     4.1744     0.0369 C.3     
  18 H18           -1.7327    -0.1812     1.2669 H       
  19 H19           -0.6854    -1.6204     1.2492 H       
  20 H20           -0.1829    -0.1650     2.1423 H       
  21 H21           -0.2238    -0.1421    -2.1359 H       
  22 H22           -0.7093    -1.6070    -1.2491 H       
  23 H23           -1.7565    -0.1678    -1.2314 H       
  24 H24            4.2385    -0.3082    -1.8872 H       
  25 H25            3.5792    -2.3452     1.8025 H       
  26 H26            1.2513    -1.5463     1.8327 H       
  27 H27            3.5772     1.5063    -2.6978 H       
  28 H28            3.0751     0.0506    -3.5906 H       
  29 H29            2.2302     1.5943    -3.8581 H       
  30 H30           -0.6017     3.9472     0.9164 H       
  31 H31           -0.6102     3.9569    -0.8636 H       
  32 H32           -2.5128     5.2636     0.0426 H       
  33 H33           -3.0869     3.8361    -0.8525 H       
  34 H34           -3.0784     3.8265     0.9275 H       
@<TRIPOS>BOND
   1    1    2 1
   2    1    4 2
   3    1    5 1
   4    2    3 1
   5    2    6 1
   6    2    7 1
   7    3   18 1
   8    3   19 1
   9    3   20 1
  10    5   16 1
  11    6   21 1
  12    6   22 1
  13    6   23 1
  14    7    8 ar
  15    7   12 ar
  16    8    9 ar
  17    8   13 1
  18    9   10 ar
  19    9   24 1
  20   10   11 ar
  21   10   15 1
  22   11   12 ar
  23   11   25 1
  24   12   26 1
  25   13   14 1
  26   14   27 1
  27   14   28 1
  28   14   29 1
  29   16   17 1
  30   16   30 1
  31   16   31 1
  32   17   32 1
  33   17   33 1
  34   17   34 1

#	End of record

