#	Name: ASD03080023
#	Creating user name:	WinNT
#	Creation time:	15. 06. 2019 20:26

#	Modifying user name:	WinNT
#	Modification time:	15. 06. 2019 20:26

#	Program:	/corina/corina34_cracker 3.40 0067  02.08.2006

@<TRIPOS>MOLECULE
ASD03080023
  27   29    0    0    0
SMALL
NO_CHARGES


@<TRIPOS>ATOM
   1 C1            -0.0168     1.3873     0.0097 C.ar    
   2 C2             0.0021    -0.0041     0.0020 C.ar    
   3 C3             1.2051    -0.6783    -0.0127 C.ar    
   4 C4             2.4046     0.0381    -0.0203 C.ar    
   5 C5             2.3801     1.4341    -0.0131 C.ar    
   6 C6             1.1739     2.1012     0.0021 C.ar    
   7 O7             3.8704    -2.0103    -0.0439 O.3     
   8 N8             5.0547    -2.2710    -0.0559 N.2     
   9 C9             5.7629    -1.1707    -0.0567 C.2     
  10 N10            4.8982    -0.1350    -0.0436 N.2     
  11 C11            3.6953    -0.6795    -0.0356 C.2     
  12 C12            7.8767     0.1625    -0.0680 C.ar    
  13 C13            7.2444    -1.0789    -0.0691 C.ar    
  14 C14            8.0272    -2.2360    -0.0816 C.ar    
  15 C15            9.4048    -2.0969    -0.0924 C.ar    
  16 C16            9.9565    -0.8290    -0.0905 C.ar    
  17 N17            9.1912     0.2455    -0.0781 N.ar    
  18 F18           -1.1589    -0.6949     0.0094 F       
  19 O19           -1.2031     2.0487     0.0189 O.3     
  20 H20            1.2200    -1.7582    -0.0179 H       
  21 H21            3.3055     1.9909    -0.0186 H       
  22 H22            1.1551     3.1810     0.0078 H       
  23 H23            7.2836     1.0650    -0.0629 H       
  24 H24            7.5695    -3.2142    -0.0824 H       
  25 H25           10.0415    -2.9692    -0.1018 H       
  26 H26           11.0306    -0.7166    -0.0989 H       
  27 H27           -1.5425     2.2355     0.9049 H       
@<TRIPOS>BOND
   1    1    2 ar
   2    1    6 ar
   3    1   19 1
   4    2    3 ar
   5    2   18 1
   6    3    4 ar
   7    3   20 1
   8    4    5 ar
   9    4   11 1
  10    5    6 ar
  11    5   21 1
  12    6   22 1
  13    7    8 1
  14    7   11 1
  15    8    9 2
  16    9   10 1
  17    9   13 1
  18   10   11 2
  19   12   13 ar
  20   12   17 ar
  21   12   23 1
  22   13   14 ar
  23   14   15 ar
  24   14   24 1
  25   15   16 ar
  26   15   25 1
  27   16   17 ar
  28   16   26 1
  29   19   27 1

#	End of record

