#	Name: ASD01840030
#	Creating user name:	WinNT
#	Creation time:	15. 06. 2019 19:37

#	Modifying user name:	WinNT
#	Modification time:	15. 06. 2019 19:37

#	Program:	/corina/corina34_cracker 3.40 0067  02.08.2006

@<TRIPOS>MOLECULE
ASD01840030
  32   34    0    0    0
SMALL
NO_CHARGES


@<TRIPOS>ATOM
   1 C1            -0.0168     1.3895     0.0097 C.ar    
   2 C2             0.0021    -0.0041     0.0020 C.ar    
   3 C3             1.2343    -0.6631    -0.0133 C.ar    
   4 C4             2.3881     0.1020    -0.0202 C.ar    
   5 C5             2.2854     1.4809    -0.0118 C.ar    
   6 N6             1.1078     2.0752     0.0026 N.ar    
   7 N7            -2.7962    -2.3174    -0.3491 N.pl3   
   8 N8            -1.4778    -1.9197    -0.6045 N.2     
   9 C9            -1.2651    -0.7751     0.0104 C.2     
  10 C10           -2.4536    -0.4100     0.6801 C.2     
  11 C11           -3.3760    -1.3748     0.4418 C.2     
  12 S12           -2.6945     1.0398     1.6520 S.3     
  13 C13           -4.4153     0.8801     2.2034 C.3     
  14 C14           -4.7801     2.0646     3.0607 C.ar    
  15 C15           -5.3143     3.1997     2.4801 C.ar    
  16 C16           -5.6488     4.2862     3.2665 C.ar    
  17 C17           -5.4496     4.2375     4.6335 C.ar    
  18 C18           -4.9163     3.1020     5.2142 C.ar    
  19 C19           -4.5858     2.0139     4.4284 C.ar    
  20 H20           -0.9621     1.9118     0.0170 H       
  21 H21            1.2852    -1.7419    -0.0192 H       
  22 H22            3.3580    -0.3730    -0.0316 H       
  23 H23            3.1835     2.0808    -0.0171 H       
  24 H24           -3.2228    -3.1225    -0.6817 H       
  25 H25           -4.3898    -1.3919     0.8136 H       
  26 H26           -5.0732     0.8438     1.3350 H       
  27 H27           -4.5277    -0.0362     2.7829 H       
  28 H28           -5.4699     3.2378     1.4120 H       
  29 H29           -6.0655     5.1733     2.8128 H       
  30 H30           -5.7103     5.0866     5.2478 H       
  31 H31           -4.7603     3.0641     6.2822 H       
  32 H32           -4.1725     1.1254     4.8825 H       
@<TRIPOS>BOND
   1    1    2 ar
   2    1    6 ar
   3    1   20 1
   4    2    3 ar
   5    2    9 1
   6    3    4 ar
   7    3   21 1
   8    4    5 ar
   9    4   22 1
  10    5    6 ar
  11    5   23 1
  12    7    8 1
  13    7   11 1
  14    7   24 1
  15    8    9 2
  16    9   10 1
  17   10   11 2
  18   10   12 1
  19   11   25 1
  20   12   13 1
  21   13   14 1
  22   13   26 1
  23   13   27 1
  24   14   15 ar
  25   14   19 ar
  26   15   16 ar
  27   15   28 1
  28   16   17 ar
  29   16   29 1
  30   17   18 ar
  31   17   30 1
  32   18   19 ar
  33   18   31 1
  34   19   32 1

#	End of record

