#	Name: ASD01140736
#	Creating user name:	WinNT
#	Creation time:	15. 06. 2019 19:01

#	Modifying user name:	WinNT
#	Modification time:	15. 06. 2019 19:01

#	Program:	/corina/corina34_cracker 3.40 0067  02.08.2006

@<TRIPOS>MOLECULE
ASD01140736
  52   55    0    0    0
SMALL
NO_CHARGES


@<TRIPOS>ATOM
   1 C1            -0.0184     1.5028     0.0103 C.3     
   2 C2             0.0021    -0.0041     0.0020 C.2     
   3 O3             0.0086    -0.7986    -1.0777 O.3     
   4 N4             0.0264    -1.9689    -0.7746 N.2     
   5 C5             0.0343    -2.1265     0.5255 C.2     
   6 C6             0.0234    -0.8174     1.0824 C.2     
   7 C7             0.0319    -0.4275     2.5381 C.3     
   8 O8            -1.3125    -0.3232     3.0111 O.3     
   9 C9            -1.4824     0.0219     4.3106 C.ar    
  10 C10           -2.7662     0.1362     4.8394 C.ar    
  11 C11           -2.8921     0.4912     6.1717 C.ar    
  12 C12           -1.7212     0.7132     6.9053 C.ar    
  13 N13           -0.5389     0.5804     6.3159 N.ar    
  14 N14           -0.4260     0.2459     5.0818 N.ar    
  15 C15           -1.8006     1.0951     8.3323 C.2     
  16 O16           -2.8840     1.2164     8.8696 O.2     
  17 N17           -0.6714     1.3084     9.0366 N.am    
  18 C18           -0.7500     1.6865    10.4498 C.3     
  19 C19           -0.8624     0.4255    11.3121 C.3     
  20 C20           -0.8645     0.8258    12.7898 C.3     
  21 O21            0.3252     1.5605    13.0847 O.3     
  22 C22            0.4607     2.7739    12.3422 C.3     
  23 C23            0.5161     2.4519    10.8466 C.3     
  24 C24            0.0556    -3.4119     1.2683 C.ar    
  25 C25           -0.4350    -4.5751     0.6722 C.ar    
  26 C26           -0.3922    -5.7499     1.4090 C.ar    
  27 C27            0.1343    -5.6973     2.6904 C.ar    
  28 C28            0.2015    -6.9479     3.5287 C.3     
  29 N29            0.5773    -4.5527     3.1768 N.ar    
  30 N30            0.5462    -3.4623     2.5004 N.ar    
  31 H31            1.0042     1.8801     0.0026 H       
  32 H32           -0.5455     1.8639    -0.8728 H       
  33 H33           -0.5286     1.8543     0.9071 H       
  34 H34            0.5620    -1.1859     3.1143 H       
  35 H35            0.5335     0.5332     2.6540 H       
  36 H36           -3.6375    -0.0462     4.2280 H       
  37 H37           -3.8643     0.5938     6.6308 H       
  38 H38            0.1932     1.2115     8.6078 H       
  39 H39           -1.6235     2.3185    10.6101 H       
  40 H40           -1.7893    -0.0966    11.0749 H       
  41 H41           -0.0135    -0.2286    11.1132 H       
  42 H42           -1.7360     1.4469    12.9969 H       
  43 H43           -0.9012    -0.0704    13.4091 H       
  44 H44           -0.3934     3.4205    12.5434 H       
  45 H45            1.3787     3.2811    12.6391 H       
  46 H46            1.3928     1.8387    10.6382 H       
  47 H47            0.5750     3.3790    10.2763 H       
  48 H48           -0.8355    -4.5608    -0.3307 H       
  49 H49           -0.7587    -6.6783     0.9965 H       
  50 H50            1.1527    -7.4511     3.3549 H       
  51 H51            0.1176    -6.6836     4.5828 H       
  52 H52           -0.6170    -7.6134     3.2546 H       
@<TRIPOS>BOND
   1    1    2 1
   2    1   31 1
   3    1   32 1
   4    1   33 1
   5    2    6 2
   6    2    3 1
   7    3    4 1
   8    4    5 2
   9    5    6 1
  10    5   24 1
  11    6    7 1
  12    7    8 1
  13    7   34 1
  14    7   35 1
  15    8    9 1
  16    9   14 ar
  17    9   10 ar
  18   10   11 ar
  19   10   36 1
  20   11   12 ar
  21   11   37 1
  22   12   13 ar
  23   12   15 1
  24   13   14 ar
  25   15   16 2
  26   15   17 am
  27   17   18 1
  28   17   38 1
  29   18   23 1
  30   18   19 1
  31   18   39 1
  32   19   20 1
  33   19   40 1
  34   19   41 1
  35   20   21 1
  36   20   42 1
  37   20   43 1
  38   21   22 1
  39   22   23 1
  40   22   44 1
  41   22   45 1
  42   23   46 1
  43   23   47 1
  44   24   30 ar
  45   24   25 ar
  46   25   26 ar
  47   25   48 1
  48   26   27 ar
  49   26   49 1
  50   27   28 1
  51   27   29 ar
  52   28   50 1
  53   28   51 1
  54   28   52 1
  55   29   30 ar

#	End of record

