#	Name: ASD01915258
#	Creating user name:	WinNT
#	Creation time:	15. 06. 2019 20:05

#	Modifying user name:	WinNT
#	Modification time:	15. 06. 2019 20:05

#	Program:	/corina/corina34_cracker 3.40 0067  02.08.2006

@<TRIPOS>MOLECULE
ASD01915258
  44   46    0    0    0
SMALL
NO_CHARGES


@<TRIPOS>ATOM
   1 C1             0.0813     1.3829     0.1530 C.ar    
   2 C2             0.0905    -0.0034     0.1317 C.ar    
   3 C3            -1.1108    -0.6854     0.1721 C.ar    
   4 N4            -2.2554    -0.0330     0.2296 N.ar    
   5 C5            -2.3021     1.2847     0.2514 C.ar    
   6 C6            -1.1411     2.0338     0.2196 C.ar    
   7 C7             1.3697     2.1636     0.1110 C.3     
   8 O8             1.7208     2.4306    -1.2483 O.3     
   9 C9             2.9339     3.1702    -1.4007 C.3     
  10 C10            3.2055     3.3934    -2.8661 C.2     
  11 N11            4.3035     4.0728    -3.2522 N.am    
  12 O12            2.4359     2.9616    -3.6981 O.2     
  13 C13            4.5874     4.3018    -4.6770 C.3     
  14 C14            4.8555     5.7961    -4.8859 C.3     
  15 N15            5.9117     6.2344    -3.9639 N.3     
  16 C16            5.4917     6.0872    -2.5639 C.3     
  17 C17            5.2466     4.6102    -2.2596 C.3     
  18 C18            6.2993     7.5502    -4.2350 C.ar    
  19 C19            6.0361     8.5563    -3.3154 C.ar    
  20 C20            6.4201     9.8557    -3.5858 C.ar    
  21 C21            7.0660    10.1553    -4.7719 C.ar    
  22 C22            7.3297     9.1548    -5.6914 C.ar    
  23 C23            6.9540     7.8524    -5.4235 C.ar    
  24 Cl24           7.5463    11.7893    -5.1080 Cl      
  25 Cl25           7.2848     6.5978    -6.5769 Cl      
  26 H26            1.0246    -0.5434     0.0839 H       
  27 H27           -1.1123    -1.7653     0.1559 H       
  28 H28           -3.2584     1.7842     0.2984 H       
  29 H29           -1.1858     3.1128     0.2379 H       
  30 H30            1.2415     3.1052     0.6448 H       
  31 H31            2.1619     1.5829     0.5835 H       
  32 H32            2.8382     4.1327    -0.8982 H       
  33 H33            3.7586     2.6105    -0.9595 H       
  34 H34            5.4655     3.7275    -4.9723 H       
  35 H35            3.7288     3.9968    -5.2751 H       
  36 H36            5.1755     5.9680    -5.9136 H       
  37 H37            3.9438     6.3602    -4.6892 H       
  38 H38            6.2731     6.4703    -1.9075 H       
  39 H39            4.5712     6.6472    -2.3995 H       
  40 H40            4.8259     4.5073    -1.2593 H       
  41 H41            6.1868     4.0624    -2.3226 H       
  42 H42            5.5312     8.3235    -2.3895 H       
  43 H43            6.2154    10.6385    -2.8705 H       
  44 H44            7.8335     9.3917    -6.6168 H       
@<TRIPOS>BOND
   1    1    2 ar
   2    1    7 1
   3    1    6 ar
   4    2    3 ar
   5    2   26 1
   6    3    4 ar
   7    3   27 1
   8    4    5 ar
   9    5    6 ar
  10    5   28 1
  11    6   29 1
  12    7    8 1
  13    7   30 1
  14    7   31 1
  15    8    9 1
  16    9   10 1
  17    9   32 1
  18    9   33 1
  19   10   11 am
  20   10   12 2
  21   11   13 1
  22   11   17 1
  23   13   14 1
  24   13   34 1
  25   13   35 1
  26   14   15 1
  27   14   36 1
  28   14   37 1
  29   15   16 1
  30   15   18 1
  31   16   17 1
  32   16   38 1
  33   16   39 1
  34   17   40 1
  35   17   41 1
  36   18   19 ar
  37   18   23 ar
  38   19   20 ar
  39   19   42 1
  40   20   21 ar
  41   20   43 1
  42   21   22 ar
  43   21   24 1
  44   22   23 ar
  45   22   44 1
  46   23   25 1

#	End of record

