#	Name: ASD01810550
#	Creating user name:	WinNT
#	Creation time:	15. 06. 2019 19:24

#	Modifying user name:	WinNT
#	Modification time:	15. 06. 2019 19:24

#	Program:	/corina/corina34_cracker 3.40 0067  02.08.2006

@<TRIPOS>MOLECULE
ASD01810550
  50   54    0    0    0
SMALL
NO_CHARGES


@<TRIPOS>ATOM
   1 C1            -0.0166     1.3753     0.0096 C.ar    
   2 C2             0.0021    -0.0041     0.0020 C.ar    
   3 C3             1.2091    -0.6848    -0.0131 C.ar    
   4 C4             2.4041     0.0035    -0.0208 C.ar    
   5 C5             2.4071     1.3943    -0.0134 C.ar    
   6 C6             1.1822     2.0811     0.0019 C.ar    
   7 N7             3.6032     2.0911    -0.0216 N.pl3   
   8 C8             3.6682     3.4322    -0.0147 C.2     
   9 C9             2.5370     4.2098     0.0011 C.2     
  10 C10            1.2082     3.5566     0.0096 C.2     
  11 C11            2.2570     5.6421     0.0120 C.2     
  12 N12            0.9118     5.7622     0.0259 N.am    
  13 N13            0.3123     4.5002     0.0239 N.2     
  14 C14            0.1851     7.0341     0.0405 C.3     
  15 C15           -0.0780     7.4787    -1.3752 C.ar    
  16 O16            3.0739     6.5488     0.0097 O.2     
  17 C17            4.8552     1.3305    -0.0379 C.3     
  18 C18            5.2704     1.0772    -1.4643 C.ar    
  19 C19            6.0824     1.9842    -2.1192 C.ar    
  20 C20            6.4633     1.7519    -3.4276 C.ar    
  21 C21            6.0326     0.6124    -4.0809 C.ar    
  22 C22            5.2213    -0.2951    -3.4257 C.ar    
  23 C23            4.8440    -0.0649    -2.1159 C.ar    
  24 C24           -1.2382     7.0886    -2.0179 C.ar    
  25 C25           -1.4795     7.4963    -3.3163 C.ar    
  26 C26           -0.5608     8.2946    -3.9722 C.ar    
  27 C27            0.5987     8.6853    -3.3294 C.ar    
  28 C28            0.8380     8.2811    -2.0291 C.ar    
  29 C29           -2.7437     7.0703    -4.0173 C.3     
  30 H30           -0.9578     1.9050     0.0170 H       
  31 H31           -0.9267    -0.5551     0.0083 H       
  32 H32            1.2140    -1.7648    -0.0186 H       
  33 H33            3.3385    -0.5379    -0.0323 H       
  34 H34            4.6359     3.9117    -0.0215 H       
  35 H35           -0.7628     6.9050     0.5629 H       
  36 H36            0.7826     7.7881     0.5530 H       
  37 H37            5.6328     1.8998     0.4712 H       
  38 H38            4.7087     0.3785     0.4723 H       
  39 H39            6.4190     2.8745    -1.6088 H       
  40 H40            7.0971     2.4609    -3.9395 H       
  41 H41            6.3296     0.4312    -5.1033 H       
  42 H42            4.8845    -1.1852    -3.9362 H       
  43 H43            4.2102    -0.7739    -1.6040 H       
  44 H44           -1.9559     6.4650    -1.5055 H       
  45 H45           -0.7490     8.6126    -4.9871 H       
  46 H46            1.3165     9.3087    -3.8419 H       
  47 H47            1.7440     8.5864    -1.5267 H       
  48 H48           -3.5264     7.8064    -3.8341 H       
  49 H49           -2.5579     6.9966    -5.0888 H       
  50 H50           -3.0612     6.0998    -3.6359 H       
@<TRIPOS>BOND
   1    1    2 ar
   2    1    6 ar
   3    1   30 1
   4    2    3 ar
   5    2   31 1
   6    3    4 ar
   7    3   32 1
   8    4    5 ar
   9    4   33 1
  10    5    6 ar
  11    5    7 1
  12    6   10 1
  13    7    8 1
  14    7   17 1
  15    8    9 2
  16    8   34 1
  17    9   10 1
  18    9   11 1
  19   10   13 2
  20   11   12 am
  21   11   16 2
  22   12   13 1
  23   12   14 1
  24   14   15 1
  25   14   35 1
  26   14   36 1
  27   15   24 ar
  28   15   28 ar
  29   17   18 1
  30   17   37 1
  31   17   38 1
  32   18   19 ar
  33   18   23 ar
  34   19   20 ar
  35   19   39 1
  36   20   21 ar
  37   20   40 1
  38   21   22 ar
  39   21   41 1
  40   22   23 ar
  41   22   42 1
  42   23   43 1
  43   24   25 ar
  44   24   44 1
  45   25   26 ar
  46   25   29 1
  47   26   27 ar
  48   26   45 1
  49   27   28 ar
  50   27   46 1
  51   28   47 1
  52   29   48 1
  53   29   49 1
  54   29   50 1

#	End of record

