#	Name: ASD00890009
#	Creating user name:	WinNT
#	Creation time:	15. 06. 2019 18:53

#	Modifying user name:	WinNT
#	Modification time:	15. 06. 2019 18:53

#	Program:	/corina/corina34_cracker 3.40 0067  02.08.2006

@<TRIPOS>MOLECULE
ASD00890009
  56   60    0    0    0
SMALL
NO_CHARGES


@<TRIPOS>ATOM
   1 C1             0.5987     0.6178    -0.6526 C.ar    
   2 C2             0.7006    -0.7575    -0.7612 C.ar    
   3 C3             1.9409    -1.3626    -0.7566 C.ar    
   4 C4             3.0918    -0.5856    -0.6423 C.ar    
   5 C5             2.9835     0.7988    -0.5332 C.ar    
   6 C6             1.7378     1.3938    -0.5389 C.ar    
   7 S7             1.5990     3.1449    -0.4011 S.o2    
   8 O8             0.2989     3.4053     0.1101 O.2     
   9 O9             2.7882     3.5929     0.2347 O.2     
  10 N10            1.6294     3.7615    -1.9377 N.am    
  11 C11            4.4288    -1.2310    -0.6363 C.2     
  12 C12            4.6786    -2.5687    -0.7348 C.2     
  13 N13            6.0186    -2.7378    -0.6896 N.pl3   
  14 N14            6.6139    -1.4772    -0.5602 N.2     
  15 C15            5.6705    -0.5728    -0.5339 C.2     
  16 C16            0.6523     3.3934    -2.8529 C.ar    
  17 C17           -0.6533     3.1804    -2.4317 C.ar    
  18 C18           -1.6241     2.8139    -3.3451 C.ar    
  19 C19           -1.3022     2.6558    -4.6873 C.ar    
  20 C20           -0.0131     2.8625    -5.1218 C.ar    
  21 C21            0.9787     3.2402    -4.2106 C.ar    
  22 C22            2.3591     3.4632    -4.6696 C.2     
  23 O23            2.6706     3.3035    -5.9712 O.3     
  24 O24            3.2182     3.7913    -3.8749 O.2     
  25 F25           -2.8932     2.6078    -2.9300 F       
  26 C26            6.6939    -3.9607    -0.7593 C.ar    
  27 C27            6.3279    -5.0044     0.0618 C.ar    
  28 C28            6.9931    -6.2257     0.0002 C.ar    
  29 C29            8.0209    -6.4230    -0.8703 C.ar    
  30 C30            8.4253    -5.3835    -1.7255 C.ar    
  31 C31            7.7524    -4.1381    -1.6755 C.ar    
  32 C32            9.4832    -5.5583    -2.6346 C.ar    
  33 C33            9.8489    -4.5303    -3.4481 C.ar    
  34 C34            9.1897    -3.3038    -3.3944 C.ar    
  35 C35            8.1571    -3.1008    -2.5304 C.ar    
  36 C36            5.1947    -4.8218     1.0383 C.3     
  37 H37           -0.3737     1.0877    -0.6611 H       
  38 H38           -0.1922    -1.3589    -0.8494 H       
  39 H39            2.0193    -2.4364    -0.8411 H       
  40 H40            3.8725     1.4057    -0.4444 H       
  41 H41            2.3298     4.3799    -2.1984 H       
  42 H42            3.9397    -3.3504    -0.8314 H       
  43 H43            5.8171     0.4933    -0.4423 H       
  44 H44           -0.9106     3.3007    -1.3897 H       
  45 H45           -2.0676     2.3689    -5.3932 H       
  46 H46            0.2318     2.7376    -6.1662 H       
  47 H47            3.5903     3.4611    -6.2250 H       
  48 H48            6.6890    -7.0298     0.6540 H       
  49 H49            8.5254    -7.3774    -0.9036 H       
  50 H50           10.0033    -6.5033    -2.6869 H       
  51 H51           10.6622    -4.6671    -4.1454 H       
  52 H52            9.4993    -2.5040    -4.0508 H       
  53 H53            7.6553    -2.1450    -2.4994 H       
  54 H54            4.2666    -5.1736     0.5878 H       
  55 H55            5.3991    -5.3941     1.9432 H       
  56 H56            5.0988    -3.7657     1.2903 H       
@<TRIPOS>BOND
   1    1    2 ar
   2    1    6 ar
   3    1   37 1
   4    2    3 ar
   5    2   38 1
   6    3    4 ar
   7    3   39 1
   8    4    5 ar
   9    4   11 1
  10    5    6 ar
  11    5   40 1
  12    6    7 1
  13    7    8 2
  14    7    9 2
  15    7   10 am
  16   10   16 1
  17   10   41 1
  18   11   12 2
  19   11   15 1
  20   12   13 1
  21   12   42 1
  22   13   14 1
  23   13   26 1
  24   14   15 2
  25   15   43 1
  26   16   17 ar
  27   16   21 ar
  28   17   18 ar
  29   17   44 1
  30   18   19 ar
  31   18   25 1
  32   19   20 ar
  33   19   45 1
  34   20   21 ar
  35   20   46 1
  36   21   22 1
  37   22   23 1
  38   22   24 2
  39   23   47 1
  40   26   27 ar
  41   26   31 ar
  42   27   28 ar
  43   27   36 1
  44   28   29 ar
  45   28   48 1
  46   29   30 ar
  47   29   49 1
  48   30   31 ar
  49   30   32 ar
  50   31   35 ar
  51   32   33 ar
  52   32   50 1
  53   33   34 ar
  54   33   51 1
  55   34   35 ar
  56   34   52 1
  57   35   53 1
  58   36   54 1
  59   36   55 1
  60   36   56 1

#	End of record

