#	Name: ASD00071107
#	Creating user name:	WinNT
#	Creation time:	15. 06. 2019 18:30

#	Modifying user name:	WinNT
#	Modification time:	15. 06. 2019 18:30

#	Program:	/corina/corina34_cracker 3.40 0067  02.08.2006

@<TRIPOS>MOLECULE
ASD00071107
  39   40    0    0    0
SMALL
NO_CHARGES


@<TRIPOS>ATOM
   1 C1             0.4277     1.4331    -0.2709 C.2     
   2 C2             0.2183    -0.0241    -0.1343 C.ar    
   3 C3             0.7087    -0.7008     0.9838 C.ar    
   4 C4             0.5102    -2.0604     1.1059 C.ar    
   5 C5            -0.1730    -2.7542     0.1229 C.ar    
   6 C6            -0.6622    -2.0897    -0.9888 C.ar    
   7 C7            -0.4755    -0.7276    -1.1197 C.ar    
   8 O8             1.5543     1.8893    -0.2551 O.2     
   9 N9            -0.6301     2.2551    -0.4187 N.am    
  10 N10            1.4407     0.0390     2.0363 N.pl3   
  11 O11            1.9807    -0.5678     2.9439 O.2     
  12 O12            1.5032     1.2547     1.9947 O.2     
  13 C13           -0.4225     3.6990    -0.5541 C.3     
  14 C14           -1.7553     4.3861    -0.7046 C.ar    
  15 C15           -2.4409     4.8247     0.4177 C.ar    
  16 C16           -3.6681     5.4572     0.2765 C.ar    
  17 C17           -4.2066     5.6499    -0.9813 C.ar    
  18 C18           -3.5252     5.2136    -2.1014 C.ar    
  19 C19           -2.2951     4.5857    -1.9658 C.ar    
  20 O20           -1.6227     4.1618    -3.0681 O.3     
  21 C21           -2.2384     4.4008    -4.3354 C.3     
  22 O22           -1.9120     4.6351     1.6550 O.3     
  23 C23           -2.6732     5.1126     2.7661 C.3     
  24 Cl24          -1.5181    -2.9689    -2.2168 Cl      
  25 H25            0.8894    -2.5847     1.9706 H       
  26 H26           -0.3249    -3.8188     0.2230 H       
  27 H27           -0.8612    -0.2090    -1.9849 H       
  28 H28           -1.5289     1.8906    -0.4354 H       
  29 H29            0.0835     4.0781     0.3337 H       
  30 H30            0.1898     3.8971    -1.4338 H       
  31 H31           -4.2027     5.7988     1.1505 H       
  32 H32           -5.1619     6.1420    -1.0891 H       
  33 H33           -3.9482     5.3654    -3.0835 H       
  34 H34           -1.5988     4.0142    -5.1288 H       
  35 H35           -3.2049     3.8979    -4.3704 H       
  36 H36           -2.3814     5.4725    -4.4736 H       
  37 H37           -3.6430     4.6151     2.7828 H       
  38 H38           -2.1389     4.8981     3.6917 H       
  39 H39           -2.8185     6.1887     2.6715 H       
@<TRIPOS>BOND
   1    1    2 1
   2    1    8 2
   3    1    9 am
   4    2    3 ar
   5    2    7 ar
   6    3    4 ar
   7    3   10 1
   8    4    5 ar
   9    4   25 1
  10    5    6 ar
  11    5   26 1
  12    6    7 ar
  13    6   24 1
  14    7   27 1
  15    9   13 1
  16    9   28 1
  17   10   11 2
  18   10   12 2
  19   13   14 1
  20   13   29 1
  21   13   30 1
  22   14   15 ar
  23   14   19 ar
  24   15   16 ar
  25   15   22 1
  26   16   17 ar
  27   16   31 1
  28   17   18 ar
  29   17   32 1
  30   18   19 ar
  31   18   33 1
  32   19   20 1
  33   20   21 1
  34   21   34 1
  35   21   35 1
  36   21   36 1
  37   22   23 1
  38   23   37 1
  39   23   38 1
  40   23   39 1

#	End of record

