#	Name: ASD02198839
#	Creating user name:	WinNT
#	Creation time:	15. 06. 2019 20:20

#	Modifying user name:	WinNT
#	Modification time:	15. 06. 2019 20:20

#	Program:	/corina/corina34_cracker 3.40 0067  02.08.2006

@<TRIPOS>MOLECULE
ASD02198839
  55   59    0    0    0
SMALL
NO_CHARGES


@<TRIPOS>ATOM
   1 C1            -0.0436     1.5036    -0.1143 C.2     
   2 C2            -0.0739     0.1638     0.0984 C.2     
   3 N3             1.0701    -0.5381     0.2607 N.pl3   
   4 N4             2.2347    -0.0038     0.2269 N.2     
   5 C5             2.4067     1.2858     0.0285 C.2     
   6 C6             1.2213     2.1371    -0.1600 C.2     
   7 C7             0.9780    -1.9174     0.4769 C.ar    
   8 C8             1.5796    -2.4898     1.5971 C.ar    
   9 C9             1.4862    -3.8552     1.8085 C.ar    
  10 C10            0.7944    -4.6506     0.9053 C.ar    
  11 C11            0.1957    -4.0780    -0.2104 C.ar    
  12 C12            0.2826    -2.7168    -0.4208 C.ar    
  13 C13            3.7638     1.8677    -0.0040 C.2     
  14 N14            4.3061     2.6075    -1.0170 N.pl3   
  15 N15            5.6079     2.9592    -0.6389 N.2     
  16 C16            5.8513     2.4599     0.5466 C.2     
  17 C17            4.7193     1.7720     0.9839 C.2     
  18 C18            3.6735     2.9519    -2.2183 C.ar    
  19 C19            2.9115     2.0103    -2.8977 C.ar    
  20 C20            2.2876     2.3500    -4.0827 C.ar    
  21 C21            2.4201     3.6263    -4.5951 C.ar    
  22 C22            3.1808     4.5714    -3.9207 C.ar    
  23 C23            3.8027     4.2363    -2.7283 C.ar    
  24 O24            1.3247     3.3403    -0.3480 O.2     
  25 N25            0.7003    -6.0306     1.1184 N.am    
  26 C26            0.0007    -6.9852     0.2449 C.3     
  27 C27            0.2120    -8.3432     0.9418 C.3     
  28 O28            1.0001    -8.0150     2.1224 O.3     
  29 C29            1.2376    -6.6986     2.1483 C.2     
  30 O30            1.8756    -6.1571     3.0294 O.2     
  31 O31            3.3111     5.8260    -4.4263 O.3     
  32 C32            2.6379     6.1030    -5.6560 C.3     
  33 F33            1.2629     5.9057    -5.4896 F       
  34 F34            2.8767     7.4299    -6.0298 F       
  35 F35            3.1150     5.2448    -6.6524 F       
  36 O36            2.2567    -1.7091     2.4796 O.3     
  37 C37            2.8475    -2.3636     3.6042 C.3     
  38 H38           -0.9548     2.0676    -0.2488 H       
  39 H39           -1.0239    -0.3482     0.1389 H       
  40 H40            1.9516    -4.3009     2.6751 H       
  41 H41           -0.3418    -4.6987    -0.9120 H       
  42 H42           -0.1836    -2.2741    -1.2886 H       
  43 H43            6.7747     2.5659     1.0966 H       
  44 H44            4.6133     1.2525     1.9248 H       
  45 H45            2.8069     1.0118    -2.4996 H       
  46 H46            1.6955     1.6164    -4.6096 H       
  47 H47            1.9315     3.8888    -5.5218 H       
  48 H48            4.3947     4.9704    -2.2020 H       
  49 H49           -1.0610    -6.7452     0.1880 H       
  50 H50            0.4466    -6.9918    -0.7497 H       
  51 H51           -0.7452    -8.7778     1.2300 H       
  52 H52            0.7620    -9.0244     0.2925 H       
  53 H53            2.0700    -2.8577     4.1868 H       
  54 H54            3.5673    -3.1047     3.2565 H       
  55 H55            3.3559    -1.6276     4.2271 H       
@<TRIPOS>BOND
   1    1    2 2
   2    1    6 1
   3    1   38 1
   4    2    3 1
   5    2   39 1
   6    3    4 1
   7    3    7 1
   8    4    5 2
   9    5    6 1
  10    5   13 1
  11    6   24 2
  12    7    8 ar
  13    7   12 ar
  14    8    9 ar
  15    8   36 1
  16    9   10 ar
  17    9   40 1
  18   10   11 ar
  19   10   25 1
  20   11   12 ar
  21   11   41 1
  22   12   42 1
  23   13   14 1
  24   13   17 2
  25   14   15 1
  26   14   18 1
  27   15   16 2
  28   16   17 1
  29   16   43 1
  30   17   44 1
  31   18   19 ar
  32   18   23 ar
  33   19   20 ar
  34   19   45 1
  35   20   21 ar
  36   20   46 1
  37   21   22 ar
  38   21   47 1
  39   22   23 ar
  40   22   31 1
  41   23   48 1
  42   25   26 1
  43   25   29 am
  44   26   27 1
  45   26   49 1
  46   26   50 1
  47   27   28 1
  48   27   51 1
  49   27   52 1
  50   28   29 1
  51   29   30 2
  52   31   32 1
  53   32   33 1
  54   32   34 1
  55   32   35 1
  56   36   37 1
  57   37   53 1
  58   37   54 1
  59   37   55 1

#	End of record

