#	Name: ASD01180148
#	Creating user name:	WinNT
#	Creation time:	15. 06. 2019 19:06

#	Modifying user name:	WinNT
#	Modification time:	15. 06. 2019 19:06

#	Program:	/corina/corina34_cracker 3.40 0067  02.08.2006

@<TRIPOS>MOLECULE
ASD01180148
  66   70    0    0    0
SMALL
NO_CHARGES


@<TRIPOS>ATOM
   1 C1            -0.1405    -4.7486    -6.3858 C.3     
   2 C2            -0.5827    -3.5849    -5.4963 C.3     
   3 C3            -0.9195    -2.3747    -6.3698 C.3     
   4 N4            -1.7706    -3.9799    -4.7278 N.3     
   5 C5            -2.9628    -4.0868    -5.6078 C.3     
   6 C6            -4.1664    -3.9636    -4.6489 C.3     
   7 C7            -3.6241    -3.2042    -3.4205 C.3     
   8 C8            -2.1385    -2.9326    -3.7405 C.3     
   9 H9            -2.0187    -1.9406    -4.1761 H       
  10 C10           -1.2870    -3.0680    -2.4766 C.3     
  11 N11            0.1281    -2.9115    -2.8220 N.am    
  12 C12            0.6685    -1.6799    -2.9081 C.2     
  13 O13           -0.0399    -0.6957    -2.8028 O.2     
  14 C14            2.1091    -1.5255    -3.1286 C.2     
  15 C15            2.6103    -1.6577    -4.3722 C.2     
  16 N16            3.9480    -1.5230    -4.6303 N.am    
  17 C17            4.4398    -1.6763    -6.0017 C.3     
  18 C18            4.1634    -3.1081    -6.5052 C.3     
  19 C19            2.8306    -2.9859    -7.2848 C.3     
  20 C20            2.9696    -1.6119    -7.9862 C.3     
  21 C21            3.6807    -0.7250    -6.9433 C.3     
  22 C22            4.8182    -1.2502    -3.6367 C.2     
  23 O23            6.0062    -1.1311    -3.8716 O.2     
  24 C24            4.3096    -1.0985    -2.2649 C.2     
  25 C25            4.9287    -0.8286    -1.0850 C.2     
  26 C26            6.4054    -0.6020    -0.8875 C.3     
  27 C27            3.9377    -0.7979    -0.0765 C.ar    
  28 C28            3.9794    -0.5716     1.3060 C.ar    
  29 C29            2.8265    -0.6070     2.0343 C.ar    
  30 C30            1.6079    -0.8659     1.4185 C.ar    
  31 C31            1.5400    -1.0919     0.0626 C.ar    
  32 C32            2.7026    -1.0607    -0.7040 C.ar    
  33 N33            2.9494    -1.2362    -2.0433 N.pl3   
  34 H34            0.6916    -4.4302    -7.0138 H       
  35 H35            0.1748    -5.5842    -5.7609 H       
  36 H36           -0.9730    -5.0605    -7.0165 H       
  37 H37            0.2238    -3.3249    -4.8107 H       
  38 H38           -1.3680    -1.5955    -5.7536 H       
  39 H39           -0.0079    -1.9941    -6.8303 H       
  40 H40           -1.6226    -2.6725    -7.1476 H       
  41 H41           -2.9719    -3.2755    -6.3356 H       
  42 H42           -2.9768    -5.0524    -6.1133 H       
  43 H43           -4.9694    -3.3968    -5.1202 H       
  44 H44           -4.5205    -4.9522    -4.3569 H       
  45 H45           -4.1610    -2.2648    -3.2888 H       
  46 H46           -3.7121    -3.8202    -2.5255 H       
  47 H47           -1.5737    -2.2974    -1.7610 H       
  48 H48           -1.4465    -4.0516    -2.0347 H       
  49 H49            0.6761    -3.6943    -2.9887 H       
  50 H50            1.9378    -1.8766    -5.1884 H       
  51 H51            5.5086    -1.4659    -6.0405 H       
  52 H52            4.9632    -3.4408    -7.1668 H       
  53 H53            4.0524    -3.7932    -5.6648 H       
  54 H54            2.7376    -3.7865    -8.0186 H       
  55 H55            1.9817    -2.9865    -6.6011 H       
  56 H56            3.5766    -1.7031    -8.8869 H       
  57 H57            1.9873    -1.2052    -8.2265 H       
  58 H58            2.9464    -0.1493    -6.3799 H       
  59 H59            4.3812    -0.0535    -7.4398 H       
  60 H60            6.6284     0.4589    -1.0003 H       
  61 H61            6.6927    -0.9295     0.1117 H       
  62 H62            6.9630    -1.1716    -1.6309 H       
  63 H63            4.9218    -0.3699     1.7934 H       
  64 H64            2.8612    -0.4326     3.0996 H       
  65 H65            0.7047    -0.8904     2.0102 H       
  66 H66            0.5878    -1.2925    -0.4059 H       
@<TRIPOS>BOND
   1    1    2 1
   2    1   34 1
   3    1   35 1
   4    1   36 1
   5    2    3 1
   6    2    4 1
   7    2   37 1
   8    3   38 1
   9    3   39 1
  10    3   40 1
  11    4    8 1
  12    4    5 1
  13    5    6 1
  14    5   41 1
  15    5   42 1
  16    6    7 1
  17    6   43 1
  18    6   44 1
  19    7    8 1
  20    7   45 1
  21    7   46 1
  22    8    9 1
  23    8   10 1
  24   10   11 1
  25   10   47 1
  26   10   48 1
  27   11   12 am
  28   11   49 1
  29   12   13 2
  30   12   14 1
  31   14   33 1
  32   14   15 2
  33   15   16 1
  34   15   50 1
  35   16   17 1
  36   16   22 am
  37   17   21 1
  38   17   18 1
  39   17   51 1
  40   18   19 1
  41   18   52 1
  42   18   53 1
  43   19   20 1
  44   19   54 1
  45   19   55 1
  46   20   21 1
  47   20   56 1
  48   20   57 1
  49   21   58 1
  50   21   59 1
  51   22   23 2
  52   22   24 1
  53   24   33 1
  54   24   25 2
  55   25   26 1
  56   25   27 1
  57   26   60 1
  58   26   61 1
  59   26   62 1
  60   27   32 ar
  61   27   28 ar
  62   28   29 ar
  63   28   63 1
  64   29   30 ar
  65   29   64 1
  66   30   31 ar
  67   30   65 1
  68   31   32 ar
  69   31   66 1
  70   32   33 1

#	End of record

