#	Name: ASD01890099
#	Creating user name:	WinNT
#	Creation time:	15. 06. 2019 19:50

#	Modifying user name:	WinNT
#	Modification time:	15. 06. 2019 19:50

#	Program:	/corina/corina34_cracker 3.40 0067  02.08.2006

@<TRIPOS>MOLECULE
ASD01890099
  42   44    0    0    0
SMALL
NO_CHARGES


@<TRIPOS>ATOM
   1 C1            -0.0178     1.4588     0.0101 C.2     
   2 C2             0.0021    -0.0041     0.0020 C.2     
   3 C3             1.1803    -0.6632    -0.0128 C.2     
   4 O4             1.0283     2.0819     0.0034 O.2     
   5 C5             1.2003    -2.1343    -0.0209 C.ar    
   6 C6             2.4190    -2.8208    -0.0362 C.ar    
   7 C7             2.4292    -4.1995    -0.0432 C.ar    
   8 C8             1.2379    -4.9042    -0.0351 C.ar    
   9 C9             0.0278    -4.2322    -0.0204 C.ar    
  10 C10            0.0007    -2.8538    -0.0074 C.ar    
  11 C11           -1.3061     2.1795     0.0201 C.ar    
  12 C12           -1.3299     3.5815     0.0278 C.ar    
  13 C13           -2.5456     4.2478     0.0373 C.ar    
  14 C14           -3.7272     3.5326     0.0390 C.ar    
  15 C15           -3.7080     2.1475     0.0319 C.ar    
  16 C16           -2.5087     1.4687     0.0162 C.ar    
  17 O17           -0.1685     4.2827     0.0265 O.3     
  18 C18           -0.2712     5.7080     0.0347 C.3     
  19 C19            1.1099     6.3112     0.0319 C.ar    
  20 C20            1.7380     6.5943    -1.1665 C.ar    
  21 C21            3.0048     7.1476    -1.1690 C.ar    
  22 C22            3.6433     7.4181     0.0268 C.ar    
  23 C23            3.0148     7.1357     1.2252 C.ar    
  24 C24            1.7462     6.5865     1.2278 C.ar    
  25 H25           -0.9258    -0.5567     0.0079 H       
  26 H26            2.1082    -0.1105    -0.0187 H       
  27 H27            3.3494    -2.2724    -0.0429 H       
  28 H28            3.3692    -4.7311    -0.0554 H       
  29 H29            1.2525    -5.9840    -0.0407 H       
  30 H30           -0.8974    -4.7892    -0.0149 H       
  31 H31           -0.9441    -2.3309     0.0089 H       
  32 H32           -2.5688     5.3276     0.0436 H       
  33 H33           -4.6717     4.0563     0.0464 H       
  34 H34           -4.6372     1.5970     0.0337 H       
  35 H35           -2.4986     0.3888     0.0054 H       
  36 H36           -0.8137     6.0383    -0.8511 H       
  37 H37           -0.8059     6.0286     0.9288 H       
  38 H38            1.2391     6.3830    -2.1007 H       
  39 H39            3.4958     7.3681    -2.1053 H       
  40 H40            4.6333     7.8496     0.0248 H       
  41 H41            3.5138     7.3468     2.1595 H       
  42 H42            1.2537     6.3694     2.1641 H       
@<TRIPOS>BOND
   1    1    2 1
   2    1    4 2
   3    1   11 1
   4    2    3 2
   5    2   25 1
   6    3    5 1
   7    3   26 1
   8    5    6 ar
   9    5   10 ar
  10    6    7 ar
  11    6   27 1
  12    7    8 ar
  13    7   28 1
  14    8    9 ar
  15    8   29 1
  16    9   10 ar
  17    9   30 1
  18   10   31 1
  19   11   12 ar
  20   11   16 ar
  21   12   13 ar
  22   12   17 1
  23   13   14 ar
  24   13   32 1
  25   14   15 ar
  26   14   33 1
  27   15   16 ar
  28   15   34 1
  29   16   35 1
  30   17   18 1
  31   18   19 1
  32   18   36 1
  33   18   37 1
  34   19   20 ar
  35   19   24 ar
  36   20   21 ar
  37   20   38 1
  38   21   22 ar
  39   21   39 1
  40   22   23 ar
  41   22   40 1
  42   23   24 ar
  43   23   41 1
  44   24   42 1

#	End of record

