#	Name: ASD03092001
#	Creating user name:	WinNT
#	Creation time:	15. 06. 2019 20:31

#	Modifying user name:	WinNT
#	Modification time:	15. 06. 2019 20:31

#	Program:	/corina/corina34_cracker 3.40 0067  02.08.2006

@<TRIPOS>MOLECULE
ASD03092001
  52   54    0    0    0
SMALL
NO_CHARGES


@<TRIPOS>ATOM
   1 C1             0.4234     0.6066    -0.1805 C.ar    
   2 N2             0.2596    -0.3814    -1.0398 N.ar    
   3 C3             1.1916    -0.7093    -1.9160 C.ar    
   4 C4             2.3885    -0.0229    -1.9673 C.ar    
   5 C5             2.6039     1.0321    -1.0740 C.ar    
   6 C6             1.5882     1.3447    -0.1632 C.ar    
   7 Cl7            0.9084    -2.0209    -3.0174 Cl      
   8 C8             3.4469    -0.4046    -2.9699 C.3     
   9 C9             3.8707     1.7960    -1.0913 C.2     
  10 C10            5.0461     1.4254    -0.5025 C.2     
  11 C11            5.9886     2.4290    -0.7593 C.2     
  12 N12            5.4114     3.3682    -1.4727 N.2     
  13 N13            4.0808     2.9962    -1.7028 N.pl3   
  14 C14            3.0883     3.7651    -2.4578 C.3     
  15 C15            3.2321     3.4575    -3.9496 C.3     
  16 C16            2.2111     4.2484    -4.7263 C.2     
  17 N17            2.1505     4.1366    -6.0680 N.am    
  18 C18            1.1580     4.9055    -6.8231 C.3     
  19 C19            3.0770     3.2461    -6.7715 C.3     
  20 O20            1.4441     4.9856    -4.1440 O.2     
  21 N21            7.3207     2.4308    -0.3279 N.pl3   
  22 C22            8.1875     3.4451    -0.7417 C.ar    
  23 C23            9.5382     3.1753    -0.9232 C.ar    
  24 C24           10.3937     4.1796    -1.3324 C.ar    
  25 C25            9.9081     5.4534    -1.5614 C.ar    
  26 C26            8.5620     5.7273    -1.3812 C.ar    
  27 C27            7.6996     4.7241    -0.9781 C.ar    
  28 F28            8.0905     6.9733    -1.6053 F       
  29 C29           11.8587     3.8863    -1.5292 C.3     
  30 F30           12.0798     3.4802    -2.8495 F       
  31 F31           12.6048     5.0398    -1.2649 F       
  32 F32           12.2515     2.8666    -0.6556 F       
  33 H33           -0.3674     0.8433     0.5159 H       
  34 H34            1.7148     2.1520     0.5429 H       
  35 H35            3.2673     0.1232    -3.9065 H       
  36 H36            4.4290    -0.1334    -2.5825 H       
  37 H37            3.4098    -1.4797    -3.1458 H       
  38 H38            5.2179     0.5202     0.0610 H       
  39 H39            2.0870     3.4915    -2.1252 H       
  40 H40            3.2488     4.8300    -2.2893 H       
  41 H41            4.2334     3.7311    -4.2822 H       
  42 H42            3.0715     2.3926    -4.1181 H       
  43 H43            1.5827     5.8689    -7.1051 H       
  44 H44            0.8783     4.3548    -7.7212 H       
  45 H45            0.2747     5.0648    -6.2047 H       
  46 H46            2.6360     2.2524    -6.8512 H       
  47 H47            3.2709     3.6386    -7.7697 H       
  48 H48            4.0134     3.1846    -6.2170 H       
  49 H49            7.6416     1.7278     0.2583 H       
  50 H50            9.9192     2.1807    -0.7441 H       
  51 H51           10.5794     6.2368    -1.8809 H       
  52 H52            6.6502     4.9371    -0.8376 H       
@<TRIPOS>BOND
   1    1    2 ar
   2    1    6 ar
   3    1   33 1
   4    2    3 ar
   5    3    4 ar
   6    3    7 1
   7    4    5 ar
   8    4    8 1
   9    5    6 ar
  10    5    9 1
  11    6   34 1
  12    8   35 1
  13    8   36 1
  14    8   37 1
  15    9   10 2
  16    9   13 1
  17   10   11 1
  18   10   38 1
  19   11   12 2
  20   11   21 1
  21   12   13 1
  22   13   14 1
  23   14   15 1
  24   14   39 1
  25   14   40 1
  26   15   16 1
  27   15   41 1
  28   15   42 1
  29   16   17 am
  30   16   20 2
  31   17   18 1
  32   17   19 1
  33   18   43 1
  34   18   44 1
  35   18   45 1
  36   19   46 1
  37   19   47 1
  38   19   48 1
  39   21   22 1
  40   21   49 1
  41   22   23 ar
  42   22   27 ar
  43   23   24 ar
  44   23   50 1
  45   24   25 ar
  46   24   29 1
  47   25   26 ar
  48   25   51 1
  49   26   27 ar
  50   26   28 1
  51   27   52 1
  52   29   30 1
  53   29   31 1
  54   29   32 1

#	End of record

