#	Name: ASD01885386
#	Creating user name:	WinNT
#	Creation time:	15. 06. 2019 19:49

#	Modifying user name:	WinNT
#	Modification time:	15. 06. 2019 19:49

#	Program:	/corina/corina34_cracker 3.40 0067  02.08.2006

@<TRIPOS>MOLECULE
ASD01885386
  28   30    0    0    0
SMALL
NO_CHARGES


@<TRIPOS>ATOM
   1 C1            -0.0168     1.3898     0.0097 C.ar    
   2 C2             0.0021    -0.0041     0.0020 C.ar    
   3 N3            -1.1149    -0.7760     0.0170 N.2     
   4 C4            -2.1898    -0.5709    -0.6531 C.2     
   5 C5            -2.3488     0.6308    -1.5471 C.3     
   6 C6            -2.2783     1.8683    -0.6886 C.2     
   7 N7            -1.1826     2.1444     0.0191 N.am    
   8 C8             1.1906     2.0899     0.0019 C.ar    
   9 C9             2.3950     1.4186    -0.0172 C.ar    
  10 C10            2.4174     0.0332    -0.0290 C.ar    
  11 C11            1.2378    -0.6738    -0.0193 C.ar    
  12 C12           -3.2969    -1.5359    -0.5454 C.ar    
  13 C13           -3.1900    -2.6675     0.2748 C.ar    
  14 N14           -4.2085    -3.5064     0.3411 N.ar    
  15 C15           -5.3115    -3.2913    -0.3490 C.ar    
  16 N16           -5.4554    -2.2404    -1.1326 N.ar    
  17 C17           -4.4904    -1.3464    -1.2557 C.ar    
  18 O18           -3.2282     2.6210    -0.6419 O.2     
  19 Br19           4.0175     2.3897    -0.0281 Br      
  20 H20           -1.5468     0.6489    -2.2851 H       
  21 H21           -3.3136     0.5882    -2.0525 H       
  22 H22           -1.2012     2.9324     0.5845 H       
  23 H23            1.1815     3.1698     0.0107 H       
  24 H24            3.3612    -0.4914    -0.0460 H       
  25 H25            1.2611    -1.7535    -0.0284 H       
  26 H26           -2.2899    -2.8508     0.8427 H       
  27 H27           -6.1234    -3.9991    -0.2701 H       
  28 H28           -4.6159    -0.4882    -1.8993 H       
@<TRIPOS>BOND
   1    1    2 ar
   2    1    8 ar
   3    1    7 1
   4    2    3 1
   5    2   11 ar
   6    3    4 2
   7    4    5 1
   8    4   12 1
   9    5    6 1
  10    5   20 1
  11    5   21 1
  12    6    7 am
  13    6   18 2
  14    7   22 1
  15    8    9 ar
  16    8   23 1
  17    9   10 ar
  18    9   19 1
  19   10   11 ar
  20   10   24 1
  21   11   25 1
  22   12   13 ar
  23   12   17 ar
  24   13   14 ar
  25   13   26 1
  26   14   15 ar
  27   15   16 ar
  28   15   27 1
  29   16   17 ar
  30   17   28 1

#	End of record

