#	Name: ASD02500501
#	Creating user name:	WinNT
#	Creation time:	15. 06. 2019 20:22

#	Modifying user name:	WinNT
#	Modification time:	15. 06. 2019 20:22

#	Program:	/corina/corina34_cracker 3.40 0067  02.08.2006

@<TRIPOS>MOLECULE
ASD02500501
  60   63    0    0    0
SMALL
NO_CHARGES


@<TRIPOS>ATOM
   1 C1            -0.5858     2.3696    -2.3615 C.ar    
   2 C2             0.2035     2.1765    -1.2369 C.ar    
   3 C3             1.4671     1.6194    -1.3660 C.ar    
   4 C4             1.9375     1.2579    -2.6138 C.ar    
   5 C5             1.1493     1.4517    -3.7340 C.ar    
   6 C6            -0.1120     2.0070    -3.6072 C.ar    
   7 S7            -2.1943     3.0704    -2.1999 S.o2    
   8 O8            -2.0447     4.2398    -1.4065 O.2     
   9 O9            -2.7595     3.0827    -3.5036 O.2     
  10 N10           -3.1024     2.0123    -1.3065 N.am    
  11 C11           -3.3848     0.7513    -1.8038 C.ar    
  12 C12           -4.2418    -0.0903    -1.0964 C.ar    
  13 C13           -4.5190    -1.3358    -1.5911 C.ar    
  14 C14           -3.9250    -1.7226    -2.8025 C.ar    
  15 C15           -3.0768    -0.8284    -3.4572 C.ar    
  16 N16           -2.8405     0.3632    -2.9490 N.ar    
  17 C17           -4.1931    -3.0555    -3.3754 C.2     
  18 O18           -4.2165    -3.2052    -4.5819 O.2     
  19 N19           -4.4121    -4.1072    -2.5615 N.am    
  20 C20           -4.7965    -5.4175    -3.1079 C.3     
  21 C21           -3.8616    -6.4818    -2.5236 C.3     
  22 N22           -3.8775    -6.3913    -1.0575 N.3     
  23 C23           -3.3588    -5.0961    -0.5979 C.3     
  24 C24           -4.2671    -3.9766    -1.1037 C.3     
  25 C25           -3.1653    -7.4498    -0.4819 C.ar    
  26 C26           -3.6307    -8.7570    -0.6108 C.ar    
  27 C27           -2.9217    -9.8002    -0.0397 C.ar    
  28 C28           -1.7547    -9.5440     0.6573 C.ar    
  29 C29           -1.2926    -8.2478     0.7861 C.ar    
  30 C30           -1.9914    -7.2011     0.2135 C.ar    
  31 O31           -4.7789    -9.0074    -1.2956 O.3     
  32 C32           -5.1954   -10.3713    -1.3871 C.3     
  33 O33           -0.2608     2.5331    -0.0103 O.3     
  34 C34            0.5565     2.2022     1.1142 C.3     
  35 Cl35           1.7430     0.9977    -5.3009 Cl      
  36 H36            2.0831     1.4686    -0.4918 H       
  37 H37            2.9214     0.8240    -2.7147 H       
  38 H38           -0.7260     2.1572    -4.4828 H       
  39 H39           -3.4366     2.2759    -0.4349 H       
  40 H40           -4.6826     0.2373    -0.1665 H       
  41 H41           -5.1796    -2.0061    -1.0612 H       
  42 H42           -2.6138    -1.1144    -4.3900 H       
  43 H43           -5.8262    -5.6423    -2.8301 H       
  44 H44           -4.7019    -5.4034    -4.1937 H       
  45 H45           -4.2001    -7.4714    -2.8307 H       
  46 H46           -2.8477    -6.3147    -2.8873 H       
  47 H47           -3.3326    -5.0808     0.4917 H       
  48 H48           -2.3519    -4.9483    -0.9884 H       
  49 H49           -3.8227    -3.0103    -0.8651 H       
  50 H50           -5.2449    -4.0602    -0.6295 H       
  51 H51           -3.2802   -10.8142    -0.1381 H       
  52 H52           -1.2033   -10.3590     1.1024 H       
  53 H53           -0.3813    -8.0525     1.3317 H       
  54 H54           -1.6257    -6.1897     0.3117 H       
  55 H55           -4.4226   -10.9544    -1.8879 H       
  56 H56           -5.3590   -10.7691    -0.3856 H       
  57 H57           -6.1223   -10.4306    -1.9575 H       
  58 H58            0.7672     1.1328     1.1081 H       
  59 H59            1.4929     2.7574     1.0587 H       
  60 H60            0.0328     2.4641     2.0336 H       
@<TRIPOS>BOND
   1    1    2 ar
   2    1    6 ar
   3    1    7 1
   4    2    3 ar
   5    2   33 1
   6    3    4 ar
   7    3   36 1
   8    4    5 ar
   9    4   37 1
  10    5    6 ar
  11    5   35 1
  12    6   38 1
  13    7    8 2
  14    7    9 2
  15    7   10 am
  16   10   11 1
  17   10   39 1
  18   11   12 ar
  19   11   16 ar
  20   12   13 ar
  21   12   40 1
  22   13   14 ar
  23   13   41 1
  24   14   15 ar
  25   14   17 1
  26   15   16 ar
  27   15   42 1
  28   17   18 2
  29   17   19 am
  30   19   20 1
  31   19   24 1
  32   20   21 1
  33   20   43 1
  34   20   44 1
  35   21   22 1
  36   21   45 1
  37   21   46 1
  38   22   23 1
  39   22   25 1
  40   23   24 1
  41   23   47 1
  42   23   48 1
  43   24   49 1
  44   24   50 1
  45   25   26 ar
  46   25   30 ar
  47   26   27 ar
  48   26   31 1
  49   27   28 ar
  50   27   51 1
  51   28   29 ar
  52   28   52 1
  53   29   30 ar
  54   29   53 1
  55   30   54 1
  56   31   32 1
  57   32   55 1
  58   32   56 1
  59   32   57 1
  60   33   34 1
  61   34   58 1
  62   34   59 1
  63   34   60 1

#	End of record

