#	Name: ASD01883774
#	Creating user name:	WinNT
#	Creation time:	15. 06. 2019 19:47

#	Modifying user name:	WinNT
#	Modification time:	15. 06. 2019 19:47

#	Program:	/corina/corina34_cracker 3.40 0067  02.08.2006

@<TRIPOS>MOLECULE
ASD01883774
  51   55    0    0    0
SMALL
NO_CHARGES


@<TRIPOS>ATOM
   1 C1            -0.0169     1.3978     0.0097 C.2     
   2 C2             0.0021    -0.0041     0.0020 C.2     
   3 C3            -1.2218    -0.7047     0.0099 C.2     
   4 C4            -2.3968    -0.0477     0.0246 C.2     
   5 N5            -2.4615     1.3153     0.0325 N.pl3   
   6 C6            -1.3172     2.0713     0.0319 C.2     
   7 C7            -3.5156     2.1914     0.0469 C.2     
   8 C8            -2.9977     3.4378     0.0484 C.2     
   9 N9            -1.6638     3.3458     0.0401 N.2     
  10 C10           -4.9787     1.8304     0.0579 C.3     
  11 C11            1.2864    -0.7371    -0.0146 C.ar    
  12 C12            1.6481    -1.5295     1.0695 C.ar    
  13 C13            2.8610    -2.2155     1.0409 C.ar    
  14 C14            3.7074    -2.1025    -0.0788 C.ar    
  15 C15            3.3248    -1.3034    -1.1539 C.ar    
  16 C16            2.1351    -0.6372    -1.1252 C.ar    
  17 C17           -5.5168     1.8384    -1.3743 C.3     
  18 F18           -4.8121     0.9053    -2.1424 F       
  19 F19           -6.8750     1.5033    -1.3640 F       
  20 F20           -5.3552     3.1138    -1.9261 F       
  21 C21            1.2014     2.1503     0.0021 C.1     
  22 C22            3.5440    -3.1135     1.9761 C.2     
  23 C23            4.7014    -3.4725     1.3993 C.2     
  24 N24            4.8156    -2.8783     0.1720 N.pl3   
  25 N25            2.1679     2.7472    -0.0039 N.1     
  26 C26            5.9499    -3.0440    -0.7403 C.3     
  27 C27            6.9267    -1.9145    -0.5376 C.ar    
  28 C28            7.9570    -2.0240     0.3835 C.ar    
  29 C29            8.8341    -0.9674     0.5417 C.ar    
  30 N30            8.6987     0.1340    -0.1704 N.ar    
  31 C31            7.7308     0.2730    -1.0554 C.ar    
  32 C32            6.8199    -0.7432    -1.2722 C.ar    
  33 C33            7.6202     1.5529    -1.8432 C.3     
  34 H34           -1.2165    -1.7847     0.0037 H       
  35 H35           -3.3152    -0.6160     0.0299 H       
  36 H36           -3.5659     4.3562     0.0584 H       
  37 H37           -5.1045     0.8368     0.4879 H       
  38 H38           -5.5277     2.5574     0.6564 H       
  39 H39            0.9953    -1.6123     1.9259 H       
  40 H40            3.9710    -1.2140    -2.0146 H       
  41 H41            1.8477    -0.0202    -1.9638 H       
  42 H42            3.1845    -3.4266     2.9452 H       
  43 H43            5.4345    -4.1326     1.8390 H       
  44 H44            6.4448    -3.9935    -0.5359 H       
  45 H45            5.5924    -3.0349    -1.7699 H       
  46 H46            8.0727    -2.9233     0.9702 H       
  47 H47            9.6394    -1.0448     1.2572 H       
  48 H48            6.0294    -0.6233    -1.9982 H       
  49 H49            8.2020     1.4662    -2.7608 H       
  50 H50            6.5750     1.7374    -2.0918 H       
  51 H51            8.0034     2.3809    -1.2468 H       
@<TRIPOS>BOND
   1    1    2 2
   2    1   21 1
   3    1    6 1
   4    2    3 1
   5    2   11 1
   6    3    4 2
   7    3   34 1
   8    4    5 1
   9    4   35 1
  10    5    6 1
  11    5    7 1
  12    6    9 2
  13    7    8 2
  14    7   10 1
  15    8    9 1
  16    8   36 1
  17   10   17 1
  18   10   37 1
  19   10   38 1
  20   11   12 ar
  21   11   16 ar
  22   12   13 ar
  23   12   39 1
  24   13   14 ar
  25   13   22 1
  26   14   15 ar
  27   14   24 1
  28   15   16 ar
  29   15   40 1
  30   16   41 1
  31   17   18 1
  32   17   19 1
  33   17   20 1
  34   21   25 3
  35   22   23 2
  36   22   42 1
  37   23   24 1
  38   23   43 1
  39   24   26 1
  40   26   27 1
  41   26   44 1
  42   26   45 1
  43   27   28 ar
  44   27   32 ar
  45   28   29 ar
  46   28   46 1
  47   29   30 ar
  48   29   47 1
  49   30   31 ar
  50   31   32 ar
  51   31   33 1
  52   32   48 1
  53   33   49 1
  54   33   50 1
  55   33   51 1

#	End of record

