#	Name: ASD02030635
#	Creating user name:	WinNT
#	Creation time:	15. 06. 2019 20:15

#	Modifying user name:	WinNT
#	Modification time:	15. 06. 2019 20:15

#	Program:	/corina/corina34_cracker 3.40 0067  02.08.2006

@<TRIPOS>MOLECULE
ASD02030635
  62   65    0    0    0
SMALL
NO_CHARGES


@<TRIPOS>ATOM
   1 C1            -0.2100     1.4852     0.0006 C.ar    
   2 C2            -0.1259     0.1092    -0.0102 C.ar    
   3 C3             1.1186    -0.5031     0.0306 C.ar    
   4 C4             2.2632     0.2728     0.0874 C.ar    
   5 C5             2.1761     1.6589     0.1046 C.ar    
   6 C6             0.9395     2.2629     0.0521 C.ar    
   7 C7             0.7746     3.7620     0.0336 C.3     
   8 C8             3.4621     2.4374     0.1962 C.3     
   9 C9             3.2628     3.8752    -0.2805 C.3     
  10 N10            2.0511     4.4037     0.3658 N.am    
  11 C11            0.3282     4.2080    -1.3602 C.3     
  12 O12            1.2547     3.7242    -2.3346 O.3     
  13 C13            1.0022     4.0348    -3.6342 C.ar    
  14 C14            2.1122     5.4365     1.2294 C.2     
  15 O15            3.1899     5.9004     1.5468 O.2     
  16 C16            0.8682     6.0054     1.7908 C.ar    
  17 C17            0.4879     4.6666    -6.2799 C.ar    
  18 C18           -0.3677     5.1097    -5.2821 C.ar    
  19 C19           -0.1112     4.7942    -3.9620 C.ar    
  20 C20            1.8611     3.5970    -4.6313 C.ar    
  21 C21            1.6046     3.9124    -5.9515 C.ar    
  22 C22            0.8464     6.4843     3.1007 C.ar    
  23 C23           -0.2871     6.0704     1.0098 C.ar    
  24 C24           -1.4461     6.6018     1.5368 C.ar    
  25 C25           -1.4677     7.0713     2.8374 C.ar    
  26 C26           -0.3225     7.0157     3.6198 C.ar    
  27 O27            0.2354     4.9772    -7.5795 O.3     
  28 C28            1.1583     4.4878    -8.5546 C.3     
  29 O29            1.2131    -1.8587     0.0153 O.3     
  30 C30           -0.0108    -2.5950     0.0618 C.3     
  31 C31            0.2015    -3.9770    -0.5594 C.3     
  32 C32           -0.4559    -2.7529     1.5171 C.3     
  33 O33           -0.3482     7.4830     4.8958 O.3     
  34 H34           -1.1780     1.9626    -0.0359 H       
  35 H35           -1.0242    -0.4891    -0.0498 H       
  36 H36            3.2321    -0.2033     0.1190 H       
  37 H37            0.0212     4.0531     0.7655 H       
  38 H38            3.8024     2.4469     1.2316 H       
  39 H39            4.2177     1.9555    -0.4243 H       
  40 H40            4.1249     4.4798     0.0012 H       
  41 H41            3.1387     3.8908    -1.3633 H       
  42 H42           -0.6630     3.8060    -1.5701 H       
  43 H43            0.2946     5.2968    -1.3999 H       
  44 H44           -1.2372     5.6969    -5.5379 H       
  45 H45           -0.7778     5.1385    -3.1852 H       
  46 H46            2.7306     3.0097    -4.3756 H       
  47 H47            2.2707     3.5674    -6.7284 H       
  48 H48            1.7381     6.4404     3.7084 H       
  49 H49           -0.2735     5.7052    -0.0065 H       
  50 H50           -2.3393     6.6515     0.9317 H       
  51 H51           -2.3778     7.4866     3.2445 H       
  52 H52            0.8406     4.8062    -9.5475 H       
  53 H53            2.1517     4.8851    -8.3462 H       
  54 H54            1.1865     3.3990    -8.5138 H       
  55 H55           -0.7784    -2.0595    -0.4968 H       
  56 H56            0.9691    -4.5125    -0.0007 H       
  57 H57           -0.7321    -4.5385    -0.5239 H       
  58 H58            0.5186    -3.8645    -1.5962 H       
  59 H59           -1.3894    -3.3145     1.5526 H       
  60 H60            0.3117    -3.2884     2.0758 H       
  61 H61           -0.6071    -1.7683     1.9597 H       
  62 H62           -0.1196     8.4191     4.9765 H       
@<TRIPOS>BOND
   1    1    2 ar
   2    1    6 ar
   3    1   34 1
   4    2    3 ar
   5    2   35 1
   6    3    4 ar
   7    3   29 1
   8    4    5 ar
   9    4   36 1
  10    5    6 ar
  11    5    8 1
  12    6    7 1
  13    7   10 1
  14    7   11 1
  15    7   37 1
  16    8    9 1
  17    8   38 1
  18    8   39 1
  19    9   10 1
  20    9   40 1
  21    9   41 1
  22   10   14 am
  23   11   12 1
  24   11   42 1
  25   11   43 1
  26   12   13 1
  27   13   20 ar
  28   13   19 ar
  29   14   15 2
  30   14   16 1
  31   16   23 ar
  32   16   22 ar
  33   17   18 ar
  34   17   21 ar
  35   17   27 1
  36   18   19 ar
  37   18   44 1
  38   19   45 1
  39   20   21 ar
  40   20   46 1
  41   21   47 1
  42   22   26 ar
  43   22   48 1
  44   23   24 ar
  45   23   49 1
  46   24   25 ar
  47   24   50 1
  48   25   26 ar
  49   25   51 1
  50   26   33 1
  51   27   28 1
  52   28   52 1
  53   28   53 1
  54   28   54 1
  55   29   30 1
  56   30   31 1
  57   30   32 1
  58   30   55 1
  59   31   56 1
  60   31   57 1
  61   31   58 1
  62   32   59 1
  63   32   60 1
  64   32   61 1
  65   33   62 1

#	End of record

