#	Name: ASD08178448
#	Creating user name:	WinNT
#	Creation time:	15. 06. 2019 21:18

#	Modifying user name:	WinNT
#	Modification time:	15. 06. 2019 21:18

#	Program:	/corina/corina34_cracker 3.40 0067  02.08.2006

@<TRIPOS>MOLECULE
ASD08178448
  71   75    0    0    0
SMALL
NO_CHARGES


@<TRIPOS>ATOM
   1 C1            -0.0173     1.3839    -0.0008 C.ar    
   2 C2             0.0019    -0.0033    -0.0017 C.ar    
   3 C3            -1.2128    -0.6719     0.0099 C.ar    
   4 C4            -2.3780     0.0923     0.0218 C.ar    
   5 N5            -2.2958     1.4144     0.0217 N.ar    
   6 N6            -1.1681     2.0273     0.0164 N.ar    
   7 C7             1.2772     2.1554    -0.0131 C.3     
   8 C8             1.2801     3.1278    -1.1943 C.3     
   9 C9             2.5944     3.9111    -1.2069 C.3     
  10 C10            2.5972     4.8836    -2.3880 C.3     
  11 C11            3.8917     5.6551    -2.4004 C.2     
  12 N12            4.9805     5.3107    -3.0117 N.2     
  13 N13            5.9631     6.0956    -2.9005 N.2     
  14 C14            5.7991     7.1702    -2.1897 C.2     
  15 S15            4.1940     7.1931    -1.5913 S.3     
  16 N16            6.7647     8.1438    -1.9575 N.am    
  17 C17            7.9951     8.0135    -2.4918 C.2     
  18 O18            8.2603     7.0471    -3.1751 O.2     
  19 C19            9.0414     9.0685    -2.2403 C.3     
  20 C20           10.3185     8.6872    -2.9438 C.ar    
  21 C21           10.5421     9.1034    -4.2417 C.ar    
  22 C22           11.7183     8.7524    -4.8887 C.ar    
  23 C23           12.6668     7.9841    -4.2298 C.ar    
  24 C24           12.4384     7.5702    -2.9316 C.ar    
  25 C25           11.2680     7.9257    -2.2873 C.ar    
  26 N26           -3.6248    -0.5319     0.0332 N.am    
  27 C27           -4.7468     0.2058     0.1496 C.2     
  28 O28           -4.6695     1.4013     0.3382 O.2     
  29 C29           -6.0972    -0.4549     0.0453 C.3     
  30 C30           -7.1779     0.5826     0.2089 C.ar    
  31 C31           -7.7461     0.7983     1.4503 C.ar    
  32 C32           -8.7373     1.7504     1.6010 C.ar    
  33 C33           -9.1601     2.4865     0.5102 C.ar    
  34 C34           -8.5929     2.2711    -0.7313 C.ar    
  35 C35           -7.5964     1.3217    -0.8810 C.ar    
  36 C36           -8.8462     2.9083    -2.0787 C.3     
  37 N37           -7.6643     2.5767    -2.9064 N.3     
  38 C38           -7.1718     1.3057    -2.3318 C.3     
  39 O39           11.9404     9.1604    -6.1658 O.3     
  40 C40           13.1731     8.7618    -6.7690 C.3     
  41 F41           13.2457     7.3651    -6.8025 F       
  42 F42           13.2376     9.2636    -8.0734 F       
  43 F43           14.2426     9.2666    -6.0218 F       
  44 H44            0.9354    -0.5464    -0.0115 H       
  45 H45           -1.2545    -1.7511     0.0094 H       
  46 H46            1.3762     2.7140     0.9176 H       
  47 H47            2.1125     1.4620    -0.1113 H       
  48 H48            1.1812     2.5693    -2.1250 H       
  49 H49            0.4448     3.8212    -1.0961 H       
  50 H50            2.6933     4.4697    -0.2761 H       
  51 H51            3.4296     3.2177    -1.3050 H       
  52 H52            2.4983     4.3250    -3.3188 H       
  53 H53            1.7620     5.5769    -2.2899 H       
  54 H54            6.5526     8.9167    -1.4111 H       
  55 H55            8.6894    10.0273    -2.6207 H       
  56 H56            9.2266     9.1484    -1.1691 H       
  57 H57            9.8019     9.7013    -4.7526 H       
  58 H58           13.5830     7.7093    -4.7314 H       
  59 H59           13.1766     6.9720    -2.4182 H       
  60 H60           11.0913     7.6012    -1.2725 H       
  61 H61           -3.6847    -1.4971    -0.0426 H       
  62 H62           -6.1947    -0.9302    -0.9307 H       
  63 H63           -6.1948    -1.2077     0.8275 H       
  64 H64           -7.4160     0.2229     2.3026 H       
  65 H65           -9.1814     1.9186     2.5709 H       
  66 H66           -9.9343     3.2302     0.6282 H       
  67 H67           -9.7487     2.4935    -2.5277 H       
  68 H68           -8.9403     3.9890    -1.9723 H       
  69 H69           -7.9221     2.4617    -3.8751 H       
  70 H70           -6.0855     1.2548    -2.4061 H       
  71 H71           -7.6251     0.4589    -2.8471 H       
@<TRIPOS>BOND
   1    1    2 ar
   2    1    7 1
   3    1    6 ar
   4    2    3 ar
   5    2   44 1
   6    3    4 ar
   7    3   45 1
   8    4    5 ar
   9    4   26 1
  10    5    6 ar
  11    7    8 1
  12    7   46 1
  13    7   47 1
  14    8    9 1
  15    8   48 1
  16    8   49 1
  17    9   10 1
  18    9   50 1
  19    9   51 1
  20   10   11 1
  21   10   52 1
  22   10   53 1
  23   11   12 2
  24   11   15 1
  25   12   13 1
  26   13   14 2
  27   14   15 1
  28   14   16 1
  29   16   17 am
  30   16   54 1
  31   17   18 2
  32   17   19 1
  33   19   20 1
  34   19   55 1
  35   19   56 1
  36   20   21 ar
  37   20   25 ar
  38   21   22 ar
  39   21   57 1
  40   22   23 ar
  41   22   39 1
  42   23   24 ar
  43   23   58 1
  44   24   25 ar
  45   24   59 1
  46   25   60 1
  47   26   27 am
  48   26   61 1
  49   27   28 2
  50   27   29 1
  51   29   30 1
  52   29   62 1
  53   29   63 1
  54   30   31 ar
  55   30   35 ar
  56   31   32 ar
  57   31   64 1
  58   32   33 ar
  59   32   65 1
  60   33   34 ar
  61   33   66 1
  62   34   35 ar
  63   34   36 1
  64   35   38 1
  65   36   37 1
  66   36   67 1
  67   36   68 1
  68   37   38 1
  69   37   69 1
  70   38   70 1
  71   38   71 1
  72   39   40 1
  73   40   41 1
  74   40   42 1
  75   40   43 1

#	End of record

