#	Name: ASD01816638
#	Creating user name:	WinNT
#	Creation time:	15. 06. 2019 19:35

#	Modifying user name:	WinNT
#	Modification time:	15. 06. 2019 19:35

#	Program:	/corina/corina34_cracker 3.40 0067  02.08.2006

@<TRIPOS>MOLECULE
ASD01816638
  44   48    0    0    0
SMALL
NO_CHARGES


@<TRIPOS>ATOM
   1 C1            -0.0167     1.3813     0.0096 C.ar    
   2 C2             0.0021    -0.0041     0.0020 C.ar    
   3 C3             1.1984    -0.6909    -0.0131 C.ar    
   4 C4             2.4015     0.0059    -0.0208 C.ar    
   5 C5             2.3790     1.4106    -0.0130 C.ar    
   6 C6             1.1663     2.0916     0.0022 C.ar    
   7 N7             3.6053    -0.6772    -0.0354 N.pl3   
   8 C8             4.7970    -0.0586    -0.0430 C.2     
   9 C9             4.9000     1.3103    -0.0366 C.2     
  10 C10            3.6670     2.1302    -0.0215 C.2     
  11 C11            5.9971     2.2729    -0.0414 C.2     
  12 N12            5.4246     3.4960    -0.0301 N.am    
  13 N13            4.0323     3.3799    -0.0183 N.2     
  14 O14            7.1914     2.0229    -0.0527 O.2     
  15 C15            6.1261     4.7076    -0.0296 C.ar    
  16 C16            3.5779    -2.1419    -0.0425 C.3     
  17 C17            3.5553    -2.6370    -1.4657 C.ar    
  18 C18            4.7422    -2.8863    -2.1292 C.ar    
  19 C19            4.7226    -3.3408    -3.4341 C.ar    
  20 C20            3.5137    -3.5465    -4.0770 C.ar    
  21 C21            2.3256    -3.2965    -3.4114 C.ar    
  22 C22            2.3475    -2.8471    -2.1047 C.ar    
  23 F23            3.4934    -3.9904    -5.3528 F       
  24 C24            6.5553     5.2637    -1.2273 C.ar    
  25 C25            6.3895     5.3595     1.1695 C.ar    
  26 C26            7.0817     6.5551     1.1660 C.ar    
  27 C27            7.5117     7.1033    -0.0288 C.ar    
  28 C28            7.2469     6.4595    -1.2234 C.ar    
  29 Br29           5.8007     4.6111     2.8032 Br      
  30 H30           -0.9602     1.9068     0.0169 H       
  31 H31           -0.9288    -0.5516     0.0083 H       
  32 H32            1.2004    -1.7709    -0.0185 H       
  33 H33            1.1506     3.1715     0.0084 H       
  34 H34            5.6983    -0.6536    -0.0540 H       
  35 H35            4.4657    -2.5244     0.4612 H       
  36 H36            2.6861    -2.4912     0.4779 H       
  37 H37            5.6850    -2.7255    -1.6277 H       
  38 H38            5.6500    -3.5351    -3.9524 H       
  39 H39            1.3820    -3.4566    -3.9119 H       
  40 H40            1.4209    -2.6520    -1.5854 H       
  41 H41            6.3490     4.7616    -2.1609 H       
  42 H42            7.2869     7.0624     2.0971 H       
  43 H43            8.0523     8.0383    -0.0289 H       
  44 H44            7.5845     6.8902    -2.1545 H       
@<TRIPOS>BOND
   1    1    2 ar
   2    1    6 ar
   3    1   30 1
   4    2    3 ar
   5    2   31 1
   6    3    4 ar
   7    3   32 1
   8    4    5 ar
   9    4    7 1
  10    5    6 ar
  11    5   10 1
  12    6   33 1
  13    7    8 1
  14    7   16 1
  15    8    9 2
  16    8   34 1
  17    9   10 1
  18    9   11 1
  19   10   13 2
  20   11   12 am
  21   11   14 2
  22   12   13 1
  23   12   15 1
  24   15   24 ar
  25   15   25 ar
  26   16   17 1
  27   16   35 1
  28   16   36 1
  29   17   18 ar
  30   17   22 ar
  31   18   19 ar
  32   18   37 1
  33   19   20 ar
  34   19   38 1
  35   20   21 ar
  36   20   23 1
  37   21   22 ar
  38   21   39 1
  39   22   40 1
  40   24   28 ar
  41   24   41 1
  42   25   26 ar
  43   25   29 1
  44   26   27 ar
  45   26   42 1
  46   27   28 ar
  47   27   43 1
  48   28   44 1

#	End of record

