#	Name: ASD01811167
#	Creating user name:	WinNT
#	Creation time:	15. 06. 2019 19:26

#	Modifying user name:	WinNT
#	Modification time:	15. 06. 2019 19:26

#	Program:	/corina/corina34_cracker 3.40 0067  02.08.2006

@<TRIPOS>MOLECULE
ASD01811167
  62   65    0    0    0
SMALL
NO_CHARGES


@<TRIPOS>ATOM
   1 C1             0.2606     1.4637    -0.4717 C.2     
   2 C2             0.2151    -0.0052    -0.3199 C.ar    
   3 C3             1.3707    -0.7659    -0.5178 C.ar    
   4 C4             1.3296    -2.1385    -0.3763 C.ar    
   5 C5             0.1483    -2.7692    -0.0387 C.ar    
   6 C6            -1.0142    -2.0212     0.1615 C.ar    
   7 C7            -0.9787    -0.6349     0.0265 C.ar    
   8 O8             1.2604     2.0763    -0.1549 O.2     
   9 O9            -0.8048     2.1229    -0.9667 O.3     
  10 C10            0.1132    -4.2681     0.1135 C.3     
  11 C11           -0.2810    -4.9070    -1.2196 C.3     
  12 C12            2.6641    -0.0865    -0.8869 C.3     
  13 C13            3.7542    -0.2098     0.1908 C.3     
  14 C14            4.7554    -0.4190    -0.9575 C.3     
  15 C15            3.5715    -0.9382    -1.7903 C.3     
  16 C16           -2.2780    -2.6984     0.5225 C.2     
  17 O17           -2.7253    -3.5725    -0.1940 O.2     
  18 N18           -2.9341    -2.3464     1.6459 N.am    
  19 C19           -4.1396    -3.0729     2.0676 C.3     
  20 C20           -3.9518    -3.5426     3.5136 C.3     
  21 C21           -3.6016    -2.3411     4.3945 C.3     
  22 C22           -2.2882    -1.7197     3.9141 C.3     
  23 C23           -2.4540    -1.2329     2.4756 C.3     
  24 F24           -4.6244    -1.3900     4.3136 F       
  25 C25           -3.4495    -2.7940     5.8238 C.ar    
  26 C26           -3.4423    -1.8603     6.8449 C.ar    
  27 C27           -3.3034    -2.2678     8.1555 C.ar    
  28 C28           -3.1704    -3.6262     8.4504 C.ar    
  29 C29           -3.1790    -4.5630     7.4151 C.ar    
  30 C30           -3.3234    -4.1419     6.1094 C.ar    
  31 C31           -3.0254    -4.0564     9.8085 C.1     
  32 N32           -2.9103    -4.3977    10.8859 N.1     
  33 C33           -0.6894     3.5652    -1.0880 C.3     
  34 H34            2.2253    -2.7218    -0.5307 H       
  35 H35           -1.8736    -0.0514     0.1854 H       
  36 H36            1.0988    -4.6263     0.4108 H       
  37 H37           -0.6170    -4.5388     0.8761 H       
  38 H38           -0.3064    -5.9911    -1.1095 H       
  39 H39           -1.2666    -4.5488    -1.5169 H       
  40 H40            0.4492    -4.6363    -1.9823 H       
  41 H41            2.5194     0.9321    -1.2470 H       
  42 H42            3.9194     0.7098     0.7521 H       
  43 H43            3.6370    -1.0832     0.8324 H       
  44 H44            5.1834     0.5085    -1.3380 H       
  45 H45            5.5081    -1.1789    -0.7476 H       
  46 H46            3.4043    -2.0106    -1.6904 H       
  47 H47            3.5891    -0.6065    -2.8285 H       
  48 H48           -5.0043    -2.4120     2.0074 H       
  49 H49           -4.2912    -3.9363     1.4197 H       
  50 H50           -4.8750    -3.9988     3.8707 H       
  51 H51           -3.1440    -4.2731     3.5568 H       
  52 H52           -2.0274    -0.8784     4.5563 H       
  53 H53           -1.4961    -2.4674     3.9535 H       
  54 H54           -1.4938    -0.8826     2.0969 H       
  55 H55           -3.1784    -0.4189     2.4494 H       
  56 H56           -3.5453    -0.8100     6.6153 H       
  57 H57           -3.2973    -1.5380     8.9515 H       
  58 H58           -3.0765    -5.6151     7.6363 H       
  59 H59           -3.3343    -4.8657     5.3079 H       
  60 H60           -0.5074     3.9991    -0.1048 H       
  61 H61            0.1401     3.8088    -1.7518 H       
  62 H62           -1.6143     3.9705    -1.4984 H       
@<TRIPOS>BOND
   1    1    2 1
   2    1    8 2
   3    1    9 1
   4    2    3 ar
   5    2    7 ar
   6    3    4 ar
   7    3   12 1
   8    4    5 ar
   9    4   34 1
  10    5    6 ar
  11    5   10 1
  12    6    7 ar
  13    6   16 1
  14    7   35 1
  15    9   33 1
  16   10   11 1
  17   10   36 1
  18   10   37 1
  19   11   38 1
  20   11   39 1
  21   11   40 1
  22   12   13 1
  23   12   15 1
  24   12   41 1
  25   13   14 1
  26   13   42 1
  27   13   43 1
  28   14   15 1
  29   14   44 1
  30   14   45 1
  31   15   46 1
  32   15   47 1
  33   16   17 2
  34   16   18 am
  35   18   19 1
  36   18   23 1
  37   19   20 1
  38   19   48 1
  39   19   49 1
  40   20   21 1
  41   20   50 1
  42   20   51 1
  43   21   22 1
  44   21   24 1
  45   21   25 1
  46   22   23 1
  47   22   52 1
  48   22   53 1
  49   23   54 1
  50   23   55 1
  51   25   26 ar
  52   25   30 ar
  53   26   27 ar
  54   26   56 1
  55   27   28 ar
  56   27   57 1
  57   28   29 ar
  58   28   31 1
  59   29   30 ar
  60   29   58 1
  61   30   59 1
  62   31   32 3
  63   33   60 1
  64   33   61 1
  65   33   62 1

#	End of record

