#	Name: ASD07301237
#	Creating user name:	WinNT
#	Creation time:	15. 06. 2019 21:11

#	Modifying user name:	WinNT
#	Modification time:	15. 06. 2019 21:11

#	Program:	/corina/corina34_cracker 3.40 0067  02.08.2006

@<TRIPOS>MOLECULE
ASD07301237
  39   40    0    0    0
SMALL
NO_CHARGES


@<TRIPOS>ATOM
   1 C1            -0.0179     1.4669     0.0101 C.2     
   2 C2             0.0021    -0.0041     0.0020 C.2     
   3 C3             1.2725    -0.6350    -0.0135 C.2     
   4 C4             2.3717     0.1566    -0.0197 C.2     
   5 N5             2.2553     1.5067    -0.0114 N.pl3   
   6 N6             1.1275     2.1158     0.0027 N.2     
   7 O7            -1.0315    -0.6546     0.0088 O.2     
   8 C8            -1.2999     2.2024     0.0202 C.2     
   9 C9            -1.3038     3.6150     0.0279 C.2     
  10 C10           -2.4765     4.2879     0.0371 C.2     
  11 O11           -2.3534     1.5904     0.0219 O.2     
  12 N12           -2.4802     5.6531     0.0446 N.pl3   
  13 C13           -1.2134     6.3891     0.0425 C.3     
  14 C14           -3.7508     6.3822     0.0546 C.3     
  15 C15            3.4247     2.2743    -0.0179 C.ar    
  16 C16            3.6388     3.2311     0.9734 C.ar    
  17 C17            4.7993     3.9882     0.9612 C.ar    
  18 C18            5.7409     3.7945    -0.0321 C.ar    
  19 C19            5.5294     2.8457    -1.0158 C.ar    
  20 C20            4.3782     2.0819    -1.0081 C.ar    
  21 O21            2.7116     3.4209     1.9487 O.3     
  22 C22            2.9983     4.4183     2.9311 C.3     
  23 F23            4.1833     4.0890     3.5979 F       
  24 F24            3.1452     5.6608     2.3052 F       
  25 H25            1.3605    -1.7114    -0.0198 H       
  26 H26            3.3531    -0.2939    -0.0312 H       
  27 H27           -0.3699     4.1576     0.0264 H       
  28 H28           -3.4103     3.7453     0.0386 H       
  29 H29           -0.9041     6.5772    -0.9856 H       
  30 H30           -1.3439     7.3383     0.5622 H       
  31 H31           -0.4498     5.7993     0.5496 H       
  32 H32           -4.5774     5.6716     0.0546 H       
  33 H33           -3.8060     7.0038     0.9482 H       
  34 H34           -3.8145     7.0135    -0.8317 H       
  35 H35            4.9680     4.7301     1.7277 H       
  36 H36            6.6444     4.3861    -0.0401 H       
  37 H37            6.2682     2.6985    -1.7898 H       
  38 H38            4.2180     1.3386    -1.7752 H       
  39 H39            2.1793     4.4675     3.6487 H       
@<TRIPOS>BOND
   1    1    2 1
   2    1    6 2
   3    1    8 1
   4    2    3 1
   5    2    7 2
   6    3    4 2
   7    3   25 1
   8    4    5 1
   9    4   26 1
  10    5    6 1
  11    5   15 1
  12    8    9 1
  13    8   11 2
  14    9   10 2
  15    9   27 1
  16   10   12 1
  17   10   28 1
  18   12   13 1
  19   12   14 1
  20   13   29 1
  21   13   30 1
  22   13   31 1
  23   14   32 1
  24   14   33 1
  25   14   34 1
  26   15   16 ar
  27   15   20 ar
  28   16   17 ar
  29   16   21 1
  30   17   18 ar
  31   17   35 1
  32   18   19 ar
  33   18   36 1
  34   19   20 ar
  35   19   37 1
  36   20   38 1
  37   21   22 1
  38   22   23 1
  39   22   24 1
  40   22   39 1

#	End of record

