#	Name: ASD00100163
#	Creating user name:	WinNT
#	Creation time:	15. 06. 2019 18:30

#	Modifying user name:	WinNT
#	Modification time:	15. 06. 2019 18:30

#	Program:	/corina/corina34_cracker 3.40 0067  02.08.2006

@<TRIPOS>MOLECULE
ASD00100163
  50   53    0    0    0
SMALL
NO_CHARGES


@<TRIPOS>ATOM
   1 C1            -1.7724     4.1431    -0.8814 C.2     
   2 C2            -0.6279     4.8128    -1.0261 C.2     
   3 C3            -0.7416     6.0275    -1.6801 C.2     
   4 C4            -1.9784     6.3443    -2.0665 C.2     
   5 S5            -3.0891     5.0638    -1.5970 S.3     
   6 S6            -1.9385     2.5729    -0.0995 S.o2    
   7 O7            -3.1741     2.0312    -0.5457 O.2     
   8 O8            -0.6935     1.9083    -0.2653 O.2     
   9 N9            -2.1084     2.8493     1.5244 N.am    
  10 C10           -1.0658     3.4358     2.2458 C.ar    
  11 C11           -1.3292     4.4776     3.1229 C.ar    
  12 C12           -0.2867     5.0590     3.8398 C.ar    
  13 C13            1.0160     4.5907     3.6720 C.ar    
  14 C14            1.2698     3.5536     2.7972 C.ar    
  15 C15            0.2348     2.9719     2.0894 C.ar    
  16 C16           -1.6362     7.6818     5.9164 C.2     
  17 N17           -1.7755     6.7219     5.0348 N.2     
  18 C18           -0.5610     6.1738     4.7791 C.2     
  19 C19            0.3576     6.8249     5.5348 C.2     
  20 N20           -0.3213     7.7783     6.2539 N.pl3   
  21 C21            0.2625     8.7250     7.2074 C.3     
  22 C22            0.1571     8.1630     8.6017 C.ar    
  23 C23            1.1068     7.2616     9.0607 C.ar    
  24 C24            1.0070     6.7461    10.3446 C.ar    
  25 C25           -0.0375     7.1311    11.1631 C.ar    
  26 C26           -0.9828     8.0290    10.7032 C.ar    
  27 C27           -0.8820     8.5491     9.4258 C.ar    
  28 O28            2.1330     6.8841     8.2536 O.3     
  29 C29            3.0735     5.9529     8.7925 C.3     
  30 N30           -2.6573     8.4712     6.4171 N.pl3   
  31 H31            0.3159     4.4360    -0.6605 H       
  32 H32            0.1068     6.6702    -1.8634 H       
  33 H33           -2.2555     7.2489    -2.5873 H       
  34 H34           -2.9318     2.6041     1.9746 H       
  35 H35           -2.3398     4.8370     3.2492 H       
  36 H36            1.8267     5.0399     4.2264 H       
  37 H37            2.2796     3.1927     2.6685 H       
  38 H38            0.4381     2.1577     1.4095 H       
  39 H39            1.4197     6.6313     5.5651 H       
  40 H40            1.3113     8.8894     6.9603 H       
  41 H41           -0.2757     9.6714     7.1555 H       
  42 H42            1.7448     6.0441    10.7041 H       
  43 H43           -0.1157     6.7300    12.1628 H       
  44 H44           -1.7988     8.3282    11.3443 H       
  45 H45           -1.6190     9.2540     9.0706 H       
  46 H46            3.8389     5.7370     8.0471 H       
  47 H47            3.5407     6.3806     9.6796 H       
  48 H48            2.5583     5.0309     9.0619 H       
  49 H49           -3.5779     8.2841     6.1755 H       
  50 H50           -2.4521     9.2113     7.0095 H       
@<TRIPOS>BOND
   1    1    2 2
   2    1    5 1
   3    1    6 1
   4    2    3 1
   5    2   31 1
   6    3    4 2
   7    3   32 1
   8    4    5 1
   9    4   33 1
  10    6    7 2
  11    6    8 2
  12    6    9 am
  13    9   10 1
  14    9   34 1
  15   10   11 ar
  16   10   15 ar
  17   11   12 ar
  18   11   35 1
  19   12   13 ar
  20   12   18 1
  21   13   14 ar
  22   13   36 1
  23   14   15 ar
  24   14   37 1
  25   15   38 1
  26   16   17 2
  27   16   20 1
  28   16   30 1
  29   17   18 1
  30   18   19 2
  31   19   20 1
  32   19   39 1
  33   20   21 1
  34   21   22 1
  35   21   40 1
  36   21   41 1
  37   22   23 ar
  38   22   27 ar
  39   23   24 ar
  40   23   28 1
  41   24   25 ar
  42   24   42 1
  43   25   26 ar
  44   25   43 1
  45   26   27 ar
  46   26   44 1
  47   27   45 1
  48   28   29 1
  49   29   46 1
  50   29   47 1
  51   29   48 1
  52   30   49 1
  53   30   50 1

#	End of record

