#	Name: ASD03540567
#	Creating user name:	WinNT
#	Creation time:	15. 06. 2019 20:43

#	Modifying user name:	WinNT
#	Modification time:	15. 06. 2019 20:43

#	Program:	/corina/corina34_cracker 3.40 0067  02.08.2006

@<TRIPOS>MOLECULE
ASD03540567
  65   69    0    0    0
SMALL
NO_CHARGES


@<TRIPOS>ATOM
   1 C1            -0.0177     8.5814     8.3025 C.3     
   2 C2             0.3214     9.9065     7.6169 C.3     
   3 C3             1.4352     9.0554     8.2301 C.3     
   4 C4            -0.7052     8.6469     9.6419 C.2     
   5 O5            -0.9678     9.7185    10.1344 O.2     
   6 O6            -1.0258     7.5148    10.2879 O.3     
   7 C7            -0.4169     7.4249     7.4226 C.ar    
   8 C8            -0.7341     6.2038     7.9876 C.ar    
   9 C9            -1.1002     5.1429     7.1805 C.ar    
  10 C10           -1.1496     5.3033     5.8084 C.ar    
  11 C11           -0.8334     6.5246     5.2434 C.ar    
  12 C12           -0.4714     7.5867     6.0508 C.ar    
  13 C13           -1.5478     4.1465     4.9285 C.3     
  14 N14           -3.2490     1.2459     6.4332 N.am    
  15 C15           -2.3567     2.0424     5.8206 C.2     
  16 N16           -2.5740     3.3491     5.6048 N.am    
  17 C17           -3.7212     3.9427     6.0000 C.2     
  18 C18           -4.7365     3.1160     6.6782 C.ar    
  19 C19           -5.9412     3.6525     7.1148 C.ar    
  20 C20           -6.8652     2.8246     7.7510 C.ar    
  21 C21           -6.5758     1.4682     7.9445 C.ar    
  22 C22           -5.3908     0.9408     7.5149 C.ar    
  23 C23           -4.4581     1.7504     6.8791 C.ar    
  24 O24           -3.9114     5.1272     5.8020 O.2     
  25 O25           -1.3068     1.5579     5.4452 O.2     
  26 C26           -2.1047     4.6792     3.6067 C.3     
  27 C27           -8.1502     3.3788     8.2217 C.2     
  28 N28           -9.0440     2.5792     8.8367 N.am    
  29 O29           -8.4021     4.5564     8.0544 O.2     
  30 C30          -10.3191     3.1291     9.3037 C.3     
  31 C31          -11.1304     2.0364     9.9510 C.ar    
  32 C32          -11.0033     1.7930    11.3061 C.ar    
  33 C33          -11.7459     0.7920    11.9019 C.ar    
  34 C34          -12.6196     0.0306    11.1393 C.ar    
  35 C35          -12.7453     0.2768     9.7798 C.ar    
  36 C36          -12.0047     1.2828     9.1899 C.ar    
  37 O37          -13.3509    -0.9550    11.7229 O.3     
  38 C38          -14.2300    -1.6985    10.8765 C.3     
  39 H39            0.2557     9.9417     6.5294 H       
  40 H40            0.0472    10.8256     8.1346 H       
  41 H41            1.8938     9.4147     9.1514 H       
  42 H42            2.1023     8.5308     7.5461 H       
  43 H43           -1.4656     7.6073    11.1440 H       
  44 H44           -0.6954     6.0785     9.0597 H       
  45 H45           -1.3473     4.1887     7.6220 H       
  46 H46           -0.8716     6.6498     4.1714 H       
  47 H47           -0.2279     8.5419     5.6097 H       
  48 H48           -0.6755     3.5235     4.7305 H       
  49 H49           -3.0448     0.3064     6.5613 H       
  50 H50           -6.1594     4.6994     6.9635 H       
  51 H51           -7.2961     0.8329     8.4383 H       
  52 H52           -5.1789    -0.1067     7.6702 H       
  53 H53           -1.3412     5.2724     3.1036 H       
  54 H54           -2.3927     3.8425     2.9703 H       
  55 H55           -2.9770     5.3021     3.8047 H       
  56 H56           -8.8431     1.6397     8.9701 H       
  57 H57          -10.1297     3.9197    10.0298 H       
  58 H58          -10.8704     3.5379     8.4569 H       
  59 H59          -10.3227     2.3857    11.8993 H       
  60 H60          -11.6460     0.6020    12.9603 H       
  61 H61          -13.4248    -0.3145     9.1840 H       
  62 H62          -12.1057     1.4780     8.1325 H       
  63 H63          -13.6521    -2.1877    10.0925 H       
  64 H64          -14.7521    -2.4516    11.4668 H       
  65 H65          -14.9566    -1.0232    10.4246 H       
@<TRIPOS>BOND
   1    1    2 1
   2    1    3 1
   3    1    4 1
   4    1    7 1
   5    2    3 1
   6    2   39 1
   7    2   40 1
   8    3   41 1
   9    3   42 1
  10    4    5 2
  11    4    6 1
  12    6   43 1
  13    7    8 ar
  14    7   12 ar
  15    8    9 ar
  16    8   44 1
  17    9   10 ar
  18    9   45 1
  19   10   11 ar
  20   10   13 1
  21   11   12 ar
  22   11   46 1
  23   12   47 1
  24   13   16 1
  25   13   26 1
  26   13   48 1
  27   14   15 am
  28   14   23 1
  29   14   49 1
  30   15   16 am
  31   15   25 2
  32   16   17 am
  33   17   18 1
  34   17   24 2
  35   18   19 ar
  36   18   23 ar
  37   19   20 ar
  38   19   50 1
  39   20   21 ar
  40   20   27 1
  41   21   22 ar
  42   21   51 1
  43   22   23 ar
  44   22   52 1
  45   26   53 1
  46   26   54 1
  47   26   55 1
  48   27   28 am
  49   27   29 2
  50   28   30 1
  51   28   56 1
  52   30   31 1
  53   30   57 1
  54   30   58 1
  55   31   32 ar
  56   31   36 ar
  57   32   33 ar
  58   32   59 1
  59   33   34 ar
  60   33   60 1
  61   34   35 ar
  62   34   37 1
  63   35   36 ar
  64   35   61 1
  65   36   62 1
  66   37   38 1
  67   38   63 1
  68   38   64 1
  69   38   65 1

#	End of record

