#	Name: ASD01915642
#	Creating user name:	WinNT
#	Creation time:	15. 06. 2019 20:05

#	Modifying user name:	WinNT
#	Modification time:	15. 06. 2019 20:05

#	Program:	/corina/corina34_cracker 3.40 0067  02.08.2006

@<TRIPOS>MOLECULE
ASD01915642
  48   51    0    0    0
SMALL
NO_CHARGES


@<TRIPOS>ATOM
   1 C1            -0.1054     1.0765    -0.3507 C.2     
   2 N2            -0.1175    -0.2085     0.1438 N.pl3   
   3 C3            -1.3614    -0.8299     0.6143 C.3     
   4 C4            -2.2921     0.2523     1.1589 C.3     
   5 N5            -2.4044     1.3988     0.2637 N.am    
   6 C6            -1.3268     1.8947    -0.3912 C.2     
   7 C7             1.1801     1.3483    -0.7262 C.2     
   8 C8             1.9009     0.1860    -0.4205 C.2     
   9 N9             1.0647    -0.6851     0.0943 N.2     
  10 C10            3.3759    -0.0268    -0.6445 C.3     
  11 O11            3.9441     1.1493    -1.2242 O.3     
  12 C12            5.2763     1.1234    -1.4917 C.ar    
  13 O13           -1.3675     2.9582    -0.9803 O.2     
  14 C14            5.8936     2.2309    -2.0547 C.ar    
  15 C15            6.0223    -0.0085    -1.1969 C.ar    
  16 C16            7.3763    -0.0323    -1.4698 C.ar    
  17 C17            7.9881     1.0707    -2.0363 C.ar    
  18 C18            7.2479     2.2021    -2.3257 C.ar    
  19 C19           -3.6540     2.0002     0.0771 C.ar    
  20 C20           -4.5027     1.5429    -0.9215 C.ar    
  21 C21           -4.0484     3.0516     0.8947 C.ar    
  22 C22           -5.2825     3.6453     0.7115 C.ar    
  23 C23           -6.1282     3.1943    -0.2864 C.ar    
  24 C24           -5.7397     2.1401    -1.1038 C.ar    
  25 F25           -7.3347     3.7761    -0.4627 F       
  26 C26           -1.7567     0.7307     2.5100 C.3     
  27 O27           -6.5709     1.6976    -2.0844 O.3     
  28 C28           -6.1065     0.6102    -2.8868 C.3     
  29 H29           -1.8474    -1.3442    -0.2149 H       
  30 H30           -1.1344    -1.5458     1.4042 H       
  31 H31           -3.2829    -0.1771     1.3071 H       
  32 H32            1.5582     2.2604    -1.1637 H       
  33 H33            3.8621    -0.2332     0.3090 H       
  34 H34            3.5230    -0.8712    -1.3178 H       
  35 H35            5.3158     3.1148    -2.2813 H       
  36 H36            5.5450    -0.8702    -0.7541 H       
  37 H37            7.9576    -0.9132    -1.2402 H       
  38 H38            9.0468     1.0501    -2.2489 H       
  39 H39            7.7280     3.0623    -2.7685 H       
  40 H40           -4.1993     0.7231    -1.5558 H       
  41 H41           -3.3900     3.4050     1.6744 H       
  42 H42           -5.5876     4.4624     1.3484 H       
  43 H43           -0.7539     1.1378     2.3799 H       
  44 H44           -2.4138     1.5039     2.9081 H       
  45 H45           -1.7208    -0.1087     3.2044 H       
  46 H46           -5.9165    -0.2549    -2.2514 H       
  47 H47           -6.8638     0.3568    -3.6287 H       
  48 H48           -5.1850     0.8992    -3.3922 H       
@<TRIPOS>BOND
   1    1    2 1
   2    1    7 2
   3    1    6 1
   4    2    3 1
   5    2    9 1
   6    3    4 1
   7    3   29 1
   8    3   30 1
   9    4    5 1
  10    4   26 1
  11    4   31 1
  12    5    6 am
  13    5   19 1
  14    6   13 2
  15    7    8 1
  16    7   32 1
  17    8    9 2
  18    8   10 1
  19   10   11 1
  20   10   33 1
  21   10   34 1
  22   11   12 1
  23   12   14 ar
  24   12   15 ar
  25   14   18 ar
  26   14   35 1
  27   15   16 ar
  28   15   36 1
  29   16   17 ar
  30   16   37 1
  31   17   18 ar
  32   17   38 1
  33   18   39 1
  34   19   20 ar
  35   19   21 ar
  36   20   24 ar
  37   20   40 1
  38   21   22 ar
  39   21   41 1
  40   22   23 ar
  41   22   42 1
  42   23   24 ar
  43   23   25 1
  44   24   27 1
  45   26   43 1
  46   26   44 1
  47   26   45 1
  48   27   28 1
  49   28   46 1
  50   28   47 1
  51   28   48 1

#	End of record

