#	Name: ASD09310002
#	Creating user name:	WinNT
#	Creation time:	15. 06. 2019 21:21

#	Modifying user name:	WinNT
#	Modification time:	15. 06. 2019 21:21

#	Program:	/corina/corina34_cracker 3.40 0067  02.08.2006

@<TRIPOS>MOLECULE
ASD09310002
  54   59    0    0    0
SMALL
NO_CHARGES


@<TRIPOS>ATOM
   1 C1             1.9711     0.2223     0.5304 C.3     
   2 C2             1.9290    -1.1875     1.1226 C.3     
   3 C3             1.1576    -1.0317     2.4406 C.3     
   4 C4             0.2304     0.1784     2.2750 C.3     
   5 C5             0.8213     1.0192     1.1478 C.3     
   6 C6             3.2388     0.8341     1.1386 C.3     
   7 O7             3.3224    -1.4569     1.4482 O.3     
   8 C8             3.8655    -0.3119     1.8919 C.2     
   9 O9             4.7121    -0.2162     2.7486 O.2     
  10 C10            2.1150     0.3097    -0.9883 C.3     
  11 C11            3.5951     0.5739    -1.2574 C.3     
  12 C12            4.1031     1.3264    -0.0253 C.3     
  13 O13            4.3550    -0.6570    -1.2746 O.3     
  14 C14            5.6111    -0.3402    -0.9080 C.2     
  15 C15            5.5111     0.7390     0.1398 C.3     
  16 O16            6.6286    -0.8293    -1.3387 O.2     
  17 O17            4.0791     2.7469    -0.1788 O.3     
  18 O18            2.8169     1.8575     2.0449 O.3     
  19 C19            1.5182     2.3024     1.6319 C.3     
  20 O20            1.6260     3.0320     0.3750 O.3     
  21 C21            0.4528     2.9029    -0.2722 C.2     
  22 C22           -0.1717     1.5890     0.1358 C.3     
  23 O23           -0.0199     3.7011    -1.0464 O.2     
  24 O24           -1.4446     1.8060     0.7479 O.3     
  25 C25            0.1903     0.9908     3.5709 C.3     
  26 O26            1.3229     1.3851    -1.4964 O.3     
  27 C27            1.6141     1.3825     3.9715 C.3     
  28 C28            6.5691     1.8170    -0.1044 C.3     
  29 C29           -0.6447     2.2545     3.3550 C.3     
  30 C30           -0.4384     0.1477     4.6821 C.3     
  31 H31            1.4851    -1.9233     0.4520 H       
  32 H32            0.5688    -1.9280     2.6358 H       
  33 H33            1.8536    -0.8580     3.2612 H       
  34 H34           -0.7732    -0.1528     2.0083 H       
  35 H35            1.8119    -0.6307    -1.4487 H       
  36 H36            3.7451     1.1443    -2.1741 H       
  37 H37            5.6292     0.3122     1.1358 H       
  38 H38            4.6327     3.0739    -0.9010 H       
  39 H39            0.9724     2.8310     2.4134 H       
  40 H40           -0.2660     0.9258    -0.7240 H       
  41 H41           -2.0927     2.2293     0.1683 H       
  42 H42            1.3730     1.4911    -2.4563 H       
  43 H43            1.8414     2.3745     3.5812 H       
  44 H44            1.6961     1.3921     5.0583 H       
  45 H45            2.3190     0.6600     3.5602 H       
  46 H46            6.4310     2.2431    -1.0981 H       
  47 H47            6.4675     2.6021     0.6449 H       
  48 H48            7.5624     1.3738    -0.0339 H       
  49 H49           -1.6988     2.0242     3.5092 H       
  50 H50           -0.3328     3.0216     4.0639 H       
  51 H51           -0.4973     2.6181     2.3380 H       
  52 H52            0.1565    -0.7526     4.8359 H       
  53 H53           -0.4670     0.7265     5.6053 H       
  54 H54           -1.4527    -0.1314     4.3967 H       
@<TRIPOS>BOND
   1    1    2 1
   2    1    6 1
   3    1    5 1
   4    1   10 1
   5    2    3 1
   6    2    7 1
   7    2   31 1
   8    3    4 1
   9    3   32 1
  10    3   33 1
  11    4    5 1
  12    4   25 1
  13    4   34 1
  14    5   19 1
  15    5   22 1
  16    6    8 1
  17    6   18 1
  18    6   12 1
  19    7    8 1
  20    8    9 2
  21   10   11 1
  22   10   26 1
  23   10   35 1
  24   11   12 1
  25   11   13 1
  26   11   36 1
  27   12   17 1
  28   12   15 1
  29   13   14 1
  30   14   15 1
  31   14   16 2
  32   15   28 1
  33   15   37 1
  34   17   38 1
  35   18   19 1
  36   19   20 1
  37   19   39 1
  38   20   21 1
  39   21   22 1
  40   21   23 2
  41   22   24 1
  42   22   40 1
  43   24   41 1
  44   25   27 1
  45   25   29 1
  46   25   30 1
  47   26   42 1
  48   27   43 1
  49   27   44 1
  50   27   45 1
  51   28   46 1
  52   28   47 1
  53   28   48 1
  54   29   49 1
  55   29   50 1
  56   29   51 1
  57   30   52 1
  58   30   53 1
  59   30   54 1

#	End of record

