#	Name: ASD01870542
#	Creating user name:	WinNT
#	Creation time:	15. 06. 2019 19:39

#	Modifying user name:	WinNT
#	Modification time:	15. 06. 2019 19:39

#	Program:	/corina/corina34_cracker 3.40 0067  02.08.2006

@<TRIPOS>MOLECULE
ASD01870542
  40   43    0    0    0
SMALL
NO_CHARGES


@<TRIPOS>ATOM
   1 N1            -0.0159     1.3218     0.0093 N.2     
   2 C2             0.0021    -0.0041     0.0020 C.ar    
   3 C3             1.3553    -0.4303    -0.0132 C.ar    
   4 N4             1.3007     1.8031    -0.0007 N.pl3   
   5 C5            -1.0059    -1.0028     0.0063 C.ar    
   6 N6            -0.6346    -2.2735    -0.0041 N.ar    
   7 C7             0.6441    -2.6217    -0.0182 C.ar    
   8 N8             1.6184    -1.7450    -0.0228 N.ar    
   9 C9             1.8018     3.0710     0.0009 C.2     
  10 C10            2.1503     0.7299    -0.0146 C.2     
  11 C11            3.5361     0.9318    -0.0267 C.2     
  12 C12            4.0272     2.2054    -0.0246 C.2     
  13 C13            3.1363     3.2872    -0.0110 C.2     
  14 N14           -2.3433    -0.6573     0.0214 N.pl3   
  15 C15           -3.3699    -1.7024     0.0255 C.3     
  16 C16           -4.5847    -1.1675     0.6224 C.3     
  17 C17           -3.5914    -2.1909    -1.4206 C.3     
  18 C18           -4.2249    -3.5549    -1.3730 C.3     
  19 C19           -5.7026    -2.2249     0.7281 C.3     
  20 C20           -6.3650    -2.3566    -0.6165 C.3     
  21 C21           -5.7619    -3.4946    -1.4620 C.3     
  22 H22            0.8938    -3.6723    -0.0258 H       
  23 H23            1.1249     3.9124     0.0116 H       
  24 H24            4.2099     0.0878    -0.0373 H       
  25 H25            5.0933     2.3780    -0.0338 H       
  26 H26            3.5174     4.2977    -0.0095 H       
  27 H27           -2.6027     0.2773     0.0292 H       
  28 H28           -3.0187    -2.5392     0.6294 H       
  29 H29           -4.3537    -0.7970     1.6212 H       
  30 H30           -4.9410    -0.3367     0.0134 H       
  31 H31           -4.2512    -1.4988    -1.9438 H       
  32 H32           -2.6337    -2.2499    -1.9379 H       
  33 H33           -3.8465    -4.1488    -2.2049 H       
  34 H34           -3.9446    -4.0414    -0.4387 H       
  35 H35           -5.2736    -3.1834     1.0203 H       
  36 H36           -6.4371    -1.9084     1.4687 H       
  37 H37           -7.4272    -2.5518    -0.4688 H       
  38 H38           -6.2531    -1.4174    -1.1582 H       
  39 H39           -6.0482    -3.3485    -2.5036 H       
  40 H40           -6.1715    -4.4440    -1.1170 H       
@<TRIPOS>BOND
   1    1    2 2
   2    1    4 1
   3    2    3 ar
   4    2    5 ar
   5    3   10 2
   6    3    8 ar
   7    4   10 1
   8    4    9 1
   9    5    6 ar
  10    5   14 1
  11    6    7 ar
  12    7    8 ar
  13    7   22 1
  14    9   13 2
  15    9   23 1
  16   10   11 1
  17   11   12 2
  18   11   24 1
  19   12   13 1
  20   12   25 1
  21   13   26 1
  22   14   15 1
  23   14   27 1
  24   15   16 1
  25   15   17 1
  26   15   28 1
  27   16   19 1
  28   16   29 1
  29   16   30 1
  30   17   18 1
  31   17   31 1
  32   17   32 1
  33   18   21 1
  34   18   33 1
  35   18   34 1
  36   19   20 1
  37   19   35 1
  38   19   36 1
  39   20   21 1
  40   20   37 1
  41   20   38 1
  42   21   39 1
  43   21   40 1

#	End of record

