#	Name: ASD02039479
#	Creating user name:	WinNT
#	Creation time:	15. 06. 2019 20:18

#	Modifying user name:	WinNT
#	Modification time:	15. 06. 2019 20:18

#	Program:	/corina/corina34_cracker 3.40 0067  02.08.2006

@<TRIPOS>MOLECULE
ASD02039479
  52   55    0    0    0
SMALL
NO_CHARGES


@<TRIPOS>ATOM
   1 C1             0.1518     1.1840     0.0758 C.ar    
   2 C2             0.4341    -0.1697     0.1916 C.ar    
   3 C3             1.2630     2.2002     0.0148 C.3     
   4 N4             1.7336     2.3268    -1.3668 N.am    
   5 C5             1.2449     3.3019    -2.1585 C.2     
   6 C6             0.1659     4.1771    -1.6685 C.2     
   7 C7            -0.4900     5.1304    -2.3910 C.2     
   8 N8            -0.3609     4.1778    -0.4173 N.2     
   9 C9            -1.2928     5.0845    -0.3534 C.2     
  10 N10           -1.3991     5.6954    -1.5621 N.pl3   
  11 O11            1.6946     3.4592    -3.2775 O.2     
  12 C12           -2.3301     6.7728    -1.9066 C.3     
  13 C13            2.7355     1.3935    -1.8878 C.3     
  14 C14           -0.6074    -1.0775     0.2452 C.ar    
  15 N15           -1.8603    -0.6739     0.1878 N.ar    
  16 C16           -2.1727     0.6111     0.0769 C.ar    
  17 C17           -1.1730     1.5796     0.0117 C.ar    
  18 C18           -3.5969     1.0190     0.0158 C.ar    
  19 C19           -4.6025     0.0552     0.0747 C.ar    
  20 C20           -5.9277     0.4386     0.0179 C.ar    
  21 C21           -6.2583     1.7841    -0.0977 C.ar    
  22 C22           -5.2581     2.7445    -0.1564 C.ar    
  23 C23           -3.9330     2.3675    -0.0948 C.ar    
  24 O24           -7.5632     2.1595    -0.1538 O.3     
  25 C25            2.3138     0.7042    -3.1962 C.3     
  26 C26            3.7666     0.8843    -3.6672 C.3     
  27 C27            3.8502     2.0756    -2.6984 C.3     
  28 C28           -7.8314     3.5581    -0.2726 C.3     
  29 F29           -7.2937     4.2312     0.8296 F       
  30 F30           -7.2489     4.0465    -1.4470 F       
  31 F31           -6.9035    -0.4940     0.0744 F       
  32 H32            1.4576    -0.5110     0.2391 H       
  33 H33            0.8928     3.1647     0.3623 H       
  34 H34            2.0867     1.8764     0.6510 H       
  35 H35           -0.3169     5.3858    -3.4260 H       
  36 H36           -1.8876     5.3121     0.5188 H       
  37 H37           -1.8630     7.7360    -1.7013 H       
  38 H38           -2.5830     6.7099    -2.9650 H       
  39 H39           -3.2369     6.6742    -1.3098 H       
  40 H40            3.1052     0.7028    -1.1298 H       
  41 H41           -0.3910    -2.1318     0.3350 H       
  42 H42           -1.4285     2.6251    -0.0782 H       
  43 H43           -4.3453    -0.9899     0.1641 H       
  44 H44           -5.5180     3.7889    -0.2462 H       
  45 H45           -3.1557     3.1160    -0.1403 H       
  46 H46            2.0230    -0.3382    -3.0664 H       
  47 H47            1.5919     1.2768    -3.7784 H       
  48 H48            4.4195     0.0546    -3.3963 H       
  49 H49            3.8536     1.1676    -4.7162 H       
  50 H50            3.5482     3.0232    -3.1445 H       
  51 H51            4.7996     2.1404    -2.1668 H       
  52 H52           -8.9088     3.7198    -0.3069 H       
@<TRIPOS>BOND
   1    1    2 ar
   2    1    3 1
   3    1   17 ar
   4    2   14 ar
   5    2   32 1
   6    3    4 1
   7    3   33 1
   8    3   34 1
   9    4    5 am
  10    4   13 1
  11    5    6 1
  12    5   11 2
  13    6    7 2
  14    6    8 1
  15    7   10 1
  16    7   35 1
  17    8    9 2
  18    9   10 1
  19    9   36 1
  20   10   12 1
  21   12   37 1
  22   12   38 1
  23   12   39 1
  24   13   25 1
  25   13   27 1
  26   13   40 1
  27   14   15 ar
  28   14   41 1
  29   15   16 ar
  30   16   17 ar
  31   16   18 1
  32   17   42 1
  33   18   19 ar
  34   18   23 ar
  35   19   20 ar
  36   19   43 1
  37   20   21 ar
  38   20   31 1
  39   21   22 ar
  40   21   24 1
  41   22   23 ar
  42   22   44 1
  43   23   45 1
  44   24   28 1
  45   25   26 1
  46   25   46 1
  47   25   47 1
  48   26   27 1
  49   26   48 1
  50   26   49 1
  51   27   50 1
  52   27   51 1
  53   28   29 1
  54   28   30 1
  55   28   52 1

#	End of record

