#	Name: ASD01420338
#	Creating user name:	WinNT
#	Creation time:	15. 06. 2019 19:20

#	Modifying user name:	WinNT
#	Modification time:	15. 06. 2019 19:20

#	Program:	/corina/corina34_cracker 3.40 0067  02.08.2006

@<TRIPOS>MOLECULE
ASD01420338
  25   25    0    0    0
SMALL
NO_CHARGES


@<TRIPOS>ATOM
   1 C1            -0.0199     1.4692    -0.0352 C.2     
   2 C2             0.0007    -0.0032    -0.0259 C.ar    
   3 C3             1.2292    -0.6906    -0.0301 C.ar    
   4 C4             1.2514    -2.0753    -0.0208 C.ar    
   5 C5             0.0664    -2.7912    -0.0078 C.ar    
   6 C6            -1.1685    -2.1124    -0.0035 C.ar    
   7 C7            -1.1942    -0.7165    -0.0070 C.ar    
   8 O8             1.0239     2.0915    -0.0466 O.2     
   9 O9            -1.1964     2.1266    -0.0368 O.3     
  10 O10            0.0940    -4.1453     0.0004 O.3     
  11 O11            2.3921     0.0038    -0.0437 O.3     
  12 C12           -2.4233    -2.8702     0.0103 C.2     
  13 O13           -2.4028    -4.0793    -0.0877 O.2     
  14 C14           -3.7386    -2.1473     0.1462 C.3     
  15 C15           -1.1408     3.5775    -0.0462 C.3     
  16 H16            2.1962    -2.5985    -0.0240 H       
  17 H17           -2.1383    -0.1920     0.0008 H       
  18 H18            0.1085    -4.5331     0.8861 H       
  19 H19            2.7363     0.2117     0.8357 H       
  20 H20           -3.5544    -1.0864     0.3150 H       
  21 H21           -4.3192    -2.2745    -0.7675 H       
  22 H22           -4.2936    -2.5584     0.9895 H       
  23 H23           -0.6115     3.9266     0.8403 H       
  24 H24           -0.6154     3.9152    -0.9396 H       
  25 H25           -2.1538     3.9799    -0.0465 H       
@<TRIPOS>BOND
   1    1    2 1
   2    1    8 2
   3    1    9 1
   4    2    3 ar
   5    2    7 ar
   6    3    4 ar
   7    3   11 1
   8    4    5 ar
   9    4   16 1
  10    5    6 ar
  11    5   10 1
  12    6    7 ar
  13    6   12 1
  14    7   17 1
  15    9   15 1
  16   10   18 1
  17   11   19 1
  18   12   13 2
  19   12   14 1
  20   14   20 1
  21   14   21 1
  22   14   22 1
  23   15   23 1
  24   15   24 1
  25   15   25 1

#	End of record

