#	Name: ASD01320039
#	Creating user name:	WinNT
#	Creation time:	15. 06. 2019 19:15

#	Modifying user name:	WinNT
#	Modification time:	15. 06. 2019 19:15

#	Program:	/corina/corina34_cracker 3.40 0067  02.08.2006

@<TRIPOS>MOLECULE
ASD01320039
  46   49    0    0    0
SMALL
NO_CHARGES


@<TRIPOS>ATOM
   1 C1             0.3748     0.4450     0.6085 C.ar    
   2 C2             0.1695    -0.1911    -0.6037 C.ar    
   3 C3             1.0969    -0.0588    -1.6239 C.ar    
   4 C4             2.2307     0.7095    -1.4335 C.ar    
   5 C5             2.4388     1.3494    -0.2165 C.ar    
   6 C6             1.5068     1.2146     0.8044 C.ar    
   7 Cl7            1.7626     2.0121     2.3249 Cl      
   8 F8            -0.9373    -0.9427    -0.7919 F       
   9 N9             3.5864     2.1279    -0.0204 N.pl3   
  10 C10            2.4493     4.0509    -0.9209 C.ar    
  11 C11            3.6018     3.4660    -0.4277 C.ar    
  12 C12            4.7795     4.2087    -0.3354 C.ar    
  13 C13            4.8101     5.5275    -0.7327 C.ar    
  14 C14            3.6599     6.1330    -1.2315 C.ar    
  15 C15            2.4735     5.3859    -1.3248 C.ar    
  16 Cl16           6.2193     3.4642     0.2862 Cl      
  17 N17            3.6829     7.4552    -1.6319 N.pl3   
  18 C18            2.6030     8.0849    -2.1196 C.2     
  19 C19            1.3840     7.4530    -2.2571 C.2     
  20 C20            1.2641     6.0421    -1.8553 C.2     
  21 C21            4.8778     8.1648    -1.5243 C.ar    
  22 C22            5.7783     8.1785    -2.5803 C.ar    
  23 C23            6.9617     8.8817    -2.4715 C.ar    
  24 C24            7.2596     9.5778    -1.3115 C.ar    
  25 C25            6.3771     9.5760    -0.2524 C.ar    
  26 C26            5.1737     8.8737    -0.3496 C.ar    
  27 C27            4.2251     8.8679     0.7790 C.2     
  28 O28            4.5180     9.5415     1.9087 O.3     
  29 O29            3.1793     8.2558     0.6905 O.2     
  30 O30            0.2092     5.4407    -1.9577 O.2     
  31 C31            0.2239     8.1773    -2.7957 C.2     
  32 O32           -0.9619     7.5493    -2.9254 O.3     
  33 O33            0.3337     9.3425    -3.1241 O.2     
  34 F34            3.1354     0.8381    -2.4286 F       
  35 H35           -0.3523     0.3437     1.4007 H       
  36 H36            0.9346    -0.5564    -2.5686 H       
  37 H37            4.3706     1.7393     0.3978 H       
  38 H38            1.5379     3.4765    -0.9969 H       
  39 H39            5.7274     6.0925    -0.6566 H       
  40 H40            2.6906     9.1203    -2.4138 H       
  41 H41            5.5534     7.6383    -3.4880 H       
  42 H42            7.6596     8.8888    -3.2957 H       
  43 H43            8.1880    10.1244    -1.2363 H       
  44 H44            6.6143    10.1200     0.6499 H       
  45 H45            3.8652     9.5084     2.6214 H       
  46 H46           -1.6958     8.0668    -3.2843 H       
@<TRIPOS>BOND
   1    1    2 ar
   2    1    6 ar
   3    1   35 1
   4    2    3 ar
   5    2    8 1
   6    3    4 ar
   7    3   36 1
   8    4    5 ar
   9    4   34 1
  10    5    6 ar
  11    5    9 1
  12    6    7 1
  13    9   11 1
  14    9   37 1
  15   10   11 ar
  16   10   15 ar
  17   10   38 1
  18   11   12 ar
  19   12   13 ar
  20   12   16 1
  21   13   14 ar
  22   13   39 1
  23   14   15 ar
  24   14   17 1
  25   15   20 1
  26   17   18 1
  27   17   21 1
  28   18   19 2
  29   18   40 1
  30   19   20 1
  31   19   31 1
  32   20   30 2
  33   21   22 ar
  34   21   26 ar
  35   22   23 ar
  36   22   41 1
  37   23   24 ar
  38   23   42 1
  39   24   25 ar
  40   24   43 1
  41   25   26 ar
  42   25   44 1
  43   26   27 1
  44   27   28 1
  45   27   29 2
  46   28   45 1
  47   31   32 1
  48   31   33 2
  49   32   46 1

#	End of record

