#	Name: ASD03330223
#	Creating user name:	WinNT
#	Creation time:	15. 06. 2019 20:36

#	Modifying user name:	WinNT
#	Modification time:	15. 06. 2019 20:36

#	Program:	/corina/corina34_cracker 3.40 0067  02.08.2006

@<TRIPOS>MOLECULE
ASD03330223
  51   53    0    0    0
SMALL
NO_CHARGES


@<TRIPOS>ATOM
   1 C1            -0.3386     1.8159    -0.5130 C.3     
   2 N2            -0.5011     0.3575    -0.4340 N.3     
   3 C3             0.0363    -0.3048    -1.6364 C.3     
   4 C4             1.4268     0.2243    -1.8762 C.2     
   5 N5             1.9182     1.3550    -1.2871 N.pl3   
   6 C6             1.1429     2.1837    -0.3594 C.3     
   7 C7             2.4072    -0.2747    -2.6670 C.2     
   8 N8             3.4851     0.5470    -2.5544 N.2     
   9 C9             3.1930     1.5254    -1.7254 C.2     
  10 C10            4.0994     2.6262    -1.3364 C.2     
  11 C11            3.8581     3.4357    -0.2881 C.2     
  12 C12            2.3213    -1.4878    -3.4985 C.2     
  13 O13            1.2964    -2.1425    -3.5149 O.2     
  14 O14            5.6478    -2.9290    -5.1147 O.2     
  15 C15            4.6763    -3.6331    -5.2916 C.2     
  16 C16            3.2930    -3.0784    -5.0678 C.3     
  17 N17            3.3784    -1.8721    -4.2410 N.am    
  18 C18            2.6595    -2.7289    -6.4159 C.3     
  19 C19            2.6487    -3.9695    -7.3113 C.3     
  20 C20            1.2243    -2.2467    -6.1953 C.3     
  21 C21            3.4719    -1.6211    -7.0893 C.3     
  22 N22            4.8337    -4.9115    -5.6882 N.am    
  23 C23            6.1714    -5.4239    -5.9950 C.3     
  24 S24            5.1033     4.5909    -0.1258 S.3     
  25 C25            5.9573     3.9438    -1.5186 C.2     
  26 C26            5.2830     2.9122    -2.0216 C.2     
  27 H27           -0.7013     2.1690    -1.4783 H       
  28 H28           -0.9135     2.2881     0.2836 H       
  29 H29           -0.0728    -0.0093     0.4028 H       
  30 H30            0.0743    -1.3825    -1.4776 H       
  31 H31           -0.5967    -0.0802    -2.4948 H       
  32 H32            1.2871     3.2372    -0.5988 H       
  33 H33            1.4656     1.9908     0.6638 H       
  34 H34            2.9967     3.3642     0.3594 H       
  35 H35            2.6803    -3.8238    -4.5608 H       
  36 H36            4.1958    -1.3499    -4.2279 H       
  37 H37            2.0447    -4.7484    -6.8457 H       
  38 H38            2.2251    -3.7131    -8.2824 H       
  39 H39            3.6684    -4.3310    -7.4437 H       
  40 H40            1.2320    -1.3629    -5.5574 H       
  41 H41            0.7730    -1.9977    -7.1557 H       
  42 H42            0.6455    -3.0360    -5.7155 H       
  43 H43            4.4943    -1.9646    -7.2465 H       
  44 H44            3.0205    -1.3721    -8.0497 H       
  45 H45            3.4796    -0.7372    -6.4514 H       
  46 H46            4.0612    -5.4924    -5.7706 H       
  47 H47            6.1000    -6.4690    -6.2960 H       
  48 H48            6.6065    -4.8408    -6.8067 H       
  49 H49            6.8031    -5.3429    -5.1104 H       
  50 H50            6.8912     4.3235    -1.9060 H       
  51 H51            5.6162     2.3528    -2.8832 H       
@<TRIPOS>BOND
   1    1    2 1
   2    1    6 1
   3    1   27 1
   4    1   28 1
   5    2    3 1
   6    2   29 1
   7    3    4 1
   8    3   30 1
   9    3   31 1
  10    4    5 1
  11    4    7 2
  12    5    6 1
  13    5    9 1
  14    6   32 1
  15    6   33 1
  16    7    8 1
  17    7   12 1
  18    8    9 2
  19    9   10 1
  20   10   11 2
  21   10   26 1
  22   11   24 1
  23   11   34 1
  24   12   13 2
  25   12   17 am
  26   14   15 2
  27   15   22 am
  28   15   16 1
  29   16   17 1
  30   16   18 1
  31   16   35 1
  32   17   36 1
  33   18   19 1
  34   18   20 1
  35   18   21 1
  36   19   37 1
  37   19   38 1
  38   19   39 1
  39   20   40 1
  40   20   41 1
  41   20   42 1
  42   21   43 1
  43   21   44 1
  44   21   45 1
  45   22   23 1
  46   22   46 1
  47   23   47 1
  48   23   48 1
  49   23   49 1
  50   24   25 1
  51   25   26 2
  52   25   50 1
  53   26   51 1

#	End of record

