#	Name: ASD02038179
#	Creating user name:	WinNT
#	Creation time:	15. 06. 2019 20:16

#	Modifying user name:	WinNT
#	Modification time:	15. 06. 2019 20:16

#	Program:	/corina/corina34_cracker 3.40 0067  02.08.2006

@<TRIPOS>MOLECULE
ASD02038179
  53   55    0    0    0
SMALL
NO_CHARGES


@<TRIPOS>ATOM
   1 C1             1.9643     1.6635    -0.6871 C.3     
   2 C2             2.1579     0.1470    -0.7585 C.3     
   3 N3             0.8760    -0.4930    -1.0854 N.3     
   4 C4             1.0040    -1.9564    -1.0888 C.3     
   5 C5             1.7025    -2.4042    -2.3743 C.3     
   6 C6             1.7030    -3.9324    -2.4487 C.3     
   7 O7             2.2502    -4.3481    -3.7017 O.3     
   8 C8             2.3229    -5.6866    -3.9298 C.ar    
   9 C9             2.8436    -6.1587    -5.1258 C.ar    
  10 C10            1.8817    -6.5795    -2.9643 C.ar    
  11 C11            1.9561    -7.9390    -3.1951 C.ar    
  12 C12            2.4723    -8.4121    -4.3939 C.ar    
  13 C13            2.9177    -7.5180    -5.3581 C.ar    
  14 N14            2.5485    -9.7917    -4.6286 N.am    
  15 C15            0.3608    -0.0064    -2.3727 C.3     
  16 C16            0.1672     1.5102    -2.3013 C.3     
  17 N17            1.4491     2.1502    -1.9744 N.3     
  18 C18            1.3274     3.5416    -1.9711 C.ar    
  19 C19            2.4301     4.3361    -1.6842 C.ar    
  20 C20            2.3064     5.7116    -1.6823 C.ar    
  21 C21            1.0865     6.2981    -1.9655 C.ar    
  22 C22           -0.0133     5.5101    -2.2516 C.ar    
  23 C23            0.1047     4.1341    -2.2604 C.ar    
  24 C24            1.6108   -10.6148    -4.1190 C.2     
  25 N25            1.7382   -11.9493    -4.2577 N.am    
  26 O26            0.6498   -10.1533    -3.5341 O.2     
  27 O27            3.0494    -1.9269    -2.3756 O.3     
  28 H28            1.2526     1.9024     0.1032 H       
  29 H29            2.9198     2.1424    -0.4733 H       
  30 H30            2.8900    -0.0902    -1.5304 H       
  31 H31            2.5125    -0.2201     0.2046 H       
  32 H32            1.5921    -2.2718    -0.2270 H       
  33 H33            0.0132    -2.4079    -1.0375 H       
  34 H34            1.1725    -1.9986    -3.2361 H       
  35 H35            2.3078    -4.3356    -1.6364 H       
  36 H36            0.6811    -4.3009    -2.3584 H       
  37 H37            3.1907    -5.4631    -5.8754 H       
  38 H38            1.4802    -6.2114    -2.0317 H       
  39 H39            1.6132    -8.6341    -2.4429 H       
  40 H40            3.3193    -7.8854    -6.2910 H       
  41 H41            3.2762   -10.1542    -5.1577 H       
  42 H42            1.0725    -0.2453    -3.1630 H       
  43 H43           -0.5947    -0.4853    -2.5865 H       
  44 H44           -0.1874     1.8773    -3.2644 H       
  45 H45           -0.5649     1.7473    -1.5294 H       
  46 H46            3.3830     3.8787    -1.4626 H       
  47 H47            3.1632     6.3300    -1.4589 H       
  48 H48            0.9924     7.3740    -1.9630 H       
  49 H49           -0.9646     5.9713    -2.4724 H       
  50 H50           -0.7545     3.5193    -2.4843 H       
  51 H51            2.5048   -12.3174    -4.7243 H       
  52 H52            1.0633   -12.5417    -3.8910 H       
  53 H53            3.5814    -2.2485    -1.6349 H       
@<TRIPOS>BOND
   1    1    2 1
   2    1   17 1
   3    1   28 1
   4    1   29 1
   5    2    3 1
   6    2   30 1
   7    2   31 1
   8    3    4 1
   9    3   15 1
  10    4    5 1
  11    4   32 1
  12    4   33 1
  13    5    6 1
  14    5   27 1
  15    5   34 1
  16    6    7 1
  17    6   35 1
  18    6   36 1
  19    7    8 1
  20    8    9 ar
  21    8   10 ar
  22    9   13 ar
  23    9   37 1
  24   10   11 ar
  25   10   38 1
  26   11   12 ar
  27   11   39 1
  28   12   13 ar
  29   12   14 1
  30   13   40 1
  31   14   24 am
  32   14   41 1
  33   15   16 1
  34   15   42 1
  35   15   43 1
  36   16   17 1
  37   16   44 1
  38   16   45 1
  39   17   18 1
  40   18   19 ar
  41   18   23 ar
  42   19   20 ar
  43   19   46 1
  44   20   21 ar
  45   20   47 1
  46   21   22 ar
  47   21   48 1
  48   22   23 ar
  49   22   49 1
  50   23   50 1
  51   24   25 am
  52   24   26 2
  53   25   51 1
  54   25   52 1
  55   27   53 1

#	End of record

