#	Name: ASD01900488
#	Creating user name:	WinNT
#	Creation time:	15. 06. 2019 19:52

#	Modifying user name:	WinNT
#	Modification time:	15. 06. 2019 19:52

#	Program:	/corina/corina34_cracker 3.40 0067  02.08.2006

@<TRIPOS>MOLECULE
ASD01900488
  40   43    0    0    0
SMALL
NO_CHARGES


@<TRIPOS>ATOM
   1 C1             0.1587     1.5795     0.1850 C.ar    
   2 C2             0.3704     0.2110     0.0638 C.ar    
   3 C3             1.6422    -0.3066     0.2135 C.ar    
   4 C4             2.7092     0.5407     0.4851 C.ar    
   5 C5             2.4969     1.9078     0.6065 C.ar    
   6 C6             1.2253     2.4255     0.4564 C.ar    
   7 N7            -1.1301     2.1056     0.0274 N.pl3   
   8 N8             3.9977     0.0166     0.6369 N.pl3   
   9 C9            -1.3007     3.3826    -0.4955 C.ar    
  10 C10           -2.5709     3.9498    -0.5298 C.ar    
  11 C11           -2.7259     5.2208    -1.0523 C.ar    
  12 C12           -1.6014     5.8850    -1.5248 C.ar    
  13 C13           -0.3712     5.2623    -1.4599 C.ar    
  14 N14           -0.2520     4.0504    -0.9515 N.ar    
  15 C15           -4.0846     5.8704    -1.1080 C.3     
  16 F16           -4.3073     6.5878     0.0722 F       
  17 F17           -4.1403     6.7419    -2.2010 F       
  18 F18           -5.0675     4.8846    -1.2471 F       
  19 C19            6.3430     0.3155     1.5993 C.ar    
  20 C20            6.8943     1.2706     2.4747 C.ar    
  21 C21            8.2411     1.1723     2.8224 C.ar    
  22 C22            8.9798     0.1347     2.2887 C.ar    
  23 C23            8.3705    -0.7718     1.4309 C.ar    
  24 N24            7.1003    -0.6651     1.1133 N.ar    
  25 N25            4.7148     1.7526     2.1498 N.2     
  26 N26            5.8891     2.1415     2.8025 N.pl3   
  27 C27            4.9367     0.6871     1.4267 C.2     
  28 Cl28          -0.9634    -0.8473    -0.2751 Cl      
  29 H29            1.8071    -1.3698     0.1198 H       
  30 H30            3.3263     2.5662     0.8184 H       
  31 H31            1.0608     3.4888     0.5502 H       
  32 H32           -1.9036     1.5790     0.2832 H       
  33 H33            4.2396    -0.8119     0.1941 H       
  34 H34           -3.4241     3.4046    -0.1539 H       
  35 H35           -1.6887     6.8785    -1.9392 H       
  36 H36            0.5058     5.7752    -1.8262 H       
  37 H37            8.6947     1.8889     3.4912 H       
  38 H38           10.0256     0.0290     2.5366 H       
  39 H39            8.9531    -1.5811     1.0162 H       
  40 H40            5.9775     2.9059     3.3931 H       
@<TRIPOS>BOND
   1    1    2 ar
   2    1    6 ar
   3    1    7 1
   4    2    3 ar
   5    2   28 1
   6    3    4 ar
   7    3   29 1
   8    4    5 ar
   9    4    8 1
  10    5    6 ar
  11    5   30 1
  12    6   31 1
  13    7    9 1
  14    7   32 1
  15    8   27 1
  16    8   33 1
  17    9   10 ar
  18    9   14 ar
  19   10   11 ar
  20   10   34 1
  21   11   12 ar
  22   11   15 1
  23   12   13 ar
  24   12   35 1
  25   13   14 ar
  26   13   36 1
  27   15   16 1
  28   15   17 1
  29   15   18 1
  30   19   20 ar
  31   19   24 ar
  32   19   27 1
  33   20   21 ar
  34   20   26 1
  35   21   22 ar
  36   21   37 1
  37   22   23 ar
  38   22   38 1
  39   23   24 ar
  40   23   39 1
  41   25   26 1
  42   25   27 2
  43   26   40 1

#	End of record

