#	Name: ASD04882189
#	Creating user name:	WinNT
#	Creation time:	15. 06. 2019 20:54

#	Modifying user name:	WinNT
#	Modification time:	15. 06. 2019 20:54

#	Program:	/corina/corina34_cracker 3.40 0067  02.08.2006

@<TRIPOS>MOLECULE
ASD04882189
  71   75    0    0    0
SMALL
NO_CHARGES


@<TRIPOS>ATOM
   1 C1            -0.1617     1.4752     0.4539 C.2     
   2 C2            -0.1422     0.0094     0.4883 C.2     
   3 N3            -1.1637    -0.6908    -0.0433 N.am    
   4 C4            -1.0913    -2.0879    -0.1181 C.ar    
   5 C5            -2.2495    -2.8570     0.0250 C.ar    
   6 C6            -2.1792    -4.2434    -0.0495 C.ar    
   7 C7            -0.9686    -4.8640    -0.2639 C.ar    
   8 C8             0.1935    -4.1009    -0.4078 C.ar    
   9 C9             0.1247    -2.7066    -0.3391 C.ar    
  10 N10           -3.4755    -2.2336     0.2429 N.3     
  11 C11           -3.4998    -1.5615     1.5495 C.3     
  12 C12           -4.5823    -3.1935     0.1269 C.3     
  13 C13           -5.9130    -2.4561     0.2937 C.3     
  14 N14           -5.9373    -1.7840     1.6003 N.3     
  15 C15           -4.8306    -0.8242     1.7162 C.3     
  16 C16           -7.1670    -1.1588     1.8189 C.ar    
  17 C17           -7.3949    -0.4648     3.0004 C.ar    
  18 C18           -8.1629    -1.2247     0.8527 C.ar    
  19 C19           -9.3777    -0.6055     1.0720 C.ar    
  20 C20           -9.6031     0.0801     2.2516 C.ar    
  21 C21           -8.6120     0.1522     3.2133 C.ar    
  22 C22            1.4902    -4.7661    -0.6375 C.2     
  23 N23            1.5547    -6.1104    -0.7086 N.am    
  24 O24            2.5007    -4.1014    -0.7626 O.2     
  25 O25            0.7966    -0.5749     0.9970 O.2     
  26 C26            2.8423    -6.7709    -0.9367 C.3     
  27 C27            2.6384    -8.2868    -0.9744 C.3     
  28 C28            3.9831    -8.9766    -1.2125 C.3     
  29 N29            3.7878   -10.4281    -1.2486 N.am    
  30 C30            3.4934   -11.1940    -2.4654 C.3     
  31 C31            2.9493   -12.5540    -1.9747 C.3     
  32 C32            3.5932   -12.6642    -0.5733 C.3     
  33 C33            3.8608   -11.2301    -0.1724 C.2     
  34 C34            0.8031     2.3025     0.9533 C.2     
  35 O35            4.0992   -10.8574     0.9568 O.2     
  36 C36            0.3766     3.6164     0.7041 C.2     
  37 C37           -0.8147     3.5346     0.0715 C.2     
  38 O38           -1.1333     2.2427    -0.0819 O.3     
  39 H39           -1.9490    -0.2275    -0.3742 H       
  40 H40           -3.0758    -4.8351     0.0615 H       
  41 H41           -0.9171    -5.9413    -0.3205 H       
  42 H42            1.0210    -2.1144    -0.4500 H       
  43 H43           -3.3929    -2.3026     2.3417 H       
  44 H44           -2.6786    -0.8470     1.6062 H       
  45 H45           -4.5503    -3.6688    -0.8535 H       
  46 H46           -4.4877    -3.9530     0.9029 H       
  47 H47           -6.0200    -1.7151    -0.4985 H       
  48 H48           -6.7343    -3.1706     0.2370 H       
  49 H49           -4.8626    -0.3489     2.6966 H       
  50 H50           -4.9252    -0.0646     0.9402 H       
  51 H51           -6.6213    -0.4082     3.7519 H       
  52 H52           -7.9873    -1.7594    -0.0691 H       
  53 H53          -10.1524    -0.6564     0.3212 H       
  54 H54          -10.5537     0.5641     2.4203 H       
  55 H55           -8.7913     0.6884     4.1335 H       
  56 H56            0.7486    -6.6406    -0.6088 H       
  57 H57            3.2589    -6.4366    -1.8869 H       
  58 H58            3.5291    -6.5167    -0.1294 H       
  59 H59            2.2218    -8.6211    -0.0242 H       
  60 H60            1.9516    -8.5410    -1.7817 H       
  61 H61            4.3997    -8.6423    -2.1627 H       
  62 H62            4.6699    -8.7223    -0.4052 H       
  63 H63            2.7402   -10.6795    -3.0620 H       
  64 H64            4.4027   -11.3398    -3.0486 H       
  65 H65            1.8617   -12.5365    -1.9040 H       
  66 H66            3.2835   -13.3645    -2.6224 H       
  67 H67            2.9045   -13.1368     0.1270 H       
  68 H68            4.5280   -13.2223    -0.6258 H       
  69 H69            1.7171     2.0038     1.4451 H       
  70 H70            0.9016     4.5224     0.9687 H       
  71 H71           -1.4100     4.3728    -0.2594 H       
@<TRIPOS>BOND
   1    1    2 1
   2    1   34 2
   3    1   38 1
   4    2    3 am
   5    2   25 2
   6    3    4 1
   7    3   39 1
   8    4    5 ar
   9    4    9 ar
  10    5    6 ar
  11    5   10 1
  12    6    7 ar
  13    6   40 1
  14    7    8 ar
  15    7   41 1
  16    8    9 ar
  17    8   22 1
  18    9   42 1
  19   10   11 1
  20   10   12 1
  21   11   15 1
  22   11   43 1
  23   11   44 1
  24   12   13 1
  25   12   45 1
  26   12   46 1
  27   13   14 1
  28   13   47 1
  29   13   48 1
  30   14   15 1
  31   14   16 1
  32   15   49 1
  33   15   50 1
  34   16   17 ar
  35   16   18 ar
  36   17   21 ar
  37   17   51 1
  38   18   19 ar
  39   18   52 1
  40   19   20 ar
  41   19   53 1
  42   20   21 ar
  43   20   54 1
  44   21   55 1
  45   22   23 am
  46   22   24 2
  47   23   26 1
  48   23   56 1
  49   26   27 1
  50   26   57 1
  51   26   58 1
  52   27   28 1
  53   27   59 1
  54   27   60 1
  55   28   29 1
  56   28   61 1
  57   28   62 1
  58   29   30 1
  59   29   33 am
  60   30   31 1
  61   30   63 1
  62   30   64 1
  63   31   32 1
  64   31   65 1
  65   31   66 1
  66   32   33 1
  67   32   67 1
  68   32   68 1
  69   33   35 2
  70   34   36 1
  71   34   69 1
  72   36   37 2
  73   36   70 1
  74   37   38 1
  75   37   71 1

#	End of record

