#	Name: ASD05062024
#	Creating user name:	WinNT
#	Creation time:	15. 06. 2019 20:56

#	Modifying user name:	WinNT
#	Modification time:	15. 06. 2019 20:56

#	Program:	/corina/corina34_cracker 3.40 0067  02.08.2006

@<TRIPOS>MOLECULE
ASD05062024
  45   47    0    0    0
SMALL
NO_CHARGES


@<TRIPOS>ATOM
   1 C1            -0.0168     1.3899     0.0097 C.ar    
   2 C2             0.0021    -0.0041     0.0020 C.ar    
   3 C3            -1.1544    -0.7212     0.0092 C.ar    
   4 C4            -2.3910    -0.0518     0.0245 C.ar    
   5 C5            -2.4064     1.3638     0.0323 C.ar    
   6 C6            -1.1975     2.0719     0.0303 C.ar    
   7 N7            -3.5419    -0.7326     0.0313 N.ar    
   8 C8            -4.7038    -0.1247     0.0453 C.ar    
   9 C9            -4.8074     1.2615     0.0538 C.ar    
  10 C10           -3.6549     2.0358     0.0479 C.ar    
  11 Cl11           1.4807     2.2680     0.0001 Cl      
  12 C12           -3.7274     3.5150     0.0571 C.ar    
  13 C13           -3.2426     4.2331     1.1502 C.ar    
  14 C14           -3.3124     5.6111     1.1526 C.ar    
  15 C15           -3.8619     6.2806     0.0738 C.ar    
  16 C16           -4.3444     5.5740    -1.0134 C.ar    
  17 C17           -4.2753     4.1960    -1.0299 C.ar    
  18 C18           -5.9630    -0.9527     0.0517 C.3     
  19 C19           -6.1627     1.9200     0.0698 C.3     
  20 C20           -6.9363     1.5073    -1.1559 C.2     
  21 O21           -8.1788     1.9749    -1.3543 O.3     
  22 O22           -6.4381     0.7555    -1.9599 O.2     
  23 C23           -6.9252     1.4874     1.3238 C.3     
  24 C24           -8.2488     2.2505     1.4045 C.3     
  25 C25           -9.0113     1.8179     2.6585 C.3     
  26 H26            0.9492    -0.5228    -0.0102 H       
  27 H27           -1.1227    -1.8007     0.0027 H       
  28 H28           -1.2008     3.1519     0.0365 H       
  29 H29           -2.8138     3.7115     1.9931 H       
  30 H30           -2.9377     6.1682     1.9986 H       
  31 H31           -3.9146     7.3593     0.0805 H       
  32 H32           -4.7725     6.1023    -1.8525 H       
  33 H33           -4.6523     3.6455    -1.8791 H       
  34 H34           -6.2573    -1.1583     1.0809 H       
  35 H35           -6.7601    -0.4058    -0.4518 H       
  36 H36           -5.7822    -1.8929    -0.4692 H       
  37 H37           -6.0404     3.0031     0.0746 H       
  38 H38           -8.6354     1.6821    -2.1549 H       
  39 H39           -7.1253     0.4170     1.2761 H       
  40 H40           -6.3253     1.7059     2.2072 H       
  41 H41           -8.0488     3.3209     1.4522 H       
  42 H42           -8.8487     2.0320     0.5211 H       
  43 H43           -9.2114     0.7475     2.6108 H       
  44 H44           -8.4114     2.0364     3.5419 H       
  45 H45           -9.9543     2.3615     2.7160 H       
@<TRIPOS>BOND
   1    1    2 ar
   2    1   11 1
   3    1    6 ar
   4    2    3 ar
   5    2   26 1
   6    3    4 ar
   7    3   27 1
   8    4    5 ar
   9    4    7 ar
  10    5    6 ar
  11    5   10 ar
  12    6   28 1
  13    7    8 ar
  14    8    9 ar
  15    8   18 1
  16    9   10 ar
  17    9   19 1
  18   10   12 1
  19   12   13 ar
  20   12   17 ar
  21   13   14 ar
  22   13   29 1
  23   14   15 ar
  24   14   30 1
  25   15   16 ar
  26   15   31 1
  27   16   17 ar
  28   16   32 1
  29   17   33 1
  30   18   34 1
  31   18   35 1
  32   18   36 1
  33   19   20 1
  34   19   23 1
  35   19   37 1
  36   20   21 1
  37   20   22 2
  38   21   38 1
  39   23   24 1
  40   23   39 1
  41   23   40 1
  42   24   25 1
  43   24   41 1
  44   24   42 1
  45   25   43 1
  46   25   44 1
  47   25   45 1

#	End of record

