#	Name: ASD05300005
#	Creating user name:	WinNT
#	Creation time:	15. 06. 2019 20:58

#	Modifying user name:	WinNT
#	Modification time:	15. 06. 2019 20:58

#	Program:	/corina/corina34_cracker 3.40 0067  02.08.2006

@<TRIPOS>MOLECULE
ASD05300005
  39   41    0    0    0
SMALL
NO_CHARGES


@<TRIPOS>ATOM
   1 C1            -0.0187     1.5258     0.0104 C.3     
   2 C2             0.0021    -0.0041     0.0020 C.3     
   3 N3            -1.3723    -0.5112     0.0124 N.am    
   4 C4            -2.0286    -0.6552     1.1807 C.2     
   5 O5            -1.4814    -0.3650     2.2235 O.2     
   6 N6            -3.2931    -1.1217     1.1903 N.am    
   7 C7            -3.9530    -1.2669     2.3607 C.2     
   8 C8            -4.2053    -0.1429     3.1496 C.2     
   9 C9            -4.9200    -0.2679     4.3394 C.2     
  10 C10           -5.3930    -1.5180     4.7370 C.2     
  11 C11           -5.1338    -2.6412     3.9547 C.2     
  12 C12           -4.3958    -2.5217     2.7735 C.2     
  13 C13           -4.0573    -3.7279     2.0135 C.2     
  14 C14           -4.0171    -3.8282     0.7245 C.2     
  15 C15           -4.3118    -2.7502    -0.2260 C.2     
  16 C16           -3.9063    -1.4402     0.0298 C.2     
  17 C17           -4.1334    -0.4426    -0.9225 C.2     
  18 C18           -4.8036    -0.7442    -2.1063 C.2     
  19 C19           -5.2494    -2.0444    -2.3415 C.2     
  20 C20           -5.0059    -3.0448    -1.4027 C.2     
  21 C21            0.7182    -0.4975    -1.2568 C.3     
  22 H22            1.0039     1.9031     0.0027 H       
  23 H23           -0.5459     1.8868    -0.8726 H       
  24 H24           -0.5289     1.8773     0.9072 H       
  25 H25            0.5293    -0.3651     0.8851 H       
  26 H26           -1.8100    -0.7432    -0.8215 H       
  27 H27           -3.8452     0.8262     2.8370 H       
  28 H28           -5.1069     0.6015     4.9523 H       
  29 H29           -5.9596    -1.6155     5.6512 H       
  30 H30           -5.5042    -3.6080     4.2621 H       
  31 H31           -3.8190    -4.6148     2.5819 H       
  32 H32           -3.7427    -4.7880     0.3125 H       
  33 H33           -3.7888     0.5645    -0.7402 H       
  34 H34           -4.9780     0.0283    -2.8407 H       
  35 H35           -5.7844    -2.2766    -3.2504 H       
  36 H36           -5.3518    -4.0513    -1.5862 H       
  37 H37            1.7408    -0.1202    -1.2645 H       
  38 H38            0.7330    -1.5874    -1.2628 H       
  39 H39            0.1910    -0.1364    -2.1398 H       
@<TRIPOS>BOND
   1    1    2 1
   2    1   22 1
   3    1   23 1
   4    1   24 1
   5    2    3 1
   6    2   21 1
   7    2   25 1
   8    3    4 am
   9    3   26 1
  10    4    5 2
  11    4    6 am
  12    6    7 1
  13    6   16 1
  14    7    8 2
  15    7   12 1
  16    8    9 1
  17    8   27 1
  18    9   10 2
  19    9   28 1
  20   10   11 1
  21   10   29 1
  22   11   12 2
  23   11   30 1
  24   12   13 1
  25   13   14 2
  26   13   31 1
  27   14   15 1
  28   14   32 1
  29   15   16 2
  30   15   20 1
  31   16   17 1
  32   17   18 2
  33   17   33 1
  34   18   19 1
  35   18   34 1
  36   19   20 2
  37   19   35 1
  38   20   36 1
  39   21   37 1
  40   21   38 1
  41   21   39 1

#	End of record

