#	Name: ASD01410746
#	Creating user name:	WinNT
#	Creation time:	15. 06. 2019 19:18

#	Modifying user name:	WinNT
#	Modification time:	15. 06. 2019 19:18

#	Program:	/corina/corina34_cracker 3.40 0067  02.08.2006

@<TRIPOS>MOLECULE
ASD01410746
  65   66    0    0    0
SMALL
NO_CHARGES


@<TRIPOS>ATOM
   1 S1            -1.3382     1.0640    -0.0636 S.3     
   2 C2            -0.8915    -0.6356    -0.1161 C.2     
   3 C3             0.4685    -0.7613     0.0463 C.2     
   4 C4             1.1341     0.4300     0.2058 C.2     
   5 C5             0.3374     1.5379     0.1767 C.2     
   6 C6             0.7982     2.8861     0.3201 C.1     
   7 C7             1.1760     3.9914     0.4376 C.1     
   8 C8             1.6497     5.3773     0.5850 C.3     
   9 C9             3.1677     5.3799     0.7756 C.3     
  10 C10            1.2920     6.1748    -0.6707 C.3     
  11 C11           -1.7931    -1.7096    -0.2973 C.2     
  12 N12            1.1183    -1.9964     0.0496 N.am    
  13 O13           -3.1123    -1.4655    -0.4471 O.3     
  14 O14           -1.3796    -2.8543    -0.3181 O.2     
  15 C15            1.4101    -2.6672     1.3189 C.3     
  16 C16            1.4773    -2.5721    -1.1149 C.2     
  17 C17            1.0810    -1.9373    -2.4230 C.3     
  18 O18            2.1193    -3.6011    -1.1102 O.2     
  19 C19            0.8233    -4.0800     1.2958 C.3     
  20 C20            2.9023    -2.7461     1.5139 C.2     
  21 C21            1.0511    -3.0042    -3.5193 C.3     
  22 C22            0.6488    -2.3597    -4.8473 C.3     
  23 C23            1.6644    -1.2768    -5.2170 C.3     
  24 C24            1.6942    -0.2099    -4.1208 C.3     
  25 C25            2.0966    -0.8544    -2.7927 C.3     
  26 C26            1.2620    -0.6323    -6.5451 C.3     
  27 N27            3.4082    -3.0622     2.7225 N.am    
  28 O28            3.6480    -2.5253     0.5832 O.2     
  29 C29            4.8589    -3.1389     2.9120 C.3     
  30 C30            2.5075    -3.3289     3.8466 C.3     
  31 C31            0.9816     6.0177     1.8034 C.3     
  32 H32            2.2039     0.4855     0.3437 H       
  33 H33            3.6437     4.9236    -0.0924 H       
  34 H34            3.5185     6.4061     0.8848 H       
  35 H35            3.4226     4.8117     1.6702 H       
  36 H36            0.2104     6.1730    -0.8065 H       
  37 H37            1.6427     7.2011    -0.5616 H       
  38 H38            1.7679     5.7186    -1.5387 H       
  39 H39           -3.6487    -2.2615    -0.5648 H       
  40 H40            0.9659    -2.1026     2.1387 H       
  41 H41            0.0920    -1.4896    -2.3247 H       
  42 H42            1.3347    -4.6735     0.5380 H       
  43 H43            0.9569    -4.5449     2.2726 H       
  44 H44           -0.2397    -4.0281     1.0605 H       
  45 H45            2.0401    -3.4519    -3.6176 H       
  46 H46            0.3276    -3.7757    -3.2559 H       
  47 H47            0.6275    -3.1198    -5.6283 H       
  48 H48           -0.3402    -1.9120    -4.7490 H       
  49 H49            2.6533    -1.7245    -5.3153 H       
  50 H50            2.4177     0.5616    -4.3842 H       
  51 H51            0.7053     0.2378    -4.0225 H       
  52 H52            2.1178    -0.0943    -2.0117 H       
  53 H53            3.0855    -1.3021    -2.8910 H       
  54 H54            0.2731    -0.1846    -6.4468 H       
  55 H55            1.9856     0.1392    -6.8085 H       
  56 H56            1.2408    -1.3923    -7.3261 H       
  57 H57            5.2384    -2.1619     3.2112 H       
  58 H58            5.0857    -3.8700     3.6880 H       
  59 H59            5.3318    -3.4419     1.9779 H       
  60 H60            2.2643    -4.3911     3.8732 H       
  61 H61            2.9956    -3.0445     4.7787 H       
  62 H62            1.5923    -2.7497     3.7243 H       
  63 H63            1.2365     5.4496     2.6980 H       
  64 H64            1.3324     7.0440     1.9126 H       
  65 H65           -0.0999     6.0159     1.6677 H       
@<TRIPOS>BOND
   1    1    2 1
   2    1    5 1
   3    2    3 2
   4    2   11 1
   5    3    4 1
   6    3   12 1
   7    4    5 2
   8    4   32 1
   9    5    6 1
  10    6    7 3
  11    7    8 1
  12    8    9 1
  13    8   10 1
  14    8   31 1
  15    9   33 1
  16    9   34 1
  17    9   35 1
  18   10   36 1
  19   10   37 1
  20   10   38 1
  21   11   13 1
  22   11   14 2
  23   12   15 1
  24   12   16 am
  25   13   39 1
  26   15   19 1
  27   15   20 1
  28   15   40 1
  29   16   18 2
  30   16   17 1
  31   17   21 1
  32   17   25 1
  33   17   41 1
  34   19   42 1
  35   19   43 1
  36   19   44 1
  37   20   27 am
  38   20   28 2
  39   21   22 1
  40   21   45 1
  41   21   46 1
  42   22   23 1
  43   22   47 1
  44   22   48 1
  45   23   24 1
  46   23   26 1
  47   23   49 1
  48   24   25 1
  49   24   50 1
  50   24   51 1
  51   25   52 1
  52   25   53 1
  53   26   54 1
  54   26   55 1
  55   26   56 1
  56   27   29 1
  57   27   30 1
  58   29   57 1
  59   29   58 1
  60   29   59 1
  61   30   60 1
  62   30   61 1
  63   30   62 1
  64   31   63 1
  65   31   64 1
  66   31   65 1

#	End of record

