#	Name: ASD03731778
#	Creating user name:	WinNT
#	Creation time:	15. 06. 2019 20:46

#	Modifying user name:	WinNT
#	Modification time:	15. 06. 2019 20:46

#	Program:	/corina/corina34_cracker 3.40 0067  02.08.2006

@<TRIPOS>MOLECULE
ASD03731778
  41   42    0    0    0
SMALL
NO_CHARGES


@<TRIPOS>ATOM
   1 C1             0.3764     1.0921     1.9824 C.2     
   2 C2             0.2924    -0.2837     1.4542 C.ar    
   3 C3             1.3755    -0.8366     0.7650 C.ar    
   4 C4             1.2921    -2.1241     0.2727 C.ar    
   5 C5             0.1290    -2.8696     0.4638 C.ar    
   6 C6            -0.9466    -2.3200     1.1480 C.ar    
   7 C7            -0.8673    -1.0378     1.6471 C.ar    
   8 O8             1.3884     1.7456     1.8181 O.2     
   9 N9            -0.6708     1.6257     2.6420 N.am    
  10 O10            0.0484    -4.1354    -0.0208 O.3     
  11 C11           -1.1388    -4.7869     0.0912 C.ar    
  12 C12           -2.0919    -4.6695    -0.9094 C.ar    
  13 C13           -3.3017    -5.3357    -0.7925 C.ar    
  14 C14           -3.5565    -6.1184     0.3251 C.ar    
  15 C15           -2.6057    -6.2335     1.3208 C.ar    
  16 C16           -1.3964    -5.5749     1.2041 C.ar    
  17 O17           -4.2379    -5.2224    -1.7710 O.3     
  18 C18           -5.4614    -5.9365    -1.5842 C.3     
  19 F19           -6.0859    -5.4933    -0.4134 F       
  20 F20           -6.3050    -5.7102    -2.6771 F       
  21 F21           -5.1912    -7.3051    -1.4792 F       
  22 S22           -0.5767     3.1692     3.2345 S.o2    
  23 O23           -1.8279     3.3754     3.8757 O.2     
  24 O24            0.6370     3.1875     3.9734 O.2     
  25 C25           -0.4385     4.2134     1.7576 C.3     
  26 O26            2.3438    -2.6649    -0.3987 O.3     
  27 C27            3.5029    -1.8445    -0.5579 C.3     
  28 H28            2.2754    -0.2580     0.6175 H       
  29 H29           -1.8459    -2.9001     1.2934 H       
  30 H30           -1.7036    -0.6145     2.1835 H       
  31 H31           -1.4797     1.1058     2.7696 H       
  32 H32           -1.8920    -4.0598    -1.7781 H       
  33 H33           -4.4991    -6.6377     0.4166 H       
  34 H34           -2.8062    -6.8424     2.1900 H       
  35 H35           -0.6528    -5.6703     1.9815 H       
  36 H36           -1.3176     4.0718     1.1290 H       
  37 H37           -0.3706     5.2593     2.0572 H       
  38 H38            0.4558     3.9366     1.1993 H       
  39 H39            4.2649    -2.3951    -1.1095 H       
  40 H40            3.2366    -0.9422    -1.1085 H       
  41 H41            3.8914    -1.5702     0.4229 H       
@<TRIPOS>BOND
   1    1    2 1
   2    1    8 2
   3    1    9 am
   4    2    3 ar
   5    2    7 ar
   6    3    4 ar
   7    3   28 1
   8    4    5 ar
   9    4   26 1
  10    5    6 ar
  11    5   10 1
  12    6    7 ar
  13    6   29 1
  14    7   30 1
  15    9   22 am
  16    9   31 1
  17   10   11 1
  18   11   12 ar
  19   11   16 ar
  20   12   13 ar
  21   12   32 1
  22   13   14 ar
  23   13   17 1
  24   14   15 ar
  25   14   33 1
  26   15   16 ar
  27   15   34 1
  28   16   35 1
  29   17   18 1
  30   18   19 1
  31   18   20 1
  32   18   21 1
  33   22   23 2
  34   22   24 2
  35   22   25 1
  36   25   36 1
  37   25   37 1
  38   25   38 1
  39   26   27 1
  40   27   39 1
  41   27   40 1
  42   27   41 1

#	End of record

