#	Name: ASD02500271
#	Creating user name:	WinNT
#	Creation time:	15. 06. 2019 20:22

#	Modifying user name:	WinNT
#	Modification time:	15. 06. 2019 20:22

#	Program:	/corina/corina34_cracker 3.40 0067  02.08.2006

@<TRIPOS>MOLECULE
ASD02500271
  66   70    0    0    0
SMALL
NO_CHARGES


@<TRIPOS>ATOM
   1 N1            -3.0294     5.5495    -0.6517 N.ar    
   2 C2            -4.1266     6.1710    -1.0099 C.ar    
   3 C3            -5.3123     6.0389    -0.2902 C.ar    
   4 C4            -5.3509     5.2447     0.8202 C.ar    
   5 C5            -4.1708     4.5785     1.2016 C.ar    
   6 C6            -4.1338     3.7460     2.3314 C.ar    
   7 C7            -2.9725     3.1193     2.6676 C.ar    
   8 C8            -1.8195     3.2936     1.9054 C.ar    
   9 C9            -1.8198     4.0934     0.8041 C.ar    
  10 C10           -2.9992     4.7574     0.4247 C.ar    
  11 S11           -0.3472     4.2967    -0.1418 S.o2    
  12 O12           -0.1180     5.6962    -0.2317 O.2     
  13 O13            0.6030     3.3864     0.3946 O.2     
  14 N14           -0.6765     3.7769    -1.6792 N.am    
  15 C15           -0.9376     2.4297    -1.9181 C.ar    
  16 C16           -0.5016     1.8346    -3.1038 C.ar    
  17 C17           -0.7599     0.5000    -3.3411 C.ar    
  18 C18           -1.4584    -0.2536    -2.3925 C.ar    
  19 C19           -1.8921     0.3472    -1.2080 C.ar    
  20 C20           -1.6268     1.6784    -0.9733 C.ar    
  21 C21           -1.7372    -1.6806    -2.6422 C.2     
  22 O22           -2.1311    -2.0410    -3.7347 O.2     
  23 N23           -1.5552    -2.5848    -1.6595 N.am    
  24 C24           -1.6909    -4.0227    -1.9316 C.3     
  25 C25           -0.3992    -4.7274    -1.4991 C.3     
  26 N26           -0.0610    -4.2932    -0.1364 N.am    
  27 C27            0.0748    -2.8554     0.1356 C.3     
  28 C28           -1.2115    -2.1510    -0.2981 C.3     
  29 C29            0.6646    -4.7686     2.1563 C.ar    
  30 C30            0.6952    -5.6684     3.2193 C.ar    
  31 C31            1.2118    -5.2545     4.4369 C.ar    
  32 C32            1.6801    -3.9546     4.5489 C.ar    
  33 C33            1.6187    -3.1134     3.4496 C.ar    
  34 N34            1.1232    -3.5322     2.3055 N.ar    
  35 C35            0.1210    -5.1975     0.8463 C.2     
  36 O36           -0.1607    -6.3644     0.6579 O.2     
  37 C37            2.2499    -3.4609     5.8538 C.3     
  38 F38            3.6265    -3.7084     5.8848 F       
  39 F39            2.0205    -2.0859     5.9724 F       
  40 F40            1.6318    -4.1301     6.9155 F       
  41 O41            0.1772     2.5704    -4.0246 O.3     
  42 C42            0.5930     1.8970    -5.2144 C.3     
  43 H43           -4.1109     6.8024    -1.8859 H       
  44 H44           -6.2000     6.5644    -0.6100 H       
  45 H45           -6.2613     5.1312     1.3901 H       
  46 H46           -5.0210     3.6036     2.9305 H       
  47 H47           -2.9449     2.4790     3.5369 H       
  48 H48           -0.9106     2.7861     2.1931 H       
  49 H49           -0.6875     4.4107    -2.4135 H       
  50 H50           -0.4236     0.0385    -4.2578 H       
  51 H51           -2.4317    -0.2334    -0.4744 H       
  52 H52           -1.9589     2.1404    -0.0553 H       
  53 H53           -2.5329    -4.4239    -1.3675 H       
  54 H54           -1.8538    -4.1795    -2.9979 H       
  55 H55           -0.5493    -5.8069    -1.5125 H       
  56 H56            0.4091    -4.4595    -2.1796 H       
  57 H57            0.2377    -2.6986     1.2019 H       
  58 H58            0.9168    -2.4542    -0.4285 H       
  59 H59           -1.0578    -1.0719    -0.2859 H       
  60 H60           -2.0186    -2.4158     0.3850 H       
  61 H61            0.3213    -6.6742     3.0965 H       
  62 H62            1.2485    -5.9293     5.2794 H       
  63 H63            1.9826    -2.1000     3.5333 H       
  64 H64            1.2558     1.0722    -4.9524 H       
  65 H65           -0.2814     1.5086    -5.7366 H       
  66 H66            1.1219     2.5964    -5.8618 H       
@<TRIPOS>BOND
   1    1    2 ar
   2    1   10 ar
   3    2    3 ar
   4    2   43 1
   5    3    4 ar
   6    3   44 1
   7    4    5 ar
   8    4   45 1
   9    5    6 ar
  10    5   10 ar
  11    6    7 ar
  12    6   46 1
  13    7    8 ar
  14    7   47 1
  15    8    9 ar
  16    8   48 1
  17    9   10 ar
  18    9   11 1
  19   11   12 2
  20   11   13 2
  21   11   14 am
  22   14   15 1
  23   14   49 1
  24   15   16 ar
  25   15   20 ar
  26   16   17 ar
  27   16   41 1
  28   17   18 ar
  29   17   50 1
  30   18   19 ar
  31   18   21 1
  32   19   20 ar
  33   19   51 1
  34   20   52 1
  35   21   22 2
  36   21   23 am
  37   23   24 1
  38   23   28 1
  39   24   25 1
  40   24   53 1
  41   24   54 1
  42   25   26 1
  43   25   55 1
  44   25   56 1
  45   26   27 1
  46   26   35 am
  47   27   28 1
  48   27   57 1
  49   27   58 1
  50   28   59 1
  51   28   60 1
  52   29   30 ar
  53   29   34 ar
  54   29   35 1
  55   30   31 ar
  56   30   61 1
  57   31   32 ar
  58   31   62 1
  59   32   33 ar
  60   32   37 1
  61   33   34 ar
  62   33   63 1
  63   35   36 2
  64   37   38 1
  65   37   39 1
  66   37   40 1
  67   41   42 1
  68   42   64 1
  69   42   65 1
  70   42   66 1

#	End of record

