#	Name: ASD00844988
#	Creating user name:	WinNT
#	Creation time:	15. 06. 2019 18:51

#	Modifying user name:	WinNT
#	Modification time:	15. 06. 2019 18:51

#	Program:	/corina/corina34_cracker 3.40 0067  02.08.2006

@<TRIPOS>MOLECULE
ASD00844988
  85   90    0    0    0
SMALL
NO_CHARGES


@<TRIPOS>ATOM
   1 F1             5.6894    -2.1742    -1.9742 F       
   2 C2             0.7245     1.2466    -0.4047 C.ar    
   3 C3             0.9727    -0.0925    -0.6680 C.ar    
   4 C4             0.8528    -1.0305     0.3474 C.ar    
   5 C5             0.4869    -0.6290     1.6173 C.ar    
   6 C6             0.2396     0.7065     1.8771 C.ar    
   7 C7             0.3588     1.6432     0.8673 C.ar    
   8 C8             1.1212    -2.4863     0.0647 C.3     
   9 C9             0.7967    -3.3307     1.2785 C.2     
  10 C10            0.3108    -2.9541    -1.1458 C.3     
  11 C11           -1.1500    -2.6646    -0.9147 C.2     
  12 N12           -2.0696    -3.0855    -1.8056 N.am    
  13 O13           -1.4981    -2.0529     0.0730 O.2     
  14 C14           -3.4829    -2.7134    -1.6550 C.3     
  15 C15           -4.3332    -3.9876    -1.6763 C.3     
  16 C16           -4.0242    -4.7811    -2.9479 C.3     
  17 C17           -2.5481    -5.1852    -2.9530 C.3     
  18 C18           -1.6767    -3.9200    -2.9493 C.3     
  19 N19           -4.8619    -5.9871    -2.9879 N.3     
  20 C20           -4.6789    -6.7138    -4.2520 C.3     
  21 C21           -5.5057    -8.0014    -4.2215 C.3     
  22 N22           -6.9209    -7.6668    -4.0098 N.3     
  23 C23           -7.1040    -6.9401    -2.7457 C.3     
  24 C24           -6.2772    -5.6525    -2.7762 C.3     
  25 H25           -7.2877    -7.1382    -4.7871 H       
  26 O26           -0.2880    -3.4417     1.8098 O.2     
  27 N27            1.9360    -3.9346     1.6565 N.am    
  28 C28            2.5975    -2.7184    -0.1611 C.ar    
  29 C29            3.0116    -3.5966     0.8326 C.ar    
  30 C30            3.4868    -2.2420    -1.0982 C.ar    
  31 C31            4.8136    -2.6389    -1.0564 C.ar    
  32 C32            5.2392    -3.5150    -0.0694 C.ar    
  33 C33            4.3465    -3.9928     0.8707 C.ar    
  34 F34            6.5325    -3.9032    -0.0269 F       
  35 C35            1.7297    -6.5884     2.3561 C.ar    
  36 C36            2.7715    -7.3751     1.9006 C.ar    
  37 C37            0.4368    -7.0784     2.3511 C.ar    
  38 C38            0.1829    -8.3559     1.8907 C.ar    
  39 C39            1.2264    -9.1473     1.4331 C.ar    
  40 C40            2.5227    -8.6531     1.4388 C.ar    
  41 O41            0.9792   -10.4045     0.9801 O.3     
  42 H42            3.7805    -6.9901     1.9055 H       
  43 C43            2.1017   -11.1622     0.5242 C.3     
  44 O44            1.3321    -0.4851    -1.9184 O.3     
  45 C45            1.3578     0.5217    -2.9322 C.3     
  46 C46            1.8659    -0.0857    -4.2414 C.3     
  47 F47            3.1200    -0.6684    -4.0293 F       
  48 F48            0.9664    -1.0623    -4.6823 F       
  49 S49            2.0513    -4.9612     2.9507 S.o2    
  50 O50            3.4131    -4.9441     3.3564 O.2     
  51 O51            0.9770    -4.6324     3.8207 O.2     
  52 H52            0.8215     1.9793    -1.1923 H       
  53 H53            0.3935    -1.3588     2.4079 H       
  54 H54           -0.0470     1.0184     2.8705 H       
  55 H55            0.1652     2.6856     1.0727 H       
  56 H56            0.6496    -2.4247    -2.0364 H       
  57 H57            0.4512    -4.0260    -1.2848 H       
  58 H58           -3.6253    -2.1950    -0.7068 H       
  59 H59           -3.7792    -2.0627    -2.4777 H       
  60 H60           -4.0995    -4.5955    -0.8022 H       
  61 H61           -5.3897    -3.7202    -1.6620 H       
  62 H62           -4.2347    -4.1638    -3.8212 H       
  63 H63           -2.3312    -5.7819    -2.0669 H       
  64 H64           -2.3342    -5.7703    -3.8474 H       
  65 H65           -1.8270    -3.3702    -3.8783 H       
  66 H66           -0.6275    -4.1992    -2.8530 H       
  67 H67           -5.0094    -6.0890    -5.0818 H       
  68 H68           -3.6251    -6.9613    -4.3799 H       
  69 H69           -5.3943    -8.5277    -5.1695 H       
  70 H70           -5.1571    -8.6383    -3.4085 H       
  71 H71           -8.1578    -6.6926    -2.6177 H       
  72 H72           -6.7735    -7.5649    -1.9159 H       
  73 H73           -6.3886    -5.1262    -1.8282 H       
  74 H74           -6.6258    -5.0157    -3.5892 H       
  75 H75            3.1503    -1.5601    -1.8651 H       
  76 H76            4.6845    -4.6747     1.6370 H       
  77 H77           -0.3751    -6.4620     2.7077 H       
  78 H78           -0.8271    -8.7383     1.8873 H       
  79 H79            3.3368    -9.2674     1.0834 H       
  80 H80            2.5795   -10.6407    -0.3052 H       
  81 H81            2.8159   -11.2797     1.3392 H       
  82 H82            1.7660   -12.1442     0.1909 H       
  83 H83            0.3517     0.9142    -3.0801 H       
  84 H84            2.0216     1.3299    -2.6249 H       
  85 H85            1.9515     0.6965    -4.9956 H       
@<TRIPOS>BOND
   1    1   31 1
   2    2    3 ar
   3    2    7 ar
   4    2   52 1
   5    3    4 ar
   6    3   44 1
   7    4    5 ar
   8    4    8 1
   9    5    6 ar
  10    5   53 1
  11    6    7 ar
  12    6   54 1
  13    7   55 1
  14    8    9 1
  15    8   10 1
  16    8   28 1
  17    9   26 2
  18    9   27 am
  19   10   11 1
  20   10   56 1
  21   10   57 1
  22   11   12 am
  23   11   13 2
  24   12   14 1
  25   12   18 1
  26   14   15 1
  27   14   58 1
  28   14   59 1
  29   15   16 1
  30   15   60 1
  31   15   61 1
  32   16   17 1
  33   16   19 1
  34   16   62 1
  35   17   18 1
  36   17   63 1
  37   17   64 1
  38   18   65 1
  39   18   66 1
  40   19   20 1
  41   19   24 1
  42   20   21 1
  43   20   67 1
  44   20   68 1
  45   21   22 1
  46   21   69 1
  47   21   70 1
  48   22   23 1
  49   22   25 1
  50   23   24 1
  51   23   71 1
  52   23   72 1
  53   24   73 1
  54   24   74 1
  55   27   49 am
  56   27   29 1
  57   28   29 ar
  58   28   30 ar
  59   29   33 ar
  60   30   31 ar
  61   30   75 1
  62   31   32 ar
  63   32   33 ar
  64   32   34 1
  65   33   76 1
  66   35   36 ar
  67   35   37 ar
  68   35   49 1
  69   36   42 1
  70   36   40 ar
  71   37   38 ar
  72   37   77 1
  73   38   39 ar
  74   38   78 1
  75   39   40 ar
  76   39   41 1
  77   40   79 1
  78   41   43 1
  79   43   80 1
  80   43   81 1
  81   43   82 1
  82   44   45 1
  83   45   46 1
  84   45   83 1
  85   45   84 1
  86   46   47 1
  87   46   48 1
  88   46   85 1
  89   49   50 2
  90   49   51 2

#	End of record

