#	Name: ASD06170038
#	Creating user name:	WinNT
#	Creation time:	15. 06. 2019 21:05

#	Modifying user name:	WinNT
#	Modification time:	15. 06. 2019 21:05

#	Program:	/corina/corina34_cracker 3.40 0067  02.08.2006

@<TRIPOS>MOLECULE
ASD06170038
  59   63    0    0    0
SMALL
NO_CHARGES


@<TRIPOS>ATOM
   1 N1             0.2055    -1.9778     0.1383 N.pl3   
   2 N2            -0.0120    -0.6698    -0.3051 N.am    
   3 C3             1.1798    -0.1156    -0.6097 C.2     
   4 C4             2.1993    -1.1417    -0.3391 C.2     
   5 C5             1.5228    -2.2563     0.1171 C.2     
   6 C6             3.6498    -1.0073    -0.5185 C.2     
   7 O7             4.3846    -1.9408    -0.2553 O.2     
   8 N8             4.1679     0.1502    -0.9750 N.am    
   9 O9             1.3736     1.0110    -1.0266 O.2     
  10 C10            2.1529    -3.5635     0.5235 C.3     
  11 C11           -0.8436    -2.9056     0.5681 C.3     
  12 C12            5.5512     0.3193    -1.0354 C.ar    
  13 C13            6.0779     1.5563    -1.3900 C.ar    
  14 C14            7.4509     1.7131    -1.4464 C.ar    
  15 C15            8.2567     0.6181    -1.1437 C.ar    
  16 C16            7.6614    -0.5844    -0.7982 C.ar    
  17 N17            6.3478    -0.6978    -0.7493 N.ar    
  18 O18            9.6112     0.7279    -1.1871 O.3     
  19 N19           11.4974     2.4485     2.0520 N.ar    
  20 C20           10.1876     2.3734     2.0141 C.ar    
  21 C21            9.5177     1.8006     0.9406 C.ar    
  22 C22           10.2383     1.2921    -0.1259 C.ar    
  23 C23           11.6482     1.3787    -0.0747 C.ar    
  24 C24           12.4456     0.8849    -1.1175 C.ar    
  25 C25           13.8007     0.9827    -1.0385 C.ar    
  26 C26           14.4117     1.5707     0.0727 C.ar    
  27 C27           13.6566     2.0642     1.1125 C.ar    
  28 C28           12.2565     1.9768     1.0559 C.ar    
  29 O29           15.7663     1.6557     0.1274 O.3     
  30 C30           16.4948     1.1256    -0.9817 C.3     
  31 C31           -1.2567    -0.0414    -0.4152 C.ar    
  32 C32           -2.3089    -0.6882    -1.0503 C.ar    
  33 C33           -3.5376    -0.0645    -1.1569 C.ar    
  34 C34           -3.7194     1.2031    -0.6314 C.ar    
  35 C35           -2.6733     1.8486     0.0012 C.ar    
  36 C36           -1.4444     1.2282     0.1154 C.ar    
  37 Cl37          -4.8538    -0.8712    -1.9510 Cl      
  38 H38            3.5789     0.8657    -1.2614 H       
  39 H39            2.2169    -4.2210    -0.3435 H       
  40 H40            3.1536    -3.3786     0.9140 H       
  41 H41            1.5439    -4.0364     1.2939 H       
  42 H42           -1.2560    -3.4161    -0.3022 H       
  43 H43           -0.4206    -3.6401     1.2534 H       
  44 H44           -1.6347    -2.3510     1.0728 H       
  45 H45            5.4231     2.3841    -1.6189 H       
  46 H46            7.8879     2.6623    -1.7192 H       
  47 H47            8.2799    -1.4377    -0.5622 H       
  48 H48            9.6149     2.7669     2.8409 H       
  49 H49            8.4388     1.7529     0.9379 H       
  50 H50           11.9853     0.4279    -1.9810 H       
  51 H51           14.4111     0.6013    -1.8437 H       
  52 H52           14.1384     2.5160     1.9670 H       
  53 H53           17.5633     1.2572    -0.8109 H       
  54 H54           16.2721     0.0639    -1.0887 H       
  55 H55           16.2049     1.6511    -1.8915 H       
  56 H56           -2.1671    -1.6770    -1.4607 H       
  57 H57           -4.6802     1.6890    -0.7160 H       
  58 H58           -2.8182     2.8376     0.4102 H       
  59 H59           -0.6291     1.7317     0.6135 H       
@<TRIPOS>BOND
   1    1    2 1
   2    1    5 1
   3    1   11 1
   4    2    3 am
   5    2   31 1
   6    3    4 1
   7    3    9 2
   8    4    5 2
   9    4    6 1
  10    5   10 1
  11    6    7 2
  12    6    8 am
  13    8   12 1
  14    8   38 1
  15   10   39 1
  16   10   40 1
  17   10   41 1
  18   11   42 1
  19   11   43 1
  20   11   44 1
  21   12   13 ar
  22   12   17 ar
  23   13   14 ar
  24   13   45 1
  25   14   15 ar
  26   14   46 1
  27   15   16 ar
  28   15   18 1
  29   16   17 ar
  30   16   47 1
  31   18   22 1
  32   19   20 ar
  33   19   28 ar
  34   20   21 ar
  35   20   48 1
  36   21   22 ar
  37   21   49 1
  38   22   23 ar
  39   23   24 ar
  40   23   28 ar
  41   24   25 ar
  42   24   50 1
  43   25   26 ar
  44   25   51 1
  45   26   27 ar
  46   26   29 1
  47   27   28 ar
  48   27   52 1
  49   29   30 1
  50   30   53 1
  51   30   54 1
  52   30   55 1
  53   31   32 ar
  54   31   36 ar
  55   32   33 ar
  56   32   56 1
  57   33   34 ar
  58   33   37 1
  59   34   35 ar
  60   34   57 1
  61   35   36 ar
  62   35   58 1
  63   36   59 1

#	End of record

