#	Name: ASD01814693
#	Creating user name:	WinNT
#	Creation time:	15. 06. 2019 19:32

#	Modifying user name:	WinNT
#	Modification time:	15. 06. 2019 19:32

#	Program:	/corina/corina34_cracker 3.40 0067  02.08.2006

@<TRIPOS>MOLECULE
ASD01814693
  48   51    0    0    0
SMALL
NO_CHARGES


@<TRIPOS>ATOM
   1 C1            -0.0444     1.3529    -0.5649 C.2     
   2 N2            -1.3565     1.7097    -0.7420 N.pl3   
   3 N3            -2.1215     0.5392    -0.7127 N.2     
   4 C4            -1.3198    -0.4898    -0.5265 C.2     
   5 C5            -0.0172    -0.0296    -0.4290 C.2     
   6 C6            -1.3145    -1.9917    -0.3811 C.3     
   7 N7             0.0755    -2.4167    -0.1887 N.am    
   8 C8             0.9019    -1.2058    -0.2208 C.3     
   9 C9            -1.6858     3.0249    -0.9044 C.2     
  10 C10           -0.7028     3.9577    -0.8871 C.2     
  11 C11            0.6277     3.5543    -0.7035 C.2     
  12 N12            0.9193     2.2835    -0.5544 N.2     
  13 C13            0.5113    -3.6807    -0.0192 C.2     
  14 C14           -0.4586    -4.7870     0.0903 C.ar    
  15 O15            1.7039    -3.9093     0.0433 O.2     
  16 C16           -0.3190    -5.7494     1.0998 C.ar    
  17 C17           -1.2365    -6.7848     1.1941 C.ar    
  18 C18           -2.2826    -6.8669     0.2964 C.ar    
  19 C19           -2.4245    -5.9177    -0.7033 C.ar    
  20 C20           -1.5243    -4.8781    -0.8079 C.ar    
  21 O21            0.7096    -5.6683     1.9807 O.3     
  22 C22           -1.0368     5.4165    -1.0642 C.3     
  23 C23            1.7279     4.5840    -0.6827 C.3     
  24 C24           -3.1230     3.4335    -1.1006 C.3     
  25 C25            0.7876    -6.6845     2.9823 C.3     
  26 C26            2.0028    -6.4278     3.8758 C.3     
  27 Br27          -3.8626    -6.0444    -1.9246 Br      
  28 H28           -1.9122    -2.2812     0.4832 H       
  29 H29           -1.7199    -2.4515    -1.2823 H       
  30 H30            1.6162    -1.2664    -1.0419 H       
  31 H31            1.4329    -1.0968     0.7249 H       
  32 H32           -1.1325    -7.5283     1.9704 H       
  33 H33           -2.9941    -7.6757     0.3736 H       
  34 H34           -1.6410    -4.1379    -1.5856 H       
  35 H35           -1.2283     5.8663    -0.0900 H       
  36 H36           -0.1993     5.9257    -1.5412 H       
  37 H37           -1.9243     5.5127    -1.6896 H       
  38 H38            1.8825     4.9300     0.3393 H       
  39 H39            2.6491     4.1390    -1.0589 H       
  40 H40            1.4479     5.4276    -1.3136 H       
  41 H41           -3.5806     3.6298    -0.1310 H       
  42 H42           -3.1641     4.3357    -1.7110 H       
  43 H43           -3.6638     2.6308    -1.6018 H       
  44 H44           -0.1186    -6.6681     3.5879 H       
  45 H45            0.8875    -7.6590     2.5042 H       
  46 H46            2.9090    -6.4442     3.2702 H       
  47 H47            1.9029    -5.4533     4.3538 H       
  48 H48            2.0623    -7.2029     4.6398 H       
@<TRIPOS>BOND
   1    1    5 2
   2    1   12 1
   3    1    2 1
   4    2    3 1
   5    2    9 1
   6    3    4 2
   7    4    6 1
   8    4    5 1
   9    5    8 1
  10    6    7 1
  11    6   28 1
  12    6   29 1
  13    7    8 1
  14    7   13 am
  15    8   30 1
  16    8   31 1
  17    9   10 2
  18    9   24 1
  19   10   11 1
  20   10   22 1
  21   11   12 2
  22   11   23 1
  23   13   14 1
  24   13   15 2
  25   14   16 ar
  26   14   20 ar
  27   16   17 ar
  28   16   21 1
  29   17   18 ar
  30   17   32 1
  31   18   19 ar
  32   18   33 1
  33   19   20 ar
  34   19   27 1
  35   20   34 1
  36   21   25 1
  37   22   35 1
  38   22   36 1
  39   22   37 1
  40   23   38 1
  41   23   39 1
  42   23   40 1
  43   24   41 1
  44   24   42 1
  45   24   43 1
  46   25   26 1
  47   25   44 1
  48   25   45 1
  49   26   46 1
  50   26   47 1
  51   26   48 1

#	End of record

