#	Name: ASD01901078
#	Creating user name:	WinNT
#	Creation time:	15. 06. 2019 19:53

#	Modifying user name:	WinNT
#	Modification time:	15. 06. 2019 19:53

#	Program:	/corina/corina34_cracker 3.40 0067  02.08.2006

@<TRIPOS>MOLECULE
ASD01901078
  52   55    0    0    0
SMALL
NO_CHARGES


@<TRIPOS>ATOM
   1 C1            -0.0184     1.5028     0.0103 C.2     
   2 C2             0.0021    -0.0041     0.0020 C.3     
   3 C3             2.4697     1.5816    -0.0130 C.ar    
   4 C4             1.2427     2.2539     0.0023 C.ar    
   5 C5             1.2360     3.6600     0.0094 C.ar    
   6 C6             2.4352     4.3178     0.0011 C.ar    
   7 C7             3.6197     3.5821    -0.0141 C.ar    
   8 N8             3.5998     2.2555    -0.0211 N.ar    
   9 C9             5.9532     3.2941    -0.0383 C.3     
  10 N10            4.8336     4.2453    -0.0226 N.3     
  11 C11            4.9345     5.1725     1.1111 C.3     
  12 C12            6.2244     5.9893     0.9967 C.3     
  13 C13            7.4208     5.0356     0.9796 C.3     
  14 C14            8.7178     5.8275     0.8107 C.3     
  15 C15            9.9031     4.8590     0.8000 C.3     
  16 C16            9.7495     3.8711    -0.3576 C.3     
  17 C17            8.4452     3.0865    -0.1952 C.3     
  18 C18            7.2671     4.0613    -0.1918 C.3     
  19 O19           -1.3386    -0.4987     0.0122 O.3     
  20 C20           -1.4983    -1.8484     0.0064 C.ar    
  21 C21           -2.7733    -2.3978     0.0157 C.ar    
  22 C22           -2.9327    -3.7705     0.0099 C.ar    
  23 C23           -1.8235    -4.5962    -0.0051 C.ar    
  24 C24           -0.5531    -4.0513    -0.0139 C.ar    
  25 C25           -0.3882    -2.6792    -0.0144 C.ar    
  26 Br26          -4.2902    -1.2689     0.0368 Br      
  27 O27           -1.0770     2.0949     0.0185 O.2     
  28 H28            0.5123    -0.3556    -0.8948 H       
  29 H29            0.5293    -0.3651     0.8851 H       
  30 H30            2.4894     0.5018    -0.0141 H       
  31 H31            0.3054     4.2080     0.0209 H       
  32 H32            2.4645     5.3974     0.0059 H       
  33 H33            5.9667     2.7328     0.8960 H       
  34 H34            5.8340     2.6058    -0.8750 H       
  35 H35            4.0773     5.8458     1.1064 H       
  36 H36            4.9451     4.6065     2.0426 H       
  37 H37            6.2077     6.5695     0.0741 H       
  38 H38            6.3068     6.6620     1.8503 H       
  39 H39            7.4545     4.4778     1.9156 H       
  40 H40            8.6886     6.3774    -0.1300 H       
  41 H41            8.8273     6.5276     1.6390 H       
  42 H42           10.8293     5.4205     0.6773 H       
  43 H43            9.9332     4.3120     1.7423 H       
  44 H44            9.7292     4.4174    -1.3006 H       
  45 H45           10.5916     3.1790    -0.3580 H       
  46 H46            8.3360     2.3865    -1.0236 H       
  47 H47            8.4658     2.5372     0.7460 H       
  48 H48            7.2550     4.6187    -1.1284 H       
  49 H49           -3.9241    -4.1987     0.0174 H       
  50 H50           -1.9500    -5.6688    -0.0096 H       
  51 H51            0.3114    -4.6985    -0.0252 H       
  52 H52            0.6046    -2.2543    -0.0264 H       
@<TRIPOS>BOND
   1    1    2 1
   2    1    4 1
   3    1   27 2
   4    2   19 1
   5    2   28 1
   6    2   29 1
   7    3    4 ar
   8    3    8 ar
   9    3   30 1
  10    4    5 ar
  11    5    6 ar
  12    5   31 1
  13    6    7 ar
  14    6   32 1
  15    7    8 ar
  16    7   10 1
  17    9   10 1
  18    9   18 1
  19    9   33 1
  20    9   34 1
  21   10   11 1
  22   11   12 1
  23   11   35 1
  24   11   36 1
  25   12   13 1
  26   12   37 1
  27   12   38 1
  28   13   14 1
  29   13   18 1
  30   13   39 1
  31   14   15 1
  32   14   40 1
  33   14   41 1
  34   15   16 1
  35   15   42 1
  36   15   43 1
  37   16   17 1
  38   16   44 1
  39   16   45 1
  40   17   18 1
  41   17   46 1
  42   17   47 1
  43   18   48 1
  44   19   20 1
  45   20   21 ar
  46   20   25 ar
  47   21   22 ar
  48   21   26 1
  49   22   23 ar
  50   22   49 1
  51   23   24 ar
  52   23   50 1
  53   24   25 ar
  54   24   51 1
  55   25   52 1

#	End of record

