#	Name: ASD07932203
#	Creating user name:	WinNT
#	Creation time:	15. 06. 2019 21:14

#	Modifying user name:	WinNT
#	Modification time:	15. 06. 2019 21:14

#	Program:	/corina/corina34_cracker 3.40 0067  02.08.2006

@<TRIPOS>MOLECULE
ASD07932203
  69   71    0    0    0
SMALL
NO_CHARGES


@<TRIPOS>ATOM
   1 Cl1            0.0000     0.0000     0.0000 Cl      
   2 H2             0.0000     1.3700     0.0000 H       
   3 Cl3            5.0000     6.3700     5.0000 Cl      
   4 H4             5.0000     7.7400     5.0000 H       
   5 N5            17.4363    17.3948    12.3523 N.ar    
   6 C6            17.4542    16.0762    12.3451 C.ar    
   7 C7            18.6598    15.3590    12.3297 C.ar    
   8 C8            19.8486    16.0298    12.3220 C.ar    
   9 C9            19.8194    17.4372    12.3298 C.ar    
  10 C10           21.0036    18.1909    12.3222 C.ar    
  11 C11           20.9365    19.5509    12.3296 C.ar    
  12 C12           19.7069    20.2073    12.3448 C.ar    
  13 C13           18.5388    19.5102    12.3526 C.ar    
  14 C14           18.5655    18.1026    12.3453 C.ar    
  15 C15           16.1703    15.3344    12.3538 C.2     
  16 O16           16.1706    14.1194    12.3473 O.2     
  17 N17           15.0030    16.0079    12.3690 N.am    
  18 C18           21.1577    15.2835    12.3060 C.3     
  19 N19           21.7149    15.2430    13.6646 N.3     
  20 C20           22.8625    14.3279    13.7361 C.3     
  21 C21           23.4618    14.3745    15.1436 C.3     
  22 N22           22.4327    14.0015    16.1240 N.3     
  23 C23           21.2850    14.9167    16.0525 C.3     
  24 C24           20.6857    14.8700    14.6450 C.3     
  25 N25           23.1627    13.7328    19.5969 N.pl3   
  26 N26           24.4113    14.0991    19.0784 N.2     
  27 C27           24.2951    14.2366    17.7822 C.2     
  28 C28           22.9667    13.9628    17.4262 C.2     
  29 C29           22.2870    13.6547    18.5597 C.2     
  30 C30           22.8562    13.4736    21.0059 C.3     
  31 C31           13.7345    15.2750    12.3777 C.3     
  32 C32           12.6330    16.1551    11.7837 C.3     
  33 C33           11.3082    15.3897    11.7927 C.3     
  34 C34           10.9438    15.0180    13.2314 C.3     
  35 C35           12.0454    14.1379    13.8255 C.3     
  36 C36           13.3701    14.9033    13.8164 C.3     
  37 O37           12.9733    16.5023    10.4399 O.3     
  38 H38           18.6474    14.2791    12.3244 H       
  39 H39           21.9628    17.6948    12.3108 H       
  40 H40           21.8487    20.1291    12.3240 H       
  41 H41           19.6811    21.2869    12.3508 H       
  42 H42           17.5946    20.0344    12.3647 H       
  43 H43           15.0027    16.9779    12.3742 H       
  44 H44           20.9917    14.2664    11.9509 H       
  45 H45           21.8570    15.7908    11.6414 H       
  46 H46           22.5326    13.3129    13.5147 H       
  47 H47           23.6161    14.6322    13.0097 H       
  48 H48           24.2953    13.6750    15.2073 H       
  49 H49           23.8165    15.3834    15.3546 H       
  50 H50           20.5314    14.6123    16.7789 H       
  51 H51           21.6149    15.9317    16.2739 H       
  52 H52           19.8522    15.5696    14.5813 H       
  53 H53           20.3310    13.8612    14.4340 H       
  54 H54           25.0871    14.5142    17.1025 H       
  55 H55           21.2409    13.3947    18.6258 H       
  56 H56           22.5432    14.4007    21.4861 H       
  57 H57           22.0529    12.7400    21.0740 H       
  58 H58           23.7444    13.0874    21.5058 H       
  59 H59           13.8352    14.3675    11.7823 H       
  60 H60           12.5323    17.0626    12.3790 H       
  61 H61           10.5234    16.0167    11.3695 H       
  62 H62           11.4088    14.4822    11.1974 H       
  63 H63           10.8431    15.9255    13.8268 H       
  64 H64           10.0000    14.4727    13.2379 H       
  65 H65           11.7857    13.8731    14.8504 H       
  66 H66           12.1460    13.2304    13.2301 H       
  67 H67           14.1549    14.2763    14.2396 H       
  68 H68           13.2695    15.8108    14.4118 H       
  69 H69           12.3180    17.0609    10.0000 H       
@<TRIPOS>BOND
   1    1    2 1
   2    3    4 1
   3    5    6 ar
   4    5   14 ar
   5    6    7 ar
   6    6   15 1
   7    7    8 ar
   8    7   38 1
   9    8    9 ar
  10    8   18 1
  11    9   10 ar
  12    9   14 ar
  13   10   11 ar
  14   10   39 1
  15   11   12 ar
  16   11   40 1
  17   12   13 ar
  18   12   41 1
  19   13   14 ar
  20   13   42 1
  21   15   16 2
  22   15   17 am
  23   17   31 1
  24   17   43 1
  25   18   19 1
  26   18   44 1
  27   18   45 1
  28   19   20 1
  29   19   24 1
  30   20   21 1
  31   20   46 1
  32   20   47 1
  33   21   22 1
  34   21   48 1
  35   21   49 1
  36   22   23 1
  37   22   28 1
  38   23   24 1
  39   23   50 1
  40   23   51 1
  41   24   52 1
  42   24   53 1
  43   25   26 1
  44   25   29 1
  45   25   30 1
  46   26   27 2
  47   27   28 1
  48   27   54 1
  49   28   29 2
  50   29   55 1
  51   30   56 1
  52   30   57 1
  53   30   58 1
  54   31   32 1
  55   31   36 1
  56   31   59 1
  57   32   33 1
  58   32   37 1
  59   32   60 1
  60   33   34 1
  61   33   61 1
  62   33   62 1
  63   34   35 1
  64   34   63 1
  65   34   64 1
  66   35   36 1
  67   35   65 1
  68   35   66 1
  69   36   67 1
  70   36   68 1
  71   37   69 1

#	End of record

