#	Name: ASD02500126
#	Creating user name:	WinNT
#	Creation time:	15. 06. 2019 20:22

#	Modifying user name:	WinNT
#	Modification time:	15. 06. 2019 20:22

#	Program:	/corina/corina34_cracker 3.40 0067  02.08.2006

@<TRIPOS>MOLECULE
ASD02500126
  60   64    0    0    0
SMALL
NO_CHARGES


@<TRIPOS>ATOM
   1 N1            -3.4275     5.4998     0.3203 N.ar    
   2 C2            -4.5601     6.1366     0.1475 C.ar    
   3 C3            -5.6738     5.8816     0.9450 C.ar    
   4 C4            -5.6017     4.9463     1.9376 C.ar    
   5 C5            -4.3839     4.2640     2.1200 C.ar    
   6 C6            -4.2342     3.2899     3.1198 C.ar    
   7 C7            -3.0397     2.6523     3.2647 C.ar    
   8 C8            -1.9630     2.9541     2.4337 C.ar    
   9 C9            -2.0731     3.8928     1.4544 C.ar    
  10 C10           -3.2900     4.5726     1.2736 C.ar    
  11 S11           -0.6951     4.2553     0.4178 S.o2    
  12 O12           -0.5749     5.6709     0.3906 O.2     
  13 O13            0.3563     3.3939     0.8322 O.2     
  14 N14           -1.1020     3.7909    -1.1187 N.am    
  15 C15           -1.3299     2.4488    -1.4021 C.ar    
  16 C16           -2.4325     2.0778    -2.1668 C.ar    
  17 C17           -2.6607     0.7504    -2.4489 C.ar    
  18 C18           -1.7841    -0.2259    -1.9667 C.ar    
  19 C19           -0.6778     0.1499    -1.1990 C.ar    
  20 C20           -0.4519     1.4794    -0.9251 C.ar    
  21 C21           -2.0261    -1.6498    -2.2668 C.2     
  22 O22           -1.0972    -2.3739    -2.5693 O.2     
  23 N23           -3.2768    -2.1482    -2.2058 N.am    
  24 C24           -3.5217    -3.5821    -2.4152 C.3     
  25 C25           -4.2804    -4.1322    -1.2011 C.3     
  26 N26           -5.4238    -3.2516    -0.9235 N.am    
  27 C27           -5.1790    -1.8177    -0.7141 C.3     
  28 C28           -4.4196    -1.2686    -1.9226 C.3     
  29 C29           -6.6745    -3.7500    -0.8625 C.2     
  30 C30           -7.8008    -2.8739    -0.4811 C.ar    
  31 C31           -8.9352    -2.7930    -1.2952 C.ar    
  32 C32           -9.9852    -1.9706    -0.9302 C.ar    
  33 C33           -9.9140    -1.2308     0.2355 C.ar    
  34 C34           -8.7937    -1.3071     1.0448 C.ar    
  35 C35           -7.7408    -2.1268     0.6969 C.ar    
  36 O36           -6.8757    -4.9206    -1.1213 O.2     
  37 F37           -9.0047    -3.5156    -2.4346 F       
  38 H38           -4.6317     6.8790    -0.6336 H       
  39 H39           -6.5932     6.4233     0.7785 H       
  40 H40           -6.4550     4.7362     2.5653 H       
  41 H41           -5.0615     3.0479     3.7706 H       
  42 H42           -2.9254     1.9031     4.0341 H       
  43 H43           -1.0256     2.4349     2.5691 H       
  44 H44           -1.1813     4.4551    -1.8212 H       
  45 H45           -3.1096     2.8325    -2.5388 H       
  46 H46           -3.5164     0.4632    -3.0419 H       
  47 H47            0.0010    -0.6021    -0.8248 H       
  48 H48            0.4052     1.7707    -0.3362 H       
  49 H49           -4.1200    -3.7235    -3.3153 H       
  50 H50           -2.5705    -4.1043    -2.5194 H       
  51 H51           -4.6381    -5.1386    -1.4185 H       
  52 H52           -3.6182    -4.1556    -0.3357 H       
  53 H53           -6.1301    -1.2955    -0.6099 H       
  54 H54           -4.5807    -1.6763     0.1860 H       
  55 H55           -4.0613    -0.2631    -1.7017 H       
  56 H56           -5.0833    -1.2414    -2.7869 H       
  57 H57          -10.8623    -1.9058    -1.5570 H       
  58 H58          -10.7367    -0.5897     0.5160 H       
  59 H59           -8.7458    -0.7260     1.9539 H       
  60 H60           -6.8698    -2.1879     1.3325 H       
@<TRIPOS>BOND
   1    1    2 ar
   2    1   10 ar
   3    2    3 ar
   4    2   38 1
   5    3    4 ar
   6    3   39 1
   7    4    5 ar
   8    4   40 1
   9    5    6 ar
  10    5   10 ar
  11    6    7 ar
  12    6   41 1
  13    7    8 ar
  14    7   42 1
  15    8    9 ar
  16    8   43 1
  17    9   10 ar
  18    9   11 1
  19   11   12 2
  20   11   13 2
  21   11   14 am
  22   14   15 1
  23   14   44 1
  24   15   16 ar
  25   15   20 ar
  26   16   17 ar
  27   16   45 1
  28   17   18 ar
  29   17   46 1
  30   18   19 ar
  31   18   21 1
  32   19   20 ar
  33   19   47 1
  34   20   48 1
  35   21   22 2
  36   21   23 am
  37   23   24 1
  38   23   28 1
  39   24   25 1
  40   24   49 1
  41   24   50 1
  42   25   26 1
  43   25   51 1
  44   25   52 1
  45   26   27 1
  46   26   29 am
  47   27   28 1
  48   27   53 1
  49   27   54 1
  50   28   55 1
  51   28   56 1
  52   29   30 1
  53   29   36 2
  54   30   31 ar
  55   30   35 ar
  56   31   32 ar
  57   31   37 1
  58   32   33 ar
  59   32   57 1
  60   33   34 ar
  61   33   58 1
  62   34   35 ar
  63   34   59 1
  64   35   60 1

#	End of record

