#	Name: ASD00170319
#	Creating user name:	WinNT
#	Creation time:	15. 06. 2019 18:31

#	Modifying user name:	WinNT
#	Modification time:	15. 06. 2019 18:31

#	Program:	/corina/corina34_cracker 3.40 0067  02.08.2006

@<TRIPOS>MOLECULE
ASD00170319
  39   41    0    0    0
SMALL
NO_CHARGES


@<TRIPOS>ATOM
   1 S1             0.1568     1.6237     0.6736 S.3     
   2 N2            -0.1174     0.3143    -0.3764 N.pl3   
   3 C3             1.1099    -0.1389    -0.7265 C.2     
   4 N4             2.1487     0.4592    -0.2376 N.2     
   5 C5             1.9241     1.4945     0.5882 C.2     
   6 N6             2.8177     2.2472     1.1987 N.2     
   7 C7            -1.3533    -0.1899    -0.7917 C.ar    
   8 C8             1.2596    -1.2887    -1.6440 C.ar    
   9 C9            -2.2258     0.6154    -1.5134 C.ar    
  10 C10           -3.4459     0.1163    -1.9235 C.ar    
  11 C11           -3.8012    -1.1889    -1.6147 C.ar    
  12 C12           -2.9308    -1.9939    -0.8940 C.ar    
  13 C13           -1.7078    -1.4986    -0.4880 C.ar    
  14 C14            0.2913    -1.5393    -2.6173 C.ar    
  15 C15            0.4372    -2.6135    -3.4706 C.ar    
  16 C16            1.5402    -3.4418    -3.3626 C.ar    
  17 C17            2.5035    -3.1991    -2.3996 C.ar    
  18 C18            2.3727    -2.1247    -1.5441 C.ar    
  19 C19            4.2469     1.9890     1.0067 C.3     
  20 C20            4.8885     3.1792     0.2908 C.3     
  21 O21           -5.0034    -1.6791    -2.0182 O.3     
  22 C22           -5.3042    -3.0309    -1.6657 C.3     
  23 H23           -1.9496     1.6316    -1.7533 H       
  24 H24           -4.1241     0.7421    -2.4845 H       
  25 H25           -3.2086    -3.0096    -0.6539 H       
  26 H26           -1.0303    -2.1255     0.0727 H       
  27 H27           -0.5705    -0.8939    -2.7021 H       
  28 H28           -0.3114    -2.8086    -4.2242 H       
  29 H29            1.6495    -4.2816    -4.0328 H       
  30 H30            3.3619    -3.8496    -2.3203 H       
  31 H31            3.1253    -1.9363    -0.7928 H       
  32 H32            4.7241     1.8479     1.9765 H       
  33 H33            4.3760     1.0899     0.4041 H       
  34 H34            4.4113     3.3202    -0.6790 H       
  35 H35            4.7595     4.0783     0.8934 H       
  36 H36            5.9519     2.9871     0.1480 H       
  37 H37           -4.5565    -3.6946    -2.1000 H       
  38 H38           -5.2951    -3.1341    -0.5806 H       
  39 H39           -6.2903    -3.2952    -2.0476 H       
@<TRIPOS>BOND
   1    1    2 1
   2    1    5 1
   3    2    3 1
   4    2    7 1
   5    3    4 2
   6    3    8 1
   7    4    5 1
   8    5    6 2
   9    6   19 1
  10    7    9 ar
  11    7   13 ar
  12    8   14 ar
  13    8   18 ar
  14    9   10 ar
  15    9   23 1
  16   10   11 ar
  17   10   24 1
  18   11   12 ar
  19   11   21 1
  20   12   13 ar
  21   12   25 1
  22   13   26 1
  23   14   15 ar
  24   14   27 1
  25   15   16 ar
  26   15   28 1
  27   16   17 ar
  28   16   29 1
  29   17   18 ar
  30   17   30 1
  31   18   31 1
  32   19   20 1
  33   19   32 1
  34   19   33 1
  35   20   34 1
  36   20   35 1
  37   20   36 1
  38   21   22 1
  39   22   37 1
  40   22   38 1
  41   22   39 1

#	End of record

