#	Name: ASD01900956
#	Creating user name:	WinNT
#	Creation time:	15. 06. 2019 19:52

#	Modifying user name:	WinNT
#	Modification time:	15. 06. 2019 19:52

#	Program:	/corina/corina34_cracker 3.40 0067  02.08.2006

@<TRIPOS>MOLECULE
ASD01900956
  64   68    0    0    0
SMALL
NO_CHARGES


@<TRIPOS>ATOM
   1 C1             0.1679     0.8480    -0.4091 C.ar    
   2 C2             0.3444    -0.5197    -0.4406 C.ar    
   3 C3             1.6175    -1.0632    -0.5123 C.ar    
   4 C4             2.7296    -0.2442    -0.5477 C.ar    
   5 C5             2.5702     1.1310    -0.5146 C.ar    
   6 C6             1.2797     1.6858    -0.4515 C.ar    
   7 N7             3.6593     1.9948    -0.5325 N.pl3   
   8 C8             3.4897     3.3352    -1.1043 C.3     
   9 N9             2.2263     3.9220    -0.6556 N.am    
  10 C10            1.1446     3.1526    -0.4213 C.2     
  11 C11            4.6517     4.2273    -0.6574 C.3     
  12 C12            3.4923     3.2379    -2.6326 C.3     
  13 C13            3.3822     4.6437    -3.2275 C.3     
  14 N14            4.5130     5.4609    -2.7691 N.3     
  15 C15            4.5077     5.6051    -1.3079 C.3     
  16 C16            2.1398     5.3067    -0.4655 C.ar    
  17 C17            1.4950     6.0982    -1.4068 C.ar    
  18 C18            1.4102     7.4636    -1.2186 C.ar    
  19 C19            1.9689     8.0446    -0.0896 C.ar    
  20 C20            2.6132     7.2545     0.8512 C.ar    
  21 C21            2.6938     5.8883     0.6673 C.ar    
  22 C22            4.5147     6.7740    -3.4277 C.3     
  23 C23            5.6340     7.6145    -2.8695 C.ar    
  24 O24            0.0666     3.6646    -0.1871 O.2     
  25 O25            1.8853     9.3891     0.0948 O.3     
  26 C26            1.7901    -2.5598    -0.5514 C.3     
  27 C27            6.9171     7.4725    -3.3643 C.ar    
  28 C28            7.9455     8.2420    -2.8536 C.ar    
  29 C29            7.6911     9.1562    -1.8460 C.ar    
  30 C30            6.4043     9.2990    -1.3501 C.ar    
  31 C31            5.3757     8.5306    -1.8673 C.ar    
  32 C32            2.4827     9.9199     1.2795 C.3     
  33 F33            8.6958     9.9084    -1.3460 F       
  34 F34            6.1537    10.1904    -0.3663 F       
  35 C35            1.7800    -3.0365    -2.0052 C.3     
  36 H36           -0.8263     1.2666    -0.3565 H       
  37 H37           -0.5158    -1.1720    -0.4087 H       
  38 H38            3.7188    -0.6745    -0.6006 H       
  39 H39            4.5161     1.7164    -0.1729 H       
  40 H40            4.6333     4.3330     0.4273 H       
  41 H41            5.5956     3.7766    -0.9642 H       
  42 H42            4.4200     2.7730    -2.9662 H       
  43 H43            2.6444     2.6365    -2.9605 H       
  44 H44            3.3978     4.5798    -4.3155 H       
  45 H45            2.4479     5.1027    -2.9042 H       
  46 H46            3.5690     6.0599    -0.9913 H       
  47 H47            5.3397     6.2396    -1.0026 H       
  48 H48            1.0603     5.6461    -2.2860 H       
  49 H49            0.9090     8.0793    -1.9508 H       
  50 H50            3.0480     7.7075     1.7300 H       
  51 H51            3.1916     5.2728     1.4020 H       
  52 H52            4.6591     6.6425    -4.5001 H       
  53 H53            3.5619     7.2719    -3.2478 H       
  54 H54            2.7391    -2.8283    -0.0875 H       
  55 H55            0.9729    -3.0340    -0.0078 H       
  56 H56            7.1162     6.7593    -4.1505 H       
  57 H57            8.9475     8.1296    -3.2406 H       
  58 H58            4.3721     8.6437    -1.4846 H       
  59 H59            2.3448    11.0009     1.3030 H       
  60 H60            2.0108     9.4743     2.1553 H       
  61 H61            3.5480     9.6893     1.2839 H       
  62 H62            2.5972    -2.5622    -2.5487 H       
  63 H63            1.9048    -4.1189    -2.0335 H       
  64 H64            0.8309    -2.7679    -2.4691 H       
@<TRIPOS>BOND
   1    1    2 ar
   2    1    6 ar
   3    1   36 1
   4    2    3 ar
   5    2   37 1
   6    3    4 ar
   7    3   26 1
   8    4    5 ar
   9    4   38 1
  10    5    7 1
  11    5    6 ar
  12    6   10 1
  13    7    8 1
  14    7   39 1
  15    8    9 1
  16    8   12 1
  17    8   11 1
  18    9   10 am
  19    9   16 1
  20   10   24 2
  21   11   15 1
  22   11   40 1
  23   11   41 1
  24   12   13 1
  25   12   42 1
  26   12   43 1
  27   13   14 1
  28   13   44 1
  29   13   45 1
  30   14   15 1
  31   14   22 1
  32   15   46 1
  33   15   47 1
  34   16   17 ar
  35   16   21 ar
  36   17   18 ar
  37   17   48 1
  38   18   19 ar
  39   18   49 1
  40   19   20 ar
  41   19   25 1
  42   20   21 ar
  43   20   50 1
  44   21   51 1
  45   22   23 1
  46   22   52 1
  47   22   53 1
  48   23   27 ar
  49   23   31 ar
  50   25   32 1
  51   26   35 1
  52   26   54 1
  53   26   55 1
  54   27   28 ar
  55   27   56 1
  56   28   29 ar
  57   28   57 1
  58   29   30 ar
  59   29   33 1
  60   30   31 ar
  61   30   34 1
  62   31   58 1
  63   32   59 1
  64   32   60 1
  65   32   61 1
  66   35   62 1
  67   35   63 1
  68   35   64 1

#	End of record

