#	Name: ASD01870203
#	Creating user name:	WinNT
#	Creation time:	15. 06. 2019 19:38

#	Modifying user name:	WinNT
#	Modification time:	15. 06. 2019 19:38

#	Program:	/corina/corina34_cracker 3.40 0067  02.08.2006

@<TRIPOS>MOLECULE
ASD01870203
  59   64    0    0    0
SMALL
NO_CHARGES


@<TRIPOS>ATOM
   1 C1            -0.7360     2.5121     1.9120 C.3     
   2 C2             5.7221     7.6287     3.5458 C.ar    
   3 C3             5.6443     6.2385     3.4960 C.ar    
   4 C4             5.2398     5.5988     2.3639 C.ar    
   5 C5             4.8949     6.3468     1.2268 C.ar    
   6 C6             4.9739     7.7630     1.2769 C.ar    
   7 C7             5.3960     8.3875     2.4640 C.ar    
   8 C8             4.4724     5.7175     0.0415 C.ar    
   9 C9             4.1429     6.4594    -1.0454 C.ar    
  10 C10            4.2165     7.8658    -1.0116 C.ar    
  11 C11            4.6298     8.5090     0.1443 C.ar    
  12 C12            3.9220     8.8907    -2.0324 C.2     
  13 N13            4.1416    10.1204    -1.5363 N.am    
  14 C14            4.5980     9.9880    -0.1480 C.3     
  15 C15            3.9565    11.3807    -2.2599 C.3     
  16 C16            3.5271    12.4736    -1.2790 C.3     
  17 C17            4.6073    12.6529    -0.2103 C.3     
  18 C18            5.9236    13.0556    -0.8783 C.3     
  19 C19            6.3530    11.9627    -1.8592 C.3     
  20 C20            5.2728    11.7834    -2.9278 C.3     
  21 C21            4.3860     4.2143    -0.0210 C.3     
  22 C22            3.0544     3.7646     0.5227 C.ar    
  23 C23            1.9657     3.6283    -0.3173 C.ar    
  24 N24            0.7973     3.2348     0.1512 N.ar    
  25 C25            0.6199     2.9574     1.4280 C.ar    
  26 C26            1.6631     3.0709     2.3277 C.ar    
  27 C27            2.9076     3.4768     1.8713 C.ar    
  28 O28            3.5362     8.6560    -3.1610 O.2     
  29 O29            2.2977    12.0975    -0.6551 O.3     
  30 C30           -0.9894     1.0068     2.0166 C.3     
  31 C31           -0.8108     1.8425     3.2857 C.3     
  32 H32           -1.5726     3.1438     1.6134 H       
  33 H33            6.0420     8.1114     4.4575 H       
  34 H34            5.9088     5.6594     4.3684 H       
  35 H35            5.1853     4.5204     2.3405 H       
  36 H36            5.4607     9.4642     2.5172 H       
  37 H37            3.8199     5.9648    -1.9496 H       
  38 H38            3.9015    10.4882     0.5249 H       
  39 H39            5.5958    10.4132    -0.0393 H       
  40 H40            3.1870    11.2530    -3.0212 H       
  41 H41            3.3894    13.4113    -1.8173 H       
  42 H42            4.3014    13.4315     0.4885 H       
  43 H43            4.7450    11.7152     0.3280 H       
  44 H44            5.7859    13.9933    -1.4166 H       
  45 H45            6.6932    13.1833    -0.1170 H       
  46 H46            7.2908    12.2496    -2.3350 H       
  47 H47            6.4907    11.0250    -1.3208 H       
  48 H48            5.5787    11.0049    -3.6266 H       
  49 H49            5.1351    12.7212    -3.4661 H       
  50 H50            4.4849     3.8874    -1.0561 H       
  51 H51            5.1877     3.7791     0.5756 H       
  52 H52            2.0728     3.8465    -1.3695 H       
  53 H53            1.5115     2.8427     3.3724 H       
  54 H54            3.7410     3.5743     2.5513 H       
  55 H55            1.9651    12.7455    -0.0191 H       
  56 H56           -1.9928     0.6483     1.7871 H       
  57 H57           -0.1754     0.3387     1.7353 H       
  58 H58            0.1206     1.7242     3.8393 H       
  59 H59           -1.6968     2.0338     3.8912 H       
@<TRIPOS>BOND
   1    1   30 1
   2    1   25 1
   3    1   31 1
   4    1   32 1
   5    2    3 ar
   6    2    7 ar
   7    2   33 1
   8    3    4 ar
   9    3   34 1
  10    4    5 ar
  11    4   35 1
  12    5    6 ar
  13    5    8 ar
  14    6    7 ar
  15    6   11 ar
  16    7   36 1
  17    8    9 ar
  18    8   21 1
  19    9   10 ar
  20    9   37 1
  21   10   11 ar
  22   10   12 1
  23   11   14 1
  24   12   13 am
  25   12   28 2
  26   13   14 1
  27   13   15 1
  28   14   38 1
  29   14   39 1
  30   15   16 1
  31   15   20 1
  32   15   40 1
  33   16   17 1
  34   16   29 1
  35   16   41 1
  36   17   18 1
  37   17   42 1
  38   17   43 1
  39   18   19 1
  40   18   44 1
  41   18   45 1
  42   19   20 1
  43   19   46 1
  44   19   47 1
  45   20   48 1
  46   20   49 1
  47   21   22 1
  48   21   50 1
  49   21   51 1
  50   22   23 ar
  51   22   27 ar
  52   23   24 ar
  53   23   52 1
  54   24   25 ar
  55   25   26 ar
  56   26   27 ar
  57   26   53 1
  58   27   54 1
  59   29   55 1
  60   30   31 1
  61   30   56 1
  62   30   57 1
  63   31   58 1
  64   31   59 1

#	End of record

