#	Name: ASD00960274
#	Creating user name:	WinNT
#	Creation time:	15. 06. 2019 18:53

#	Modifying user name:	WinNT
#	Modification time:	15. 06. 2019 18:53

#	Program:	/corina/corina34_cracker 3.40 0067  02.08.2006

@<TRIPOS>MOLECULE
ASD00960274
  35   37    0    0    0
SMALL
NO_CHARGES


@<TRIPOS>ATOM
   1 C1            -0.0169     1.3975     0.0097 C.2     
   2 C2             0.0021    -0.0041     0.0020 C.2     
   3 N3             1.2740     1.8211    -0.0003 N.pl3   
   4 C4             2.1000     0.7292    -0.0005 C.2     
   5 C5             1.3620    -0.3904    -0.0068 C.2     
   6 N6             1.7900     3.1266     0.0044 N.2     
   7 C7             3.0580     3.2909    -0.2332 C.2     
   8 N8             3.8870     2.2325    -0.5260 N.pl3   
   9 C9             3.6041     0.8920     0.0172 C.3     
  10 N10            4.1057     0.7907     1.3942 N.3     
  11 C11           -1.1346    -0.8750     0.0036 C.1     
  12 N12           -2.0364    -1.5659     0.0049 N.1     
  13 C13           -1.2086     2.2484     0.0203 C.2     
  14 O14           -2.3155     1.7446     0.0235 O.2     
  15 O15           -1.0786     3.5912     0.0264 O.3     
  16 C16           -2.2834     4.3595     0.0366 C.3     
  17 C17           -1.9429     5.8276     0.0423 C.ar    
  18 C18           -1.7930     6.5069    -1.1522 C.ar    
  19 C19           -1.4806     7.8535    -1.1470 C.ar    
  20 C20           -1.3186     8.5208     0.0527 C.ar    
  21 C21           -1.4694     7.8417     1.2472 C.ar    
  22 C22           -1.7860     6.4961     1.2420 C.ar    
  23 H23            1.7380    -1.4028    -0.0163 H       
  24 H24            3.4725     4.2877    -0.2000 H       
  25 H25            4.6619     2.3694    -1.0931 H       
  26 H26            4.0694     0.1299    -0.6080 H       
  27 H27            5.1023     0.9444     1.4282 H       
  28 H28            3.6199     1.4313     2.0040 H       
  29 H29           -2.8706     4.1262    -0.8515 H       
  30 H30           -2.8614     4.1172     0.9284 H       
  31 H31           -1.9196     5.9856    -2.0895 H       
  32 H32           -1.3628     8.3842    -2.0803 H       
  33 H33           -1.0739     9.5727     0.0568 H       
  34 H34           -1.3425     8.3629     2.1846 H       
  35 H35           -1.9075     5.9663     2.1753 H       
@<TRIPOS>BOND
   1    1    2 2
   2    1    3 1
   3    1   13 1
   4    2   11 1
   5    2    5 1
   6    3    4 1
   7    3    6 1
   8    4    5 2
   9    4    9 1
  10    5   23 1
  11    6    7 2
  12    7    8 1
  13    7   24 1
  14    8    9 1
  15    8   25 1
  16    9   10 1
  17    9   26 1
  18   10   27 1
  19   10   28 1
  20   11   12 3
  21   13   14 2
  22   13   15 1
  23   15   16 1
  24   16   17 1
  25   16   29 1
  26   16   30 1
  27   17   18 ar
  28   17   22 ar
  29   18   19 ar
  30   18   31 1
  31   19   20 ar
  32   19   32 1
  33   20   21 ar
  34   20   33 1
  35   21   22 ar
  36   21   34 1
  37   22   35 1

#	End of record

