#	Name: ASD03910107
#	Creating user name:	WinNT
#	Creation time:	15. 06. 2019 20:47

#	Modifying user name:	WinNT
#	Modification time:	15. 06. 2019 20:47

#	Program:	/corina/corina34_cracker 3.40 0067  02.08.2006

@<TRIPOS>MOLECULE
ASD03910107
  50   52    0    0    0
SMALL
NO_CHARGES


@<TRIPOS>ATOM
   1 C1            -0.0173     1.4248     0.0099 C.3     
   2 O2             0.0021    -0.0041     0.0020 O.3     
   3 C3            -1.1961    -0.6353     0.0101 C.ar    
   4 C4            -1.2501    -2.0393     0.0030 C.ar    
   5 C5            -2.4842    -2.6837     0.0114 C.ar    
   6 C6            -3.6590    -1.9294     0.0266 C.ar    
   7 C7            -3.5918    -0.5288     0.0335 C.ar    
   8 C8            -2.3715     0.1061     0.0310 C.ar    
   9 C9            -4.9647    -2.6028     0.0350 C.2     
  10 O10           -5.9850    -1.9472     0.0483 O.2     
  11 C11           -0.0040    -2.8275    -0.0136 C.2     
  12 O12            1.0719    -2.2630    -0.0212 O.2     
  13 O13           -0.0585    -4.1738    -0.0203 O.3     
  14 O14            3.8337     4.2556     2.9033 O.3     
  15 C15            4.4132     4.6482     4.0627 C.ar    
  16 C16            4.2199     5.9568     4.5363 C.ar    
  17 C17            4.8177     6.3558     5.7287 C.ar    
  18 C18            5.6049     5.4520     6.4448 C.ar    
  19 C19            5.7902     4.1487     5.9616 C.ar    
  20 C20            5.1941     3.7547     4.7862 C.ar    
  21 C21            6.2391     5.8664     7.7036 C.2     
  22 O22            6.9229     5.0810     8.3254 O.2     
  23 C23            3.3873     6.9045     3.7729 C.2     
  24 O24            2.8669     6.5542     2.7323 O.2     
  25 O25            3.2035     8.1589     4.2292 O.3     
  26 C26            4.0726     2.9114     2.4812 C.3     
  27 C27            3.3533     2.6576     1.1815 C.ar    
  28 C28            3.9902     2.9034    -0.0204 C.ar    
  29 C29            3.3303     2.6706    -1.2126 C.ar    
  30 C30            2.0335     2.1921    -1.2028 C.ar    
  31 C31            1.3965     1.9464    -0.0008 C.ar    
  32 C32            2.0584     2.1738     1.1913 C.ar    
  33 H33           -0.5445     1.7859    -0.8732 H       
  34 H34           -0.5275     1.7763     0.9067 H       
  35 H35           -2.5325    -3.7626     0.0057 H       
  36 H36           -4.5013     0.0535     0.0453 H       
  37 H37           -2.3266     1.1851     0.0412 H       
  38 H38           -5.0160    -3.6815     0.0293 H       
  39 H39            0.7846    -4.6473    -0.0312 H       
  40 H40            4.6733     7.3604     6.0980 H       
  41 H41            6.3993     3.4506     6.5165 H       
  42 H42            5.3368     2.7480     4.4219 H       
  43 H43            6.0965     6.8703     8.0752 H       
  44 H44            2.6496     8.7439     3.6943 H       
  45 H45            5.1427     2.7597     2.3398 H       
  46 H46            3.7051     2.2214     3.2407 H       
  47 H47            5.0033     3.2775    -0.0281 H       
  48 H48            3.8278     2.8632    -2.1517 H       
  49 H49            1.5177     2.0109    -2.1342 H       
  50 H50            1.5623     1.9777     2.1303 H       
@<TRIPOS>BOND
   1    1    2 1
   2    1   31 1
   3    1   33 1
   4    1   34 1
   5    2    3 1
   6    3    4 ar
   7    3    8 ar
   8    4    5 ar
   9    4   11 1
  10    5    6 ar
  11    5   35 1
  12    6    7 ar
  13    6    9 1
  14    7    8 ar
  15    7   36 1
  16    8   37 1
  17    9   10 2
  18    9   38 1
  19   11   12 2
  20   11   13 1
  21   13   39 1
  22   14   15 1
  23   14   26 1
  24   15   16 ar
  25   15   20 ar
  26   16   17 ar
  27   16   23 1
  28   17   18 ar
  29   17   40 1
  30   18   19 ar
  31   18   21 1
  32   19   20 ar
  33   19   41 1
  34   20   42 1
  35   21   22 2
  36   21   43 1
  37   23   24 2
  38   23   25 1
  39   25   44 1
  40   26   27 1
  41   26   45 1
  42   26   46 1
  43   27   28 ar
  44   27   32 ar
  45   28   29 ar
  46   28   47 1
  47   29   30 ar
  48   29   48 1
  49   30   31 ar
  50   30   49 1
  51   31   32 ar
  52   32   50 1

#	End of record

