#	Name: ASD05380075
#	Creating user name:	WinNT
#	Creation time:	15. 06. 2019 20:59

#	Modifying user name:	WinNT
#	Modification time:	15. 06. 2019 20:59

#	Program:	/corina/corina34_cracker 3.40 0067  02.08.2006

@<TRIPOS>MOLECULE
ASD05380075
  55   59    0    0    0
SMALL
NO_CHARGES


@<TRIPOS>ATOM
   1 C1            -0.1741     1.5678    -0.4536 C.ar    
   2 C2             0.0293     0.2522     0.0200 C.ar    
   3 C3             0.8975     2.3017    -0.9574 C.ar    
   4 C4             2.1531     1.7349    -0.9896 C.ar    
   5 C5             2.3565     0.4422    -0.5256 C.ar    
   6 C6             1.3109    -0.2997    -0.0228 C.ar    
   7 N7            -1.0289    -0.4432     0.5066 N.2     
   8 C8            -2.2206     0.0707     0.5470 C.2     
   9 N9            -2.5079     1.3279     0.1133 N.am    
  10 C10           -1.5341     2.1225    -0.3888 C.2     
  11 C11           -3.8220     1.8059     0.1921 C.ar    
  12 C12           -4.7012     1.6016    -0.8632 C.ar    
  13 C13           -4.2502     2.4802     1.3280 C.ar    
  14 C14           -5.5468     2.9499     1.4028 C.ar    
  15 C15           -6.4185     2.7490     0.3483 C.ar    
  16 C16           -5.9965     2.0738    -0.7823 C.ar    
  17 C17           -3.3427    -0.7682     1.1022 C.3     
  18 N18           -3.1385    -2.1688     0.7241 N.pl3   
  19 C19           -4.2198    -3.0289     0.6450 C.ar    
  20 N20           -5.4501    -2.6006     0.9086 N.ar    
  21 O21           -1.7767     3.2492    -0.7804 O.2     
  22 C22           -4.0433    -4.3737     0.2784 C.ar    
  23 C23           -5.1791    -5.1988     0.2153 C.ar    
  24 N24           -6.3694    -4.6821     0.5022 N.ar    
  25 C25           -6.4876    -3.4141     0.8357 C.ar    
  26 N26           -2.9758    -5.1378    -0.0562 N.2     
  27 C27           -3.3743    -6.3495    -0.3143 C.2     
  28 N28           -4.7260    -6.4379    -0.1608 N.pl3   
  29 C29            0.6851     3.7050    -1.4640 C.3     
  30 C30           -3.3619    -0.6493     2.6274 C.3     
  31 C31           -4.5747    -1.3992     3.1822 C.3     
  32 C32           -4.5939    -1.2803     4.7075 C.3     
  33 H33            2.9862     2.3009    -1.3796 H       
  34 H34            3.3471     0.0133    -0.5589 H       
  35 H35            1.4814    -1.3039     0.3360 H       
  36 H36           -4.3722     1.0742    -1.7465 H       
  37 H37           -3.5701     2.6368     2.1522 H       
  38 H38           -5.8804     3.4744     2.2860 H       
  39 H39           -7.4321     3.1167     0.4095 H       
  40 H40           -6.6795     1.9188    -1.6044 H       
  41 H41           -4.2925    -0.4177     0.6984 H       
  42 H42           -2.2454    -2.4933     0.5293 H       
  43 H43           -7.4701    -3.0247     1.0586 H       
  44 H44           -2.7293    -7.1649    -0.6069 H       
  45 H45           -5.2679    -7.2316    -0.2925 H       
  46 H46            0.7106     4.4016    -0.6259 H       
  47 H47            1.4741     3.9592    -2.1718 H       
  48 H48           -0.2831     3.7694    -1.9606 H       
  49 H49           -2.4490    -1.0814     3.0371 H       
  50 H50           -3.4247     0.4018     2.9092 H       
  51 H51           -5.4877    -0.9672     2.7725 H       
  52 H52           -4.5119    -2.4503     2.9005 H       
  53 H53           -3.6809    -1.7124     5.1171 H       
  54 H54           -4.6567    -0.2292     4.9892 H       
  55 H55           -5.4579    -1.8146     5.1027 H       
@<TRIPOS>BOND
   1    1    2 ar
   2    1    3 ar
   3    1   10 1
   4    2    7 1
   5    2    6 ar
   6    3    4 ar
   7    3   29 1
   8    4    5 ar
   9    4   33 1
  10    5    6 ar
  11    5   34 1
  12    6   35 1
  13    7    8 2
  14    8    9 1
  15    8   17 1
  16    9   10 am
  17    9   11 1
  18   10   21 2
  19   11   12 ar
  20   11   13 ar
  21   12   16 ar
  22   12   36 1
  23   13   14 ar
  24   13   37 1
  25   14   15 ar
  26   14   38 1
  27   15   16 ar
  28   15   39 1
  29   16   40 1
  30   17   18 1
  31   17   30 1
  32   17   41 1
  33   18   19 1
  34   18   42 1
  35   19   20 ar
  36   19   22 ar
  37   20   25 ar
  38   22   23 ar
  39   22   26 1
  40   23   24 ar
  41   23   28 1
  42   24   25 ar
  43   25   43 1
  44   26   27 2
  45   27   28 1
  46   27   44 1
  47   28   45 1
  48   29   46 1
  49   29   47 1
  50   29   48 1
  51   30   31 1
  52   30   49 1
  53   30   50 1
  54   31   32 1
  55   31   51 1
  56   31   52 1
  57   32   53 1
  58   32   54 1
  59   32   55 1

#	End of record

