#	Name: ASD04910411
#	Creating user name:	WinNT
#	Creation time:	15. 06. 2019 20:55

#	Modifying user name:	WinNT
#	Modification time:	15. 06. 2019 20:55

#	Program:	/corina/corina34_cracker 3.40 0067  02.08.2006

@<TRIPOS>MOLECULE
ASD04910411
  49   51    0    0    0
SMALL
NO_CHARGES


@<TRIPOS>ATOM
   1 C1            -0.0180     1.4730     0.0101 C.2     
   2 C2             0.0021    -0.0041     0.0020 C.ar    
   3 C3             1.2188    -0.6888    -0.0133 C.ar    
   4 C4             1.2303    -2.0682    -0.0203 C.ar    
   5 C5             0.0396    -2.7731    -0.0127 C.ar    
   6 C6            -1.1697    -2.1009     0.0020 C.ar    
   7 C7            -1.1956    -0.7217     0.0154 C.ar    
   8 O8             1.0256     2.0946     0.0035 O.2     
   9 O9            -1.1936     2.1307     0.0193 O.3     
  10 C10            0.0601    -4.2800    -0.0210 C.3     
  11 C11           -0.1699    -4.8009     1.3991 C.3     
  12 C12           -0.0255    -6.3241     1.4132 C.3     
  13 C13           -0.2555    -6.8450     2.8333 C.3     
  14 N14           -0.9997    -4.7779    -0.9014 N.pl3   
  15 C15           -0.8839    -6.0407    -1.4897 C.ar    
  16 C16           -1.8887    -6.5130    -2.3246 C.ar    
  17 C17           -1.7737    -7.7598    -2.9057 C.ar    
  18 C18           -0.6539    -8.5418    -2.6559 C.ar    
  19 C19            0.3504    -8.0702    -1.8212 C.ar    
  20 C20            0.2388    -6.8212    -1.2442 C.ar    
  21 N21           -0.5374    -9.8090    -3.2468 N.pl3   
  22 N22           -1.4691   -10.4074    -4.1050 N.2     
  23 C23           -1.0112   -11.5843    -4.4495 C.2     
  24 C24            0.2252   -11.7737    -3.8230 C.2     
  25 C25            0.4966   -10.6664    -3.0935 C.2     
  26 C26            1.1026   -12.9929    -3.9436 C.3     
  27 F27            0.4915   -13.9255    -4.7886 F       
  28 F28            2.3429   -12.6242    -4.4755 F       
  29 F29            1.2879   -13.5610    -2.6786 F       
  30 H30            2.1488    -0.1398    -0.0199 H       
  31 H31            2.1707    -2.5992    -0.0321 H       
  32 H32           -2.0953    -2.6572     0.0071 H       
  33 H33           -2.1401    -0.1983     0.0318 H       
  34 H34           -1.1561     3.0969     0.0244 H       
  35 H35            1.0272    -4.6283    -0.3836 H       
  36 H36            0.5660    -4.3600     2.0715 H       
  37 H37           -1.1725    -4.5280     1.7284 H       
  38 H38           -0.7614    -6.7650     0.7408 H       
  39 H39            0.9771    -6.5970     1.0840 H       
  40 H40            0.4804    -6.4041     3.5057 H       
  41 H41           -1.2581    -6.5720     3.1625 H       
  42 H42           -0.1526    -7.9301     2.8433 H       
  43 H43           -1.7818    -4.2314    -1.0761 H       
  44 H44           -2.7599    -5.9050    -2.5187 H       
  45 H45           -2.5550    -8.1272    -3.5545 H       
  46 H46            1.2209    -8.6790    -1.6265 H       
  47 H47            1.0222    -6.4525    -0.5988 H       
  48 H48           -1.5034   -12.2882    -5.1042 H       
  49 H49            1.3796   -10.4987    -2.4947 H       
@<TRIPOS>BOND
   1    1    2 1
   2    1    8 2
   3    1    9 1
   4    2    3 ar
   5    2    7 ar
   6    3    4 ar
   7    3   30 1
   8    4    5 ar
   9    4   31 1
  10    5    6 ar
  11    5   10 1
  12    6    7 ar
  13    6   32 1
  14    7   33 1
  15    9   34 1
  16   10   11 1
  17   10   14 1
  18   10   35 1
  19   11   12 1
  20   11   36 1
  21   11   37 1
  22   12   13 1
  23   12   38 1
  24   12   39 1
  25   13   40 1
  26   13   41 1
  27   13   42 1
  28   14   15 1
  29   14   43 1
  30   15   16 ar
  31   15   20 ar
  32   16   17 ar
  33   16   44 1
  34   17   18 ar
  35   17   45 1
  36   18   19 ar
  37   18   21 1
  38   19   20 ar
  39   19   46 1
  40   20   47 1
  41   21   22 1
  42   21   25 1
  43   22   23 2
  44   23   24 1
  45   23   48 1
  46   24   25 2
  47   24   26 1
  48   25   49 1
  49   26   27 1
  50   26   28 1
  51   26   29 1

#	End of record

