#	Name: ASD01812529
#	Creating user name:	WinNT
#	Creation time:	15. 06. 2019 19:28

#	Modifying user name:	WinNT
#	Modification time:	15. 06. 2019 19:28

#	Program:	/corina/corina34_cracker 3.40 0067  02.08.2006

@<TRIPOS>MOLECULE
ASD01812529
  55   60    0    0    0
SMALL
NO_CHARGES


@<TRIPOS>ATOM
   1 C1            -0.0177     1.4559     0.0100 C.ar    
   2 C2             0.0021    -0.0041     0.0020 C.ar    
   3 C3            -1.2308    -0.7010     0.0105 C.ar    
   4 C4            -2.4445     0.0179     0.0269 C.ar    
   5 C5            -2.4564     1.3721     0.0348 C.ar    
   6 C6            -1.2629     2.1111     0.0315 C.ar    
   7 C7            -1.2223    -2.1043     0.0029 C.ar    
   8 C8            -0.0349    -2.7735    -0.0125 C.ar    
   9 C9             1.1743    -2.0857    -0.0203 C.ar    
  10 C10            1.2024    -0.7215    -0.0133 C.ar    
  11 N11            1.1113     2.1837     0.0032 N.2     
  12 C12            1.0868     3.4848     0.0109 C.2     
  13 N13           -0.0648     4.2045     0.0262 N.am    
  14 C14           -1.2648     3.5791     0.0393 C.2     
  15 C15           -3.7504    -0.7341     0.0354 C.3     
  16 C16           -4.1099    -1.1006     1.4522 C.ar    
  17 C17           -3.6793    -2.2977     1.9943 C.ar    
  18 C18           -4.8712    -0.2376     2.2272 C.ar    
  19 C19           -5.1792    -0.6115     3.5241 C.ar    
  20 C20           -4.7167    -1.8348     4.0037 C.ar    
  21 N21           -3.9869    -2.6295     3.2315 N.ar    
  22 O22           -2.3064     4.2099     0.0573 O.2     
  23 C23           -5.0382    -2.2500     5.3911 C.ar    
  24 C24           -0.0099     5.6050     0.0342 C.ar    
  25 C25            0.0289     6.2959     1.2438 C.ar    
  26 C26            0.0835     7.6802     1.2453 C.ar    
  27 C27            0.0989     8.3730     0.0489 C.ar    
  28 C28            0.0604     7.6882    -1.1515 C.ar    
  29 C29            0.0116     6.3070    -1.1620 C.ar    
  30 O30            0.0128     5.6132     2.4192 O.3     
  31 C31           -4.5828    -3.4739     5.8898 C.ar    
  32 C32           -4.9093    -3.8150     7.1909 C.ar    
  33 C33           -5.6687    -2.9421     7.9489 C.ar    
  34 N34           -6.0842    -1.7937     7.4508 N.ar    
  35 C35           -5.7940    -1.4239     6.2201 C.ar    
  36 H36           -3.4021     1.8934     0.0473 H       
  37 H37           -2.1530    -2.6520     0.0096 H       
  38 H38           -0.0328    -3.8535    -0.0183 H       
  39 H39            2.1022    -2.6382    -0.0318 H       
  40 H40            2.1472    -0.1983    -0.0202 H       
  41 H41            2.0264     4.0173     0.0051 H       
  42 H42           -4.5343    -0.1056    -0.3874 H       
  43 H43           -3.6512    -1.6413    -0.5606 H       
  44 H44           -3.0831    -2.9699     1.3951 H       
  45 H45           -5.2155     0.7049     1.8278 H       
  46 H46           -5.7696     0.0363     4.1552 H       
  47 H47            0.1137     8.2183     2.1812 H       
  48 H48            0.1408     9.4522     0.0521 H       
  49 H49            0.0726     8.2338    -2.0835 H       
  50 H50           -0.0139     5.7745    -2.1012 H       
  51 H51            0.8908     5.3806     2.7510 H       
  52 H52           -3.9915    -4.1367     5.2754 H       
  53 H53           -4.5751    -4.7528     7.6096 H       
  54 H54           -5.9256    -3.2051     8.9643 H       
  55 H55           -6.1488    -0.4737     5.8491 H       
@<TRIPOS>BOND
   1    1    2 ar
   2    1   11 1
   3    1    6 ar
   4    2   10 ar
   5    2    3 ar
   6    3    4 ar
   7    3    7 ar
   8    4    5 ar
   9    4   15 1
  10    5    6 ar
  11    5   36 1
  12    6   14 1
  13    7    8 ar
  14    7   37 1
  15    8    9 ar
  16    8   38 1
  17    9   10 ar
  18    9   39 1
  19   10   40 1
  20   11   12 2
  21   12   13 1
  22   12   41 1
  23   13   14 am
  24   13   24 1
  25   14   22 2
  26   15   16 1
  27   15   42 1
  28   15   43 1
  29   16   18 ar
  30   16   17 ar
  31   17   21 ar
  32   17   44 1
  33   18   19 ar
  34   18   45 1
  35   19   20 ar
  36   19   46 1
  37   20   21 ar
  38   20   23 1
  39   23   31 ar
  40   23   35 ar
  41   24   25 ar
  42   24   29 ar
  43   25   26 ar
  44   25   30 1
  45   26   27 ar
  46   26   47 1
  47   27   28 ar
  48   27   48 1
  49   28   29 ar
  50   28   49 1
  51   29   50 1
  52   30   51 1
  53   31   32 ar
  54   31   52 1
  55   32   33 ar
  56   32   53 1
  57   33   34 ar
  58   33   54 1
  59   34   35 ar
  60   35   55 1

#	End of record

