#	Name: ASD01810266
#	Creating user name:	WinNT
#	Creation time:	15. 06. 2019 19:24

#	Modifying user name:	WinNT
#	Modification time:	15. 06. 2019 19:24

#	Program:	/corina/corina34_cracker 3.40 0067  02.08.2006

@<TRIPOS>MOLECULE
ASD01810266
  48   51    0    0    0
SMALL
NO_CHARGES


@<TRIPOS>ATOM
   1 C1             0.1046     1.4770     0.3892 C.ar    
   2 C2             0.0854     0.0907     0.3809 C.ar    
   3 C3             1.2537    -0.6302     0.2398 C.ar    
   4 C4             2.4707     0.0350     0.1031 C.ar    
   5 C5             2.4886     1.4402     0.1112 C.ar    
   6 C6             1.2983     2.1574     0.2553 C.ar    
   7 N7             3.6448    -0.6745    -0.0381 N.pl3   
   8 C8             4.8383    -0.0825    -0.1717 C.2     
   9 C9             4.9816     1.2904    -0.1784 C.2     
  10 C10            3.7820     2.1314    -0.0342 C.2     
  11 O11            3.8555     3.3478    -0.0339 O.2     
  12 C12            3.5837    -2.1382    -0.0416 C.3     
  13 C13            3.4399    -2.6316    -1.4583 C.ar    
  14 C14            4.5614    -2.7752    -2.2551 C.ar    
  15 C15            4.4356    -3.2262    -3.5533 C.ar    
  16 C16            3.1757    -3.5375    -4.0610 C.ar    
  17 C17            2.0493    -3.3914    -3.2536 C.ar    
  18 C18            2.1875    -2.9445    -1.9551 C.ar    
  19 C19            3.0340    -4.0224    -5.4560 C.ar    
  20 C20            6.3095     1.9022    -0.3269 C.2     
  21 O21            6.4365     3.2443    -0.3319 O.3     
  22 O22            7.2934     1.1981    -0.4453 O.2     
  23 C23            1.7734    -4.3334    -5.9624 C.ar    
  24 C24            1.6447    -4.7834    -7.2597 C.ar    
  25 C25            2.7695    -4.9271    -8.0608 C.ar    
  26 C26            4.0266    -4.6180    -7.5590 C.ar    
  27 C27            4.1608    -4.1621    -6.2644 C.ar    
  28 F28            1.3152     3.5083     0.2627 F       
  29 F29            1.2177    -1.9807     0.2346 F       
  30 O30            2.6398    -5.3715    -9.3382 O.3     
  31 C31            3.8382    -5.4959   -10.1066 C.3     
  32 H32           -0.8187     2.0269     0.4964 H       
  33 H33           -0.8544    -0.4309     0.4864 H       
  34 H34            5.7183    -0.6997    -0.2775 H       
  35 H35            4.4988    -2.5411     0.3924 H       
  36 H36            2.7270    -2.4675     0.5465 H       
  37 H37            5.5374    -2.5336    -1.8606 H       
  38 H38            5.3118    -3.3373    -4.1748 H       
  39 H39            1.0705    -3.6310    -3.6421 H       
  40 H40            1.3152    -2.8313    -1.3284 H       
  41 H41            7.3299     3.6003    -0.4323 H       
  42 H42            0.8981    -4.2225    -5.3395 H       
  43 H43            0.6681    -5.0246    -7.6527 H       
  44 H44            4.8998    -4.7311    -8.1844 H       
  45 H45            5.1389    -3.9215    -5.8747 H       
  46 H46            3.5937    -5.8592   -11.1048 H       
  47 H47            4.3236    -4.5229   -10.1828 H       
  48 H48            4.5114    -6.2005    -9.6183 H       
@<TRIPOS>BOND
   1    1    2 ar
   2    1    6 ar
   3    1   32 1
   4    2    3 ar
   5    2   33 1
   6    3    4 ar
   7    3   29 1
   8    4    5 ar
   9    4    7 1
  10    5    6 ar
  11    5   10 1
  12    6   28 1
  13    7    8 1
  14    7   12 1
  15    8    9 2
  16    8   34 1
  17    9   10 1
  18    9   20 1
  19   10   11 2
  20   12   13 1
  21   12   35 1
  22   12   36 1
  23   13   14 ar
  24   13   18 ar
  25   14   15 ar
  26   14   37 1
  27   15   16 ar
  28   15   38 1
  29   16   17 ar
  30   16   19 1
  31   17   18 ar
  32   17   39 1
  33   18   40 1
  34   19   23 ar
  35   19   27 ar
  36   20   21 1
  37   20   22 2
  38   21   41 1
  39   23   24 ar
  40   23   42 1
  41   24   25 ar
  42   24   43 1
  43   25   26 ar
  44   25   30 1
  45   26   27 ar
  46   26   44 1
  47   27   45 1
  48   30   31 1
  49   31   46 1
  50   31   47 1
  51   31   48 1

#	End of record

