#	Name: ASD01812988
#	Creating user name:	WinNT
#	Creation time:	15. 06. 2019 19:29

#	Modifying user name:	WinNT
#	Modification time:	15. 06. 2019 19:29

#	Program:	/corina/corina34_cracker 3.40 0067  02.08.2006

@<TRIPOS>MOLECULE
ASD01812988
  55   59    0    0    0
SMALL
NO_CHARGES


@<TRIPOS>ATOM
   1 N1             0.0027     1.3184    -0.2224 N.ar    
   2 C2             0.0319     0.0058    -0.3460 C.ar    
   3 C3             1.2340    -0.6843    -0.3682 C.ar    
   4 C4             2.4113     0.0205    -0.2593 C.ar    
   5 C5             2.3614     1.4132    -0.1292 C.ar    
   6 C6             1.1073     2.0395    -0.1145 C.ar    
   7 C7             3.8682    -0.3581    -0.2428 C.3     
   8 N8             4.6151     0.8975    -0.0972 N.am    
   9 C9             3.7395     1.9163    -0.0322 C.2     
  10 C10            6.0736     1.0204    -0.0337 C.3     
  11 C11            6.6239     1.1966    -1.4255 C.ar    
  12 O12            1.0259     3.3855     0.0100 O.3     
  13 O13            4.0442     3.0870     0.0899 O.2     
  14 C14            6.7706     2.4670    -1.9528 C.ar    
  15 C15            7.2741     2.6342    -3.2269 C.ar    
  16 C16            7.6350     1.5203    -3.9824 C.ar    
  17 C17            7.4851     0.2429    -3.4462 C.ar    
  18 C18            6.9859     0.0877    -2.1689 C.ar    
  19 C19           -0.2021     3.9617    -0.0802 C.ar    
  20 C20            8.1763     1.6938    -5.3528 C.ar    
  21 C21           -1.0087     4.0614     1.0465 C.ar    
  22 C22           -2.2577     4.6483     0.9509 C.ar    
  23 C23           -2.7025     5.1344    -0.2646 C.ar    
  24 C24           -1.9011     5.0354    -1.3870 C.ar    
  25 C25           -0.6499     4.4562    -1.2961 C.ar    
  26 F26           -0.5740     3.5855     2.2339 F       
  27 C27            8.3331     2.9675    -5.9070 C.ar    
  28 C28            8.8401     3.0837    -7.1847 C.ar    
  29 N29            9.1747     2.0137    -7.8805 N.ar    
  30 C30            9.0426     0.7945    -7.3947 C.ar    
  31 C31            8.5488     0.5885    -6.1226 C.ar    
  32 C32            9.4422    -0.3890    -8.2378 C.3     
  33 C33           -2.3904     5.5657    -2.7100 C.3     
  34 F34           -3.6710     6.1061    -2.5509 F       
  35 F35           -1.5179     6.5599    -3.1654 F       
  36 F36           -2.4367     4.5232    -3.6419 F       
  37 H37           -0.8959    -0.5406    -0.4310 H       
  38 H38            1.2466    -1.7595    -0.4692 H       
  39 H39            4.0747    -1.0171     0.6004 H       
  40 H40            4.1385    -0.8488    -1.1778 H       
  41 H41            6.3392     1.8853     0.5742 H       
  42 H42            6.4951     0.1196     0.4123 H       
  43 H43            6.4902     3.3296    -1.3665 H       
  44 H44            7.3878     3.6265    -3.6377 H       
  45 H45            7.7632    -0.6239    -4.0274 H       
  46 H46            6.8734    -0.9017    -1.7506 H       
  47 H47           -2.8858     4.7265     1.8260 H       
  48 H48           -3.6781     5.5919    -0.3376 H       
  49 H49           -0.0231     4.3839    -2.1726 H       
  50 H50            8.0609     3.8476    -5.3433 H       
  51 H51            8.9645     4.0636    -7.6215 H       
  52 H52            8.4480    -0.4123    -5.7293 H       
  53 H53           10.4911    -0.6252    -8.0585 H       
  54 H54            8.8260    -1.2483    -7.9731 H       
  55 H55            9.2986    -0.1496    -9.2914 H       
@<TRIPOS>BOND
   1    1    2 ar
   2    1    6 ar
   3    2    3 ar
   4    2   37 1
   5    3    4 ar
   6    3   38 1
   7    4    7 1
   8    4    5 ar
   9    5    6 ar
  10    5    9 1
  11    6   12 1
  12    7    8 1
  13    7   39 1
  14    7   40 1
  15    8    9 am
  16    8   10 1
  17    9   13 2
  18   10   11 1
  19   10   41 1
  20   10   42 1
  21   11   14 ar
  22   11   18 ar
  23   12   19 1
  24   14   15 ar
  25   14   43 1
  26   15   16 ar
  27   15   44 1
  28   16   17 ar
  29   16   20 1
  30   17   18 ar
  31   17   45 1
  32   18   46 1
  33   19   21 ar
  34   19   25 ar
  35   20   27 ar
  36   20   31 ar
  37   21   26 1
  38   21   22 ar
  39   22   23 ar
  40   22   47 1
  41   23   24 ar
  42   23   48 1
  43   24   25 ar
  44   24   33 1
  45   25   49 1
  46   27   28 ar
  47   27   50 1
  48   28   29 ar
  49   28   51 1
  50   29   30 ar
  51   30   31 ar
  52   30   32 1
  53   31   52 1
  54   32   53 1
  55   32   54 1
  56   32   55 1
  57   33   34 1
  58   33   35 1
  59   33   36 1

#	End of record

