#	Name: ASD03091307
#	Creating user name:	WinNT
#	Creation time:	15. 06. 2019 20:30

#	Modifying user name:	WinNT
#	Modification time:	15. 06. 2019 20:30

#	Program:	/corina/corina34_cracker 3.40 0067  02.08.2006

@<TRIPOS>MOLECULE
ASD03091307
  64   68    0    0    0
SMALL
NO_CHARGES


@<TRIPOS>ATOM
   1 N1             0.4908     1.1012     0.1183 N.2     
   2 C2             0.2470    -0.1789     0.0049 C.2     
   3 N3             1.2220    -1.1050    -0.2520 N.am    
   4 C4             2.5105    -0.7190    -0.4023 C.2     
   5 C5             2.8078     0.7158    -0.2793 C.ar    
   6 C6             4.1022     1.2116    -0.4181 C.ar    
   7 C7             4.3250     2.5724    -0.2929 C.ar    
   8 C8             3.2650     3.4404    -0.0299 C.ar    
   9 C9             1.9913     2.9692     0.1090 C.ar    
  10 C10            1.7371     1.5995    -0.0128 C.ar    
  11 O11            3.3901    -1.5290    -0.6303 O.2     
  12 C12            0.8686    -2.5223    -0.3645 C.3     
  13 C13            0.6503    -2.8782    -1.8364 C.3     
  14 C14            0.2174    -4.3415    -1.9485 C.3     
  15 C15           -0.4390    -1.9778    -2.4227 C.3     
  16 C16            1.9540    -2.6714    -2.6099 C.3     
  17 O17            0.0135    -4.6739    -3.3232 O.3     
  18 C18           -1.1451    -0.6472     0.1617 C.ar    
  19 C19           -1.4659    -1.5761     1.1563 C.ar    
  20 C20           -2.7724    -2.0089     1.2965 C.ar    
  21 C21           -3.7582    -1.5239     0.4550 C.ar    
  22 C22           -3.4451    -0.6045    -0.5307 C.ar    
  23 C23           -2.1478    -0.1600    -0.6787 C.ar    
  24 F24           -0.5032    -2.0497     1.9774 F       
  25 Cl25          -3.1758    -3.1625     2.5295 Cl      
  26 N26            8.2790     3.4529    -1.6800 N.3     
  27 C27            8.0272     2.4910    -0.5960 C.3     
  28 C28            6.5895     1.9974    -0.6391 C.3     
  29 N29            5.6201     3.0796    -0.4305 N.3     
  30 C30            5.6898     4.0558    -1.5269 C.3     
  31 C31            6.6178     5.2034    -1.1577 C.3     
  32 C32            8.0848     4.8249    -1.1895 C.3     
  33 C33            7.5977     3.2002    -2.9315 C.3     
  34 C34            6.0897     3.3413    -2.8048 C.3     
  35 H35            4.9240     0.5409    -0.6210 H       
  36 H36            3.4547     4.4993     0.0653 H       
  37 H37            1.1810     3.6535     0.3129 H       
  38 H38            1.6766    -3.1315     0.0406 H       
  39 H39           -0.0468    -2.7140     0.1953 H       
  40 H40            0.9934    -4.9829    -1.5308 H       
  41 H41           -0.7114    -4.4888    -1.3974 H       
  42 H42           -0.1225    -0.9367    -2.3599 H       
  43 H43           -0.6077    -2.2440    -3.4662 H       
  44 H44           -1.3627    -2.1114    -1.8598 H       
  45 H45            2.7300    -3.3129    -2.1922 H       
  46 H46            1.7985    -2.9250    -3.6586 H       
  47 H47            2.2624    -1.6290    -2.5301 H       
  48 H48           -0.2631    -5.5888    -3.4698 H       
  49 H49           -4.7767    -1.8649     0.5679 H       
  50 H50           -4.2199    -0.2306    -1.1836 H       
  51 H51           -1.9073     0.5607    -1.4463 H       
  52 H52            8.7019     1.6419    -0.7055 H       
  53 H53            8.2123     2.9745     0.3632 H       
  54 H54            6.4027     1.5384    -1.6099 H       
  55 H55            6.4512     1.2450     0.1375 H       
  56 H56            4.6905     4.4639    -1.6788 H       
  57 H57            6.4534     6.0242    -1.8558 H       
  58 H58            6.3671     5.5465    -0.1539 H       
  59 H59            8.4947     4.9043    -0.1827 H       
  60 H60            8.6163     5.5155    -1.8442 H       
  61 H61            7.9574     3.9074    -3.6789 H       
  62 H62            7.8314     2.1885    -3.2632 H       
  63 H63            5.6392     2.3488    -2.8117 H       
  64 H64            5.7137     3.9052    -3.6585 H       
@<TRIPOS>BOND
   1    1    2 2
   2    1   10 1
   3    2    3 1
   4    2   18 1
   5    3    4 am
   6    3   12 1
   7    4    5 1
   8    4   11 2
   9    5    6 ar
  10    5   10 ar
  11    6    7 ar
  12    6   35 1
  13    7    8 ar
  14    7   29 1
  15    8    9 ar
  16    8   36 1
  17    9   10 ar
  18    9   37 1
  19   12   13 1
  20   12   38 1
  21   12   39 1
  22   13   14 1
  23   13   15 1
  24   13   16 1
  25   14   17 1
  26   14   40 1
  27   14   41 1
  28   15   42 1
  29   15   43 1
  30   15   44 1
  31   16   45 1
  32   16   46 1
  33   16   47 1
  34   17   48 1
  35   18   19 ar
  36   18   23 ar
  37   19   20 ar
  38   19   24 1
  39   20   21 ar
  40   20   25 1
  41   21   22 ar
  42   21   49 1
  43   22   23 ar
  44   22   50 1
  45   23   51 1
  46   26   27 1
  47   26   32 1
  48   26   33 1
  49   27   28 1
  50   27   52 1
  51   27   53 1
  52   28   29 1
  53   28   54 1
  54   28   55 1
  55   29   30 1
  56   30   31 1
  57   30   34 1
  58   30   56 1
  59   31   32 1
  60   31   57 1
  61   31   58 1
  62   32   59 1
  63   32   60 1
  64   33   34 1
  65   33   61 1
  66   33   62 1
  67   34   63 1
  68   34   64 1

#	End of record

