#	Name: ASD01001128
#	Creating user name:	WinNT
#	Creation time:	15. 06. 2019 18:55

#	Modifying user name:	WinNT
#	Modification time:	15. 06. 2019 18:55

#	Program:	/corina/corina34_cracker 3.40 0067  02.08.2006

@<TRIPOS>MOLECULE
ASD01001128
  49   51    0    0    0
SMALL
NO_CHARGES


@<TRIPOS>ATOM
   1 C1            -0.2989     1.7894    -0.1407 C.2     
   2 S2            -0.1367     0.0817    -0.5268 S.3     
   3 C3             1.5597     0.2214    -0.6443 C.2     
   4 C4             1.9543     1.4776    -0.4051 C.2     
   5 C5             0.9416     2.3635    -0.1239 C.2     
   6 C6            -1.5617     2.4867     0.1156 C.2     
   7 O7            -1.5586     3.6760     0.3744 O.2     
   8 N8            -2.7269     1.8112     0.0648 N.am    
   9 C9            -5.8032     4.0435     0.8061 C.2     
  10 C10           -6.2383     2.8002     0.5711 C.2     
  11 C11           -5.1538     1.8802     0.2805 C.2     
  12 C12           -3.9208     2.4704     0.3071 C.2     
  13 S13           -4.0538     4.1263     0.6794 S.3     
  14 C14           -7.7056     2.4037     0.6068 C.3     
  15 C15           -8.5604     3.6698     0.5150 C.3     
  16 C16           -8.0759     4.6804     1.5590 C.3     
  17 C17           -6.7060     5.2181     1.1309 C.3     
  18 C18           -5.3601     0.4588    -0.0125 C.2     
  19 O19           -5.4275    -0.3466     0.8976 O.2     
  20 N20           -5.4753     0.0438    -1.2896 N.am    
  21 C21           -5.4995     1.0233    -2.3787 C.3     
  22 C22           -4.0881     1.1913    -2.9450 C.3     
  23 C23           -7.0480    -1.8051    -1.5891 C.3     
  24 C24           -5.5762    -1.3868    -1.5886 C.3     
  25 C25           -8.0182     1.4868    -0.5775 C.3     
  26 H26            2.2262    -0.5951    -0.8796 H       
  27 H27            2.9926     1.7737    -0.4308 H       
  28 H28            1.1092     3.4089     0.0892 H       
  29 H29           -2.7294     0.8634    -0.1415 H       
  30 H30           -7.9211     1.8842     1.5406 H       
  31 H31           -8.4658     4.1016    -0.4813 H       
  32 H32           -9.6037     3.4196     0.7070 H       
  33 H33           -8.7857     5.5049     1.6252 H       
  34 H34           -7.9924     4.1907     2.5292 H       
  35 H35           -6.2746     5.7955     1.9486 H       
  36 H36           -6.8129     5.8514     0.2502 H       
  37 H37           -6.1678     0.6747    -3.1661 H       
  38 H38           -5.8546     1.9810    -1.9982 H       
  39 H39           -3.4448     1.6426    -2.1897 H       
  40 H40           -3.6905     0.2157    -3.2250 H       
  41 H41           -4.1235     1.8350    -3.8239 H       
  42 H42           -7.4823    -1.6072    -0.6091 H       
  43 H43           -7.5870    -1.2365    -2.3469 H       
  44 H44           -7.1231    -2.8695    -1.8116 H       
  45 H45           -5.1420    -1.5846    -2.5686 H       
  46 H46           -5.0372    -1.9553    -0.8308 H       
  47 H47           -7.3993     0.5916    -0.5171 H       
  48 H48           -9.0704     1.2037    -0.5501 H       
  49 H49           -7.8074     2.0121    -1.5091 H       
@<TRIPOS>BOND
   1    1    2 1
   2    1    5 2
   3    1    6 1
   4    2    3 1
   5    3    4 2
   6    3   26 1
   7    4    5 1
   8    4   27 1
   9    5   28 1
  10    6    7 2
  11    6    8 am
  12    8   12 1
  13    8   29 1
  14    9   10 2
  15    9   13 1
  16    9   17 1
  17   10   11 1
  18   10   14 1
  19   11   12 2
  20   11   18 1
  21   12   13 1
  22   14   15 1
  23   14   25 1
  24   14   30 1
  25   15   16 1
  26   15   31 1
  27   15   32 1
  28   16   17 1
  29   16   33 1
  30   16   34 1
  31   17   35 1
  32   17   36 1
  33   18   19 2
  34   18   20 am
  35   20   21 1
  36   20   24 1
  37   21   22 1
  38   21   37 1
  39   21   38 1
  40   22   39 1
  41   22   40 1
  42   22   41 1
  43   23   24 1
  44   23   42 1
  45   23   43 1
  46   23   44 1
  47   24   45 1
  48   24   46 1
  49   25   47 1
  50   25   48 1
  51   25   49 1

#	End of record

