#	Name: ASD05300023
#	Creating user name:	WinNT
#	Creation time:	15. 06. 2019 20:58

#	Modifying user name:	WinNT
#	Modification time:	15. 06. 2019 20:58

#	Program:	/corina/corina34_cracker 3.40 0067  02.08.2006

@<TRIPOS>MOLECULE
ASD05300023
  34   36    0    0    0
SMALL
NO_CHARGES


@<TRIPOS>ATOM
   1 C1            -0.0173     1.4248     0.0099 C.3     
   2 O2             0.0021    -0.0041     0.0020 O.3     
   3 C3            -1.2029    -0.6389     0.0101 C.2     
   4 C4            -2.3171     0.0613     0.0245 C.2     
   5 C5            -3.6185    -0.6259     0.0201 C.2     
   6 C6            -3.6741    -1.9445     0.0010 C.2     
   7 C7            -2.4271    -2.7249     0.0115 C.2     
   8 C8            -1.2621    -2.1100    -0.0033 C.2     
   9 N9            -2.4649    -4.0759     0.0681 N.am    
  10 C10           -1.9346    -4.8104    -0.9297 C.2     
  11 O11           -1.4220    -4.2603    -1.8813 O.2     
  12 N12           -1.9740    -6.1563    -0.8701 N.am    
  13 C13           -3.0369    -4.6861     1.1307 C.2     
  14 C14           -2.3016    -5.4612     1.9026 C.2     
  15 C15           -2.8966    -6.1037     3.0862 C.2     
  16 C16           -4.1639    -5.8988     3.3757 C.2     
  17 C17           -4.9872    -5.0411     2.5082 C.2     
  18 C18           -4.4599    -4.4789     1.4370 C.2     
  19 C19           -5.3164    -3.6911     0.5461 C.2     
  20 C20           -4.9793    -2.6057    -0.0669 C.2     
  21 H21            1.0053     1.8021     0.0021 H       
  22 H22           -0.5445     1.7859    -0.8732 H       
  23 H23           -0.5275     1.7763     0.9067 H       
  24 H24           -2.2765     1.1404     0.0400 H       
  25 H25           -4.5315    -0.0491     0.0328 H       
  26 H26           -0.3486    -2.6861    -0.0154 H       
  27 H27           -2.3840    -6.5963    -0.1091 H       
  28 H28           -1.5923    -6.6849    -1.5883 H       
  29 H29           -1.2607    -5.6256     1.6662 H       
  30 H30           -2.2942    -6.7423     3.7153 H       
  31 H31           -4.5997    -6.3603     4.2495 H       
  32 H32           -6.0263    -4.8716     2.7488 H       
  33 H33           -6.3221    -4.0514     0.3878 H       
  34 H34           -5.7308    -2.1414    -0.6882 H       
@<TRIPOS>BOND
   1    1    2 1
   2    1   21 1
   3    1   22 1
   4    1   23 1
   5    2    3 1
   6    3    4 2
   7    3    8 1
   8    4    5 1
   9    4   24 1
  10    5    6 2
  11    5   25 1
  12    6    7 1
  13    6   20 1
  14    7    8 2
  15    7    9 1
  16    8   26 1
  17    9   10 am
  18    9   13 1
  19   10   11 2
  20   10   12 am
  21   12   27 1
  22   12   28 1
  23   13   14 2
  24   13   18 1
  25   14   15 1
  26   14   29 1
  27   15   16 2
  28   15   30 1
  29   16   17 1
  30   16   31 1
  31   17   18 2
  32   17   32 1
  33   18   19 1
  34   19   20 2
  35   19   33 1
  36   20   34 1

#	End of record

