#	Name: ASD01410560
#	Creating user name:	WinNT
#	Creation time:	15. 06. 2019 19:18

#	Modifying user name:	WinNT
#	Modification time:	15. 06. 2019 19:18

#	Program:	/corina/corina34_cracker 3.40 0067  02.08.2006

@<TRIPOS>MOLECULE
ASD01410560
  84   88    0    0    0
SMALL
NO_CHARGES


@<TRIPOS>ATOM
   1 C1             4.7484     8.0428    -3.7127 C.ar    
   2 C2             5.6828     7.3788    -4.4953 C.ar    
   3 C3             6.2224     6.1912    -4.0417 C.ar    
   4 N4             5.8605     5.6847    -2.8786 N.ar    
   5 C5             4.9732     6.2880    -2.1046 C.ar    
   6 C6             4.3896     7.4856    -2.4975 C.ar    
   7 O7             4.6297     5.7313    -0.9161 O.3     
   8 C8             5.1426     4.5090    -0.6115 C.ar    
   9 C9             6.4284     4.4069    -0.0865 C.ar    
  10 C10            6.9583     3.1688     0.2263 C.ar    
  11 C11            6.2109     2.0191     0.0180 C.ar    
  12 C12            4.9142     2.1163    -0.5110 C.ar    
  13 C13            4.3844     3.3731    -0.8186 C.ar    
  14 F14            7.1616     5.5231     0.1179 F       
  15 N15            6.7459     0.7708     0.3325 N.am    
  16 C16            6.4870     0.2091     1.5300 C.2     
  17 C17            7.5895     0.0696    -0.6385 C.3     
  18 O18            6.8803    -0.9125     1.7714 O.2     
  19 C19            5.7088     0.9746     2.5690 C.3     
  20 C20            6.1036     7.9474    -5.8260 C.3     
  21 C21            6.1448     0.5266     3.9654 C.3     
  22 C22            5.3548     1.3038     5.0202 C.3     
  23 C23            3.8599     1.0316     4.8409 C.3     
  24 C24            3.4239     1.4796     3.4445 C.3     
  25 C25            4.2139     0.7024     2.3896 C.3     
  26 C26            3.0699     1.8088     5.8957 C.3     
  27 C27            7.5662     0.8213    -1.9709 C.3     
  28 O28            6.2600     0.7346    -2.5439 O.3     
  29 O29            9.0714    -0.8249     1.0480 O.3     
  30 C30            9.0254     0.0055    -0.1141 C.3     
  31 C31            6.1295     1.4076    -3.7978 C.3     
  32 C32           10.3748    -0.9524     1.6198 C.3     
  33 C33            6.1794     9.4738    -5.8971 C.3     
  34 N34            7.2157     9.9546    -4.9799 N.pl3   
  35 C35            7.1214     7.1506    -6.6446 C.3     
  36 C36            5.6565     7.2028    -7.0856 C.3     
  37 N37            7.2905     9.6917    -3.7221 N.2     
  38 N38            8.3199    10.2677    -3.2089 N.2     
  39 C39            8.9603    10.9451    -4.1683 C.2     
  40 C40            8.2619    10.7464    -5.3106 C.2     
  41 C41            4.1137     0.9009    -0.7354 C.2     
  42 O42            4.5437    -0.1822    -0.3906 O.2     
  43 O43            2.9041     0.9896    -1.3231 O.3     
  44 C44            3.3797     8.1695    -1.6124 C.3     
  45 F45            2.9439     9.3485    -2.2267 F       
  46 F46            2.2877     7.3193    -1.4075 F       
  47 F47            3.9699     8.4756    -0.3815 F       
  48 H48            4.3146     8.9753    -4.0424 H       
  49 H49            6.9495     5.6704    -4.6470 H       
  50 H50            7.9562     3.0967     0.6332 H       
  51 H51            3.3875     3.4549    -1.2258 H       
  52 H52            7.2107    -0.9419    -0.7853 H       
  53 H53            5.9003     2.0414     2.4534 H       
  54 H54            5.9534    -0.5402     4.0810 H       
  55 H55            7.2098     0.7205     4.0932 H       
  56 H56            5.6654     0.9846     6.0151 H       
  57 H57            5.5463     2.3706     4.9046 H       
  58 H58            3.6684    -0.0352     4.9565 H       
  59 H59            2.3589     1.2857     3.3167 H       
  60 H60            3.6153     2.5464     3.3289 H       
  61 H61            3.9033     1.0216     1.3948 H       
  62 H62            4.0224    -0.3644     2.5052 H       
  63 H63            3.2613     2.8756     5.7801 H       
  64 H64            2.0049     1.6148     5.7680 H       
  65 H65            3.3805     1.4896     6.8906 H       
  66 H66            7.8203     1.8677    -1.8022 H       
  67 H67            8.2919     0.3764    -2.6518 H       
  68 H68            9.6751    -0.4107    -0.8840 H       
  69 H69            9.3635     1.0093     0.1430 H       
  70 H70            6.3538     2.4662    -3.6670 H       
  71 H71            6.8254     0.9749    -4.5165 H       
  72 H72            5.1099     1.2950    -4.1662 H       
  73 H73           10.7409     0.0315     1.9129 H       
  74 H74           10.3252    -1.5977     2.4969 H       
  75 H75           11.0525    -1.3885     0.8859 H       
  76 H76            6.4249     9.7784    -6.9144 H       
  77 H77            5.2169     9.8991    -5.6128 H       
  78 H78            7.8447     7.7139    -7.2342 H       
  79 H79            7.4866     6.2152    -6.2207 H       
  80 H80            5.0579     6.3017    -6.9518 H       
  81 H81            5.4167     7.8005    -7.9650 H       
  82 H82            9.8598    11.5319    -4.0546 H       
  83 H83            8.4905    11.1445    -6.2882 H       
  84 H84            2.4157     0.1646    -1.4492 H       
@<TRIPOS>BOND
   1    1    2 ar
   2    1    6 ar
   3    1   48 1
   4    2    3 ar
   5    2   20 1
   6    3    4 ar
   7    3   49 1
   8    4    5 ar
   9    5    6 ar
  10    5    7 1
  11    6   44 1
  12    7    8 1
  13    8    9 ar
  14    8   13 ar
  15    9   10 ar
  16    9   14 1
  17   10   11 ar
  18   10   50 1
  19   11   12 ar
  20   11   15 1
  21   12   13 ar
  22   12   41 1
  23   13   51 1
  24   15   16 am
  25   15   17 1
  26   16   18 2
  27   16   19 1
  28   17   27 1
  29   17   30 1
  30   17   52 1
  31   19   21 1
  32   19   25 1
  33   19   53 1
  34   20   33 1
  35   20   35 1
  36   20   36 1
  37   21   22 1
  38   21   54 1
  39   21   55 1
  40   22   23 1
  41   22   56 1
  42   22   57 1
  43   23   24 1
  44   23   26 1
  45   23   58 1
  46   24   25 1
  47   24   59 1
  48   24   60 1
  49   25   61 1
  50   25   62 1
  51   26   63 1
  52   26   64 1
  53   26   65 1
  54   27   28 1
  55   27   66 1
  56   27   67 1
  57   28   31 1
  58   29   30 1
  59   29   32 1
  60   30   68 1
  61   30   69 1
  62   31   70 1
  63   31   71 1
  64   31   72 1
  65   32   73 1
  66   32   74 1
  67   32   75 1
  68   33   34 1
  69   33   76 1
  70   33   77 1
  71   34   37 1
  72   34   40 1
  73   35   36 1
  74   35   78 1
  75   35   79 1
  76   36   80 1
  77   36   81 1
  78   37   38 2
  79   38   39 1
  80   39   40 2
  81   39   82 1
  82   40   83 1
  83   41   42 2
  84   41   43 1
  85   43   84 1
  86   44   45 1
  87   44   46 1
  88   44   47 1

#	End of record

