#	Name: ASD01883766
#	Creating user name:	WinNT
#	Creation time:	15. 06. 2019 19:47

#	Modifying user name:	WinNT
#	Modification time:	15. 06. 2019 19:47

#	Program:	/corina/corina34_cracker 3.40 0067  02.08.2006

@<TRIPOS>MOLECULE
ASD01883766
  56   60    0    0    0
SMALL
NO_CHARGES


@<TRIPOS>ATOM
   1 C1            -0.2439     1.1106    -0.2205 C.2     
   2 C2            -0.1486    -0.2855    -0.1343 C.2     
   3 C3            -1.3324    -1.0489    -0.0652 C.2     
   4 C4            -2.5413    -0.4566    -0.0809 C.2     
   5 N5            -2.6800     0.8984    -0.1637 N.pl3   
   6 C6            -1.5787     1.7131    -0.2284 C.2     
   7 C7            -3.7802     1.7153    -0.1960 C.2     
   8 C8            -3.3310     2.9851    -0.2842 C.2     
   9 N9            -1.9942     2.9647    -0.3017 N.2     
  10 C10           -5.2213     1.2778    -0.1437 C.3     
  11 C11            1.1736    -0.9478    -0.1167 C.ar    
  12 C12            1.5866    -1.6444     1.0138 C.ar    
  13 C13            2.8350    -2.2641     1.0174 C.ar    
  14 C14            3.6652    -2.1813    -0.1169 C.ar    
  15 C15            3.2312    -1.4782    -1.2386 C.ar    
  16 C16            2.0067    -0.8777    -1.2413 C.ar    
  17 C17           -5.7705     1.1598    -1.5668 C.3     
  18 F18           -5.0221     0.2161    -2.2787 F       
  19 F19           -7.1083     0.7536    -1.5183 F       
  20 F20           -5.6831     2.4017    -2.2049 F       
  21 C21            0.9315     1.9254    -0.2928 C.1     
  22 N22            1.8640     2.5717    -0.3501 N.1     
  23 C23            3.5733    -3.0590     2.0026 C.2     
  24 C24            4.7440    -3.3931     1.4379 C.2     
  25 N25            4.8160    -2.8776     0.1723 N.pl3   
  26 C26            5.9505    -3.0430    -0.7397 C.3     
  27 C27            7.2076    -2.4468    -0.1034 C.3     
  28 C28            7.5031    -3.1668     1.2139 C.3     
  29 C29            7.7261    -4.6559     0.9422 C.3     
  30 C30            6.4690    -5.2522     0.3059 C.3     
  31 C31            6.1736    -4.5321    -1.0114 C.3     
  32 O32            8.8327    -4.8173     0.0526 O.3     
  33 C33            8.0216    -5.3760     2.2595 C.3     
  34 H34           -1.2682    -2.1250     0.0010 H       
  35 H35           -3.4272    -1.0719    -0.0268 H       
  36 H36           -3.9483     3.8702    -0.3292 H       
  37 H37           -5.2894     0.3101     0.3534 H       
  38 H38           -5.8043     2.0130     0.4110 H       
  39 H39            0.9460    -1.7044     1.8813 H       
  40 H40            3.8649    -1.4119    -2.1106 H       
  41 H41            1.6795    -0.3349    -2.1158 H       
  42 H42            3.2391    -3.3249     2.9946 H       
  43 H43            5.5153    -3.9819     1.9121 H       
  44 H44            5.7400    -2.5300    -1.6782 H       
  45 H45            8.0517    -2.5698    -0.7820 H       
  46 H46            7.0487    -1.3859     0.0902 H       
  47 H47            8.3987    -2.7420     1.6672 H       
  48 H48            6.6590    -3.0438     1.8925 H       
  49 H49            6.6279    -6.3130     0.1123 H       
  50 H50            5.6249    -5.1291     0.9845 H       
  51 H51            5.2780    -4.9569    -1.4647 H       
  52 H52            7.0176    -4.6552    -1.6900 H       
  53 H53            9.0320    -5.7383    -0.1642 H       
  54 H54            7.1775    -5.2529     2.9381 H       
  55 H55            8.1805    -6.4368     2.0660 H       
  56 H56            8.9172    -4.9512     2.7128 H       
@<TRIPOS>BOND
   1    1    2 2
   2    1   21 1
   3    1    6 1
   4    2    3 1
   5    2   11 1
   6    3    4 2
   7    3   34 1
   8    4    5 1
   9    4   35 1
  10    5    6 1
  11    5    7 1
  12    6    9 2
  13    7    8 2
  14    7   10 1
  15    8    9 1
  16    8   36 1
  17   10   17 1
  18   10   37 1
  19   10   38 1
  20   11   12 ar
  21   11   16 ar
  22   12   13 ar
  23   12   39 1
  24   13   14 ar
  25   13   23 1
  26   14   15 ar
  27   14   25 1
  28   15   16 ar
  29   15   40 1
  30   16   41 1
  31   17   18 1
  32   17   19 1
  33   17   20 1
  34   21   22 3
  35   23   24 2
  36   23   42 1
  37   24   25 1
  38   24   43 1
  39   25   26 1
  40   26   27 1
  41   26   31 1
  42   26   44 1
  43   27   28 1
  44   27   45 1
  45   27   46 1
  46   28   29 1
  47   28   47 1
  48   28   48 1
  49   29   30 1
  50   29   32 1
  51   29   33 1
  52   30   31 1
  53   30   49 1
  54   30   50 1
  55   31   51 1
  56   31   52 1
  57   32   53 1
  58   33   54 1
  59   33   55 1
  60   33   56 1

#	End of record

