#	Name: ASD03540533
#	Creating user name:	WinNT
#	Creation time:	15. 06. 2019 20:43

#	Modifying user name:	WinNT
#	Modification time:	15. 06. 2019 20:43

#	Program:	/corina/corina34_cracker 3.40 0067  02.08.2006

@<TRIPOS>MOLECULE
ASD03540533
  71   75    0    0    0
SMALL
NO_CHARGES


@<TRIPOS>ATOM
   1 C1            -8.5764     7.0290     3.5894 C.ar    
   2 C2            -8.6028     8.4329     3.6817 C.ar    
   3 C3            -9.6748     9.0610     4.3167 C.ar    
   4 C4           -10.6992     8.3056     4.8487 C.ar    
   5 C5           -10.6717     6.9240     4.7575 C.ar    
   6 C6            -9.6194     6.2849     4.1324 C.ar    
   7 C7            -7.4479     6.3476     2.9127 C.ar    
   8 C8            -7.6876     5.5081     1.8255 C.ar    
   9 C9            -6.6326     4.8766     1.1991 C.ar    
  10 C10           -5.3392     5.0747     1.6481 C.ar    
  11 C11           -5.0951     5.9060     2.7266 C.ar    
  12 C12           -6.1414     6.5478     3.3571 C.ar    
  13 C13           -7.5043     9.2351     3.1114 C.2     
  14 O14           -6.6309     8.6947     2.4624 O.2     
  15 O15           -7.4694    10.5674     3.3103 O.3     
  16 C16           -4.1915     4.3817     0.9599 C.3     
  17 N17           -4.7681     2.8194    -2.3262 N.am    
  18 C18           -4.5048     3.0247    -1.0245 C.2     
  19 N19           -4.4886     4.2460    -0.4682 N.am    
  20 C20           -4.7415     5.3524    -1.2008 C.2     
  21 C21           -5.0374     5.1862    -2.6357 C.ar    
  22 C22           -5.3080     6.2744    -3.4556 C.ar    
  23 C23           -5.5818     6.0591    -4.8057 C.ar    
  24 C24           -5.5823     4.7578    -5.3230 C.ar    
  25 C25           -5.3161     3.6877    -4.5163 C.ar    
  26 C26           -5.0411     3.8829    -3.1687 C.ar    
  27 O27           -4.7259     6.4559    -0.6905 O.2     
  28 O28           -4.2707     2.0620    -0.3201 O.2     
  29 C29           -2.9158     5.2071     1.1393 C.3     
  30 C30           -5.8721     7.2045    -5.6910 C.2     
  31 N31           -6.1368     6.9974    -6.9961 N.am    
  32 O32           -5.8722     8.3346    -5.2426 O.2     
  33 C33           -6.4248     8.1339    -7.8745 C.3     
  34 C34           -6.6846     7.6350    -9.2726 C.ar    
  35 C35           -7.9704     7.3062    -9.6602 C.ar    
  36 C36           -8.2112     6.8486   -10.9413 C.ar    
  37 C37           -7.1615     6.7192   -11.8391 C.ar    
  38 C38           -5.8723     7.0499   -11.4477 C.ar    
  39 C39           -5.6376     7.5123   -10.1673 C.ar    
  40 O40           -7.3957     6.2689   -13.0998 O.3     
  41 C41           -6.2676     6.1609   -13.9702 C.3     
  42 C42           -6.3591    11.2932     2.7197 C.3     
  43 H43           -9.7023    10.1381     4.3921 H       
  44 H44          -11.5276     8.7946     5.3396 H       
  45 H45          -11.4789     6.3425     5.1779 H       
  46 H46           -9.6056     5.2071     4.0652 H       
  47 H47           -8.6971     5.3522     1.4745 H       
  48 H48           -6.8171     4.2262     0.3569 H       
  49 H49           -4.0833     6.0563     3.0731 H       
  50 H50           -5.9492     7.2004     4.1959 H       
  51 H51           -4.0492     3.3933     1.3969 H       
  52 H52           -4.7635     1.9162    -2.6798 H       
  53 H53           -5.3068     7.2760    -3.0517 H       
  54 H54           -5.7956     4.5985    -6.3696 H       
  55 H55           -5.3197     2.6887    -4.9268 H       
  56 H56           -3.0581     6.1955     0.7023 H       
  57 H57           -2.6948     5.3080     2.2019 H       
  58 H58           -2.0857     4.7058     0.6416 H       
  59 H59           -6.1367     6.0957    -7.3539 H       
  60 H60           -7.3048     8.6625    -7.5080 H       
  61 H61           -5.5712     8.8117    -7.8833 H       
  62 H62           -8.7872     7.4067    -8.9608 H       
  63 H63           -9.2157     6.5915   -11.2435 H       
  64 H64           -5.0535     6.9500   -12.1448 H       
  65 H65           -4.6349     7.7744    -9.8636 H       
  66 H66           -5.8062     7.1411   -14.0903 H       
  67 H67           -5.5431     5.4684   -13.5417 H       
  68 H68           -6.5929     5.7909   -14.9424 H       
  69 H69           -5.4206    10.9122     3.1226 H       
  70 H70           -6.3713    11.1587     1.6381 H       
  71 H71           -6.4517    12.3534     2.9551 H       
@<TRIPOS>BOND
   1    1    2 ar
   2    1    6 ar
   3    1    7 1
   4    2    3 ar
   5    2   13 1
   6    3    4 ar
   7    3   43 1
   8    4    5 ar
   9    4   44 1
  10    5    6 ar
  11    5   45 1
  12    6   46 1
  13    7    8 ar
  14    7   12 ar
  15    8    9 ar
  16    8   47 1
  17    9   10 ar
  18    9   48 1
  19   10   11 ar
  20   10   16 1
  21   11   12 ar
  22   11   49 1
  23   12   50 1
  24   13   14 2
  25   13   15 1
  26   15   42 1
  27   16   19 1
  28   16   29 1
  29   16   51 1
  30   17   18 am
  31   17   26 1
  32   17   52 1
  33   18   19 am
  34   18   28 2
  35   19   20 am
  36   20   21 1
  37   20   27 2
  38   21   22 ar
  39   21   26 ar
  40   22   23 ar
  41   22   53 1
  42   23   24 ar
  43   23   30 1
  44   24   25 ar
  45   24   54 1
  46   25   26 ar
  47   25   55 1
  48   29   56 1
  49   29   57 1
  50   29   58 1
  51   30   31 am
  52   30   32 2
  53   31   33 1
  54   31   59 1
  55   33   34 1
  56   33   60 1
  57   33   61 1
  58   34   35 ar
  59   34   39 ar
  60   35   36 ar
  61   35   62 1
  62   36   37 ar
  63   36   63 1
  64   37   38 ar
  65   37   40 1
  66   38   39 ar
  67   38   64 1
  68   39   65 1
  69   40   41 1
  70   41   66 1
  71   41   67 1
  72   41   68 1
  73   42   69 1
  74   42   70 1
  75   42   71 1

#	End of record

