#	Name: ASD01910864
#	Creating user name:	WinNT
#	Creation time:	15. 06. 2019 19:56

#	Modifying user name:	WinNT
#	Modification time:	15. 06. 2019 19:56

#	Program:	/corina/corina34_cracker 3.40 0067  02.08.2006

@<TRIPOS>MOLECULE
ASD01910864
  48   51    0    0    0
SMALL
NO_CHARGES


@<TRIPOS>ATOM
   1 C1             0.0552     1.7747    -0.4652 C.ar    
   2 C2             0.0986     0.6363     0.3285 C.ar    
   3 C3             1.2833    -0.0762     0.3970 C.ar    
   4 C4             2.3844     0.3706    -0.3281 C.ar    
   5 N5             2.3022     1.4619    -1.0733 N.ar    
   6 C6             1.1857     2.1601    -1.1575 C.ar    
   7 N7             3.5812    -0.3351    -0.2689 N.3     
   8 C8             4.7323     0.5772    -0.2976 C.3     
   9 C9             6.0175    -0.2194    -0.0491 C.3     
  10 N10            6.0762    -1.3254    -1.0169 N.am    
  11 C11            4.9024    -2.2025    -1.1433 C.3     
  12 C12            3.6610    -1.3278    -1.3487 C.3     
  13 C13            7.1767    -1.5300    -1.7676 C.2     
  14 C14            7.2664    -2.7215    -2.6387 C.ar    
  15 C15            7.8291    -2.6162    -3.9126 C.ar    
  16 C16            7.9136    -3.7275    -4.7285 C.ar    
  17 C17            7.4434    -4.9495    -4.2921 C.ar    
  18 C18            6.8775    -5.0699    -3.0189 C.ar    
  19 C19            6.7950    -3.9526    -2.1881 C.ar    
  20 C20            6.3891    -6.3381    -2.5673 C.1     
  21 O21            8.0954    -0.7351    -1.7287 O.2     
  22 C22            5.9887    -7.3777    -2.1971 C.1     
  23 C23            5.5002    -8.6458    -1.7455 C.ar    
  24 N24            4.9634    -8.7529    -0.5339 N.ar    
  25 C25            4.5028    -9.9015    -0.0827 C.ar    
  26 C26            4.5613   -11.0449    -0.8583 C.ar    
  27 C27            5.1140   -10.9790    -2.1305 C.ar    
  28 C28            5.5859    -9.7607    -2.5837 C.ar    
  29 Cl29           1.3947    -1.5069     1.3740 Cl      
  30 H30           -0.8552     2.3505    -0.5437 H       
  31 H31           -0.7722     0.3141     0.8801 H       
  32 H32            1.1561     3.0452    -1.7756 H       
  33 H33            4.7877     1.0622    -1.2722 H       
  34 H34            4.6168     1.3330     0.4793 H       
  35 H35            6.8825     0.4302    -0.1825 H       
  36 H36            6.0098    -0.6200     0.9646 H       
  37 H37            5.0301    -2.8640    -2.0001 H       
  38 H38            4.7874    -2.7937    -0.2347 H       
  39 H39            2.7687    -1.9536    -1.3342 H       
  40 H40            3.7314    -0.8162    -2.3086 H       
  41 H41            8.1988    -1.6631    -4.2609 H       
  42 H42            8.3495    -3.6397    -5.7127 H       
  43 H43            7.5123    -5.8143    -4.9353 H       
  44 H44            6.3590    -4.0393    -1.2038 H       
  45 H45            4.0736    -9.9510     0.9071 H       
  46 H46            4.1808   -11.9812    -0.4777 H       
  47 H47            5.1702   -11.8591    -2.7540 H       
  48 H48            6.0215    -9.6738    -3.5681 H       
@<TRIPOS>BOND
   1    1    2 ar
   2    1    6 ar
   3    1   30 1
   4    2    3 ar
   5    2   31 1
   6    3    4 ar
   7    3   29 1
   8    4    5 ar
   9    4    7 1
  10    5    6 ar
  11    6   32 1
  12    7    8 1
  13    7   12 1
  14    8    9 1
  15    8   33 1
  16    8   34 1
  17    9   10 1
  18    9   35 1
  19    9   36 1
  20   10   11 1
  21   10   13 am
  22   11   12 1
  23   11   37 1
  24   11   38 1
  25   12   39 1
  26   12   40 1
  27   13   14 1
  28   13   21 2
  29   14   15 ar
  30   14   19 ar
  31   15   16 ar
  32   15   41 1
  33   16   17 ar
  34   16   42 1
  35   17   18 ar
  36   17   43 1
  37   18   19 ar
  38   18   20 1
  39   19   44 1
  40   20   22 3
  41   22   23 1
  42   23   24 ar
  43   23   28 ar
  44   24   25 ar
  45   25   26 ar
  46   25   45 1
  47   26   27 ar
  48   26   46 1
  49   27   28 ar
  50   27   47 1
  51   28   48 1

#	End of record

