#	Name: ASD04170043
#	Creating user name:	WinNT
#	Creation time:	15. 06. 2019 20:48

#	Modifying user name:	WinNT
#	Modification time:	15. 06. 2019 20:48

#	Program:	/corina/corina34_cracker 3.40 0067  02.08.2006

@<TRIPOS>MOLECULE
ASD04170043
  40   42    0    0    0
SMALL
NO_CHARGES


@<TRIPOS>ATOM
   1 C1            -1.3912    -0.9934    -2.4371 C.3     
   2 N2            -0.6595    -1.1993    -1.1847 N.pl3   
   3 C3             0.6409    -0.7682    -1.0695 C.cat   
   4 N4             1.2570    -0.8543     0.0759 N.pl3   
   5 C5             2.6759    -0.5030     0.1727 C.3     
   6 N6             1.2914    -0.2461    -2.1624 N.pl3   
   7 C7             1.7818    -1.1455    -3.2024 C.3     
   8 C8             2.5218    -0.3832    -4.3012 C.3     
   9 C9             2.7317    -1.3129    -5.4971 C.3     
  10 C10            3.2274    -0.4855    -6.6873 C.3     
  11 C11            2.0764     0.3969    -7.1712 C.3     
  12 C12            1.5178     1.1909    -6.0187 C.ar    
  13 C13            1.7307     0.8315    -4.7088 C.ar    
  14 C14            1.2067     1.6190    -3.6886 C.ar    
  15 C15            1.4754     1.2044    -2.2661 C.3     
  16 C16            0.4620     2.7399    -3.9743 C.ar    
  17 C17            0.2364     3.0923    -5.2937 C.ar    
  18 C18            0.7646     2.3210    -6.3086 C.ar    
  19 H19           -1.5143     0.0750    -2.6145 H       
  20 H20           -0.8325    -1.4366    -3.2614 H       
  21 H21           -2.3712    -1.4654    -2.3671 H       
  22 H22           -1.0925    -1.6398    -0.4368 H       
  23 H23            0.7760    -1.1511     0.8642 H       
  24 H24            2.8021     0.5596    -0.0348 H       
  25 H25            3.0368    -0.7223     1.1775 H       
  26 H26            3.2446    -1.0848    -0.5527 H       
  27 H27            2.4600    -1.8717    -2.7543 H       
  28 H28            0.9367    -1.6742    -3.6432 H       
  29 H29            3.4913    -0.0584    -3.9235 H       
  30 H30            3.4737    -2.0704    -5.2448 H       
  31 H31            1.7886    -1.7947    -5.7549 H       
  32 H32            4.0644     0.1400    -6.3768 H       
  33 H33            3.5435    -1.1506    -7.4909 H       
  34 H34            2.4417     1.0800    -7.9381 H       
  35 H35            1.2912    -0.2312    -7.5923 H       
  36 H36            0.7816     1.7140    -1.5976 H       
  37 H37            2.5003     1.4592    -1.9966 H       
  38 H38            0.0557     3.3408    -3.1742 H       
  39 H39           -0.3509     3.9678    -5.5279 H       
  40 H40            0.5904     2.5985    -7.3377 H       
@<TRIPOS>BOND
   1    1    2 1
   2    1   19 1
   3    1   20 1
   4    1   21 1
   5    2    3 ar
   6    2   22 1
   7    3    4 ar
   8    3    6 ar
   9    4    5 1
  10    4   23 1
  11    5   24 1
  12    5   25 1
  13    5   26 1
  14    6    7 1
  15    6   15 1
  16    7    8 1
  17    7   27 1
  18    7   28 1
  19    8    9 1
  20    8   13 1
  21    8   29 1
  22    9   10 1
  23    9   30 1
  24    9   31 1
  25   10   11 1
  26   10   32 1
  27   10   33 1
  28   11   12 1
  29   11   34 1
  30   11   35 1
  31   12   13 ar
  32   12   18 ar
  33   13   14 ar
  34   14   15 1
  35   14   16 ar
  36   15   36 1
  37   15   37 1
  38   16   17 ar
  39   16   38 1
  40   17   18 ar
  41   17   39 1
  42   18   40 1

#	End of record

