#	Name: ASD08390073
#	Creating user name:	WinNT
#	Creation time:	15. 06. 2019 21:19

#	Modifying user name:	WinNT
#	Modification time:	15. 06. 2019 21:19

#	Program:	/corina/corina34_cracker 3.40 0067  02.08.2006

@<TRIPOS>MOLECULE
ASD08390073
  46   48    0    0    0
SMALL
NO_CHARGES


@<TRIPOS>ATOM
   1 C1             0.0310     1.7495    -0.1798 C.3     
   2 C2             0.2513     0.2273    -0.2923 C.3     
   3 N3             1.4036     2.2810    -0.1239 N.pl3   
   4 C4             2.2722     1.2332    -0.1932 C.2     
   5 N5             1.7139     0.0824    -0.2866 N.2     
   6 C6            -0.6943     2.2739    -1.3922 C.ar    
   7 C7            -2.0538     2.5173    -1.3327 C.ar    
   8 C8            -2.7191     2.9982    -2.4448 C.ar    
   9 C9            -2.0250     3.2362    -3.6163 C.ar    
  10 C10           -0.6654     2.9936    -3.6755 C.ar    
  11 C11            0.0008     2.5168    -2.5621 C.ar    
  12 C12            1.7720     3.6946    -0.0128 C.3     
  13 C13            2.4767     3.9284     1.2985 C.ar    
  14 C14            3.5389     4.8106     1.3646 C.ar    
  15 C15            4.1854     5.0251     2.5675 C.ar    
  16 C16            3.7694     4.3578     3.7044 C.ar    
  17 C17            2.7066     3.4763     3.6385 C.ar    
  18 C18            2.0574     3.2651     2.4365 C.ar    
  19 C19            0.5097     4.5570    -0.0744 C.3     
  20 C20            3.7682     1.4123    -0.1626 C.3     
  21 C21           -0.3647    -0.4948     0.9077 C.3     
  22 C22           -0.3304    -0.2977    -1.5796 C.2     
  23 O23           -1.4593    -0.7279    -1.6013 O.2     
  24 O24            0.4056    -0.2874    -2.7021 O.3     
  25 H25           -0.5140     1.9935     0.7321 H       
  26 H26           -2.5961     2.3314    -0.4174 H       
  27 H27           -3.7814     3.1877    -2.3986 H       
  28 H28           -2.5449     3.6113    -4.4854 H       
  29 H29           -0.1231     3.1792    -4.5909 H       
  30 H30            1.0630     2.3273    -2.6083 H       
  31 H31            2.4357     3.9627    -0.8349 H       
  32 H32            3.8639     5.3320     0.4764 H       
  33 H33            5.0157     5.7139     2.6190 H       
  34 H34            4.2749     4.5248     4.6440 H       
  35 H35            2.3818     2.9546     4.5266 H       
  36 H36            1.2271     2.5763     2.3850 H       
  37 H37            0.7839     5.6087     0.0083 H       
  38 H38           -0.0000     4.3878    -1.0229 H       
  39 H39           -0.1540     4.2888     0.7476 H       
  40 H40            4.1063     1.4688     0.8721 H       
  41 H41            4.2457     0.5652    -0.6551 H       
  42 H42            4.0347     2.3324    -0.6827 H       
  43 H43           -1.4356    -0.2941     0.9420 H       
  44 H44           -0.1991    -1.5677     0.8103 H       
  45 H45            0.1016    -0.1370     1.8256 H       
  46 H46           -0.0105    -0.6345    -3.5030 H       
@<TRIPOS>BOND
   1    1    2 1
   2    1    3 1
   3    1    6 1
   4    1   25 1
   5    2   21 1
   6    2   22 1
   7    2    5 1
   8    3    4 1
   9    3   12 1
  10    4    5 2
  11    4   20 1
  12    6    7 ar
  13    6   11 ar
  14    7    8 ar
  15    7   26 1
  16    8    9 ar
  17    8   27 1
  18    9   10 ar
  19    9   28 1
  20   10   11 ar
  21   10   29 1
  22   11   30 1
  23   12   13 1
  24   12   19 1
  25   12   31 1
  26   13   14 ar
  27   13   18 ar
  28   14   15 ar
  29   14   32 1
  30   15   16 ar
  31   15   33 1
  32   16   17 ar
  33   16   34 1
  34   17   18 ar
  35   17   35 1
  36   18   36 1
  37   19   37 1
  38   19   38 1
  39   19   39 1
  40   20   40 1
  41   20   41 1
  42   20   42 1
  43   21   43 1
  44   21   44 1
  45   21   45 1
  46   22   23 2
  47   22   24 1
  48   24   46 1

#	End of record

