#	Name: ASD01911789
#	Creating user name:	WinNT
#	Creation time:	15. 06. 2019 19:58

#	Modifying user name:	WinNT
#	Modification time:	15. 06. 2019 19:58

#	Program:	/corina/corina34_cracker 3.40 0067  02.08.2006

@<TRIPOS>MOLECULE
ASD01911789
  39   41    0    0    0
SMALL
NO_CHARGES


@<TRIPOS>ATOM
   1 C1            -0.3544     1.5426     0.0011 C.2     
   2 N2            -0.2737     0.1928     0.3340 N.pl3   
   3 C3             0.7085     2.3978     0.3882 C.2     
   4 C4             1.7559     1.8627     1.0651 C.2     
   5 N5             1.7835     0.5541     1.3606 N.2     
   6 C6             0.8264    -0.2569     1.0214 C.2     
   7 C7            -1.3853    -0.4365    -0.1282 C.2     
   8 C8            -2.1882     0.5074    -0.7619 C.2     
   9 C9            -1.5183     1.7542    -0.6752 C.2     
  10 N10           -1.6706    -1.7853     0.0078 N.pl3   
  11 C11           -0.9233    -2.7328    -0.6988 C.ar    
  12 C12           -1.2540    -4.0821    -0.6195 C.ar    
  13 C13            0.1467    -2.3288    -1.4857 C.ar    
  14 C14            0.8831    -3.2671    -2.1832 C.ar    
  15 C15            0.5560    -4.6082    -2.0988 C.ar    
  16 C16           -0.5130    -5.0154    -1.3200 C.ar    
  17 F17           -2.2974    -4.4794     0.1413 F       
  18 I18            1.6764    -6.0259    -3.1589 I       
  19 C19           -3.4842     0.2579    -1.4046 C.2     
  20 N20           -3.5364    -0.0734    -2.7099 N.am    
  21 O21           -4.5114     0.3501    -0.7587 O.2     
  22 O22           -4.7865    -0.3141    -3.3299 O.3     
  23 C23           -4.6926    -0.6553    -4.7144 C.3     
  24 C24           -6.0953    -0.8921    -5.2775 C.3     
  25 O25           -6.8367     0.3289    -5.2385 O.3     
  26 F26           -1.9566     2.9346    -1.1649 F       
  27 Cl27           0.6710     4.0904     0.0043 Cl      
  28 H28            2.5758     2.4966     1.3688 H       
  29 H29            0.8979    -1.3021     1.2839 H       
  30 H30           -2.3888    -2.0724     0.5932 H       
  31 H31            0.4032    -1.2819    -1.5529 H       
  32 H32            1.7152    -2.9527    -2.7956 H       
  33 H33           -0.7659    -6.0634    -1.2561 H       
  34 H34           -2.7176    -0.1469    -3.2248 H       
  35 H35           -4.2157     0.1603    -5.2580 H       
  36 H36           -4.0985    -1.5623    -4.8256 H       
  37 H37           -6.0193    -1.2383    -6.3083 H       
  38 H38           -6.6051    -1.6461    -4.6777 H       
  39 H39           -7.7378     0.2530    -5.5812 H       
@<TRIPOS>BOND
   1    1    2 1
   2    1    3 1
   3    1    9 2
   4    2    7 1
   5    2    6 1
   6    3    4 2
   7    3   27 1
   8    4    5 1
   9    4   28 1
  10    5    6 2
  11    6   29 1
  12    7    8 2
  13    7   10 1
  14    8    9 1
  15    8   19 1
  16    9   26 1
  17   10   11 1
  18   10   30 1
  19   11   12 ar
  20   11   13 ar
  21   12   17 1
  22   12   16 ar
  23   13   14 ar
  24   13   31 1
  25   14   15 ar
  26   14   32 1
  27   15   16 ar
  28   15   18 1
  29   16   33 1
  30   19   20 am
  31   19   21 2
  32   20   22 1
  33   20   34 1
  34   22   23 1
  35   23   24 1
  36   23   35 1
  37   23   36 1
  38   24   25 1
  39   24   37 1
  40   24   38 1
  41   25   39 1

#	End of record

