#	Name: ASD05513011
#	Creating user name:	WinNT
#	Creation time:	15. 06. 2019 21:01

#	Modifying user name:	WinNT
#	Modification time:	15. 06. 2019 21:01

#	Program:	/corina/corina34_cracker 3.40 0067  02.08.2006

@<TRIPOS>MOLECULE
ASD05513011
  23   24    0    0    0
SMALL
NO_CHARGES


@<TRIPOS>ATOM
   1 C1            -0.0107     1.3990     0.4127 C.2     
   2 C2             0.0021    -0.0041     0.0020 C.2     
   3 C3             1.1848    -0.6682    -0.1156 C.2     
   4 C4             2.5234    -0.0885    -0.3457 C.ar    
   5 C5             3.4216    -1.1652    -0.3934 C.ar    
   6 N6             2.7265    -2.3571    -0.2090 N.am    
   7 C7             1.4123    -2.1367    -0.0340 C.2     
   8 C8             2.9812     1.2180    -0.5051 C.ar    
   9 C9             4.3267     1.4513    -0.7109 C.ar    
  10 C10            5.2159     0.3891    -0.7589 C.ar    
  11 C11            4.7715    -0.9092    -0.6011 C.ar    
  12 O12            0.5616    -2.9845     0.1488 O.2     
  13 O13            1.0166     1.9353     0.7719 O.2     
  14 C14           -1.2987     2.1808     0.3840 C.3     
  15 Cl15           4.9047     3.0760    -0.9104 Cl      
  16 H16           -0.9266    -0.5137    -0.2081 H       
  17 H17            3.1390    -3.2351    -0.2030 H       
  18 H18            2.2868     2.0444    -0.4682 H       
  19 H19            6.2668     0.5786    -0.9205 H       
  20 H20            5.4750    -1.7277    -0.6406 H       
  21 H21           -2.1060     1.5383     0.0325 H       
  22 H22           -1.5294     2.5379     1.3877 H       
  23 H23           -1.1924     3.0317    -0.2888 H       
@<TRIPOS>BOND
   1    1    2 1
   2    1   13 2
   3    1   14 1
   4    2    3 2
   5    2   16 1
   6    3    4 1
   7    3    7 1
   8    4    5 ar
   9    4    8 ar
  10    5    6 1
  11    5   11 ar
  12    6    7 am
  13    6   17 1
  14    7   12 2
  15    8    9 ar
  16    8   18 1
  17    9   10 ar
  18    9   15 1
  19   10   11 ar
  20   10   19 1
  21   11   20 1
  22   14   21 1
  23   14   22 1
  24   14   23 1

#	End of record

