#	Name: ASD04880760
#	Creating user name:	WinNT
#	Creation time:	15. 06. 2019 20:53

#	Modifying user name:	WinNT
#	Modification time:	15. 06. 2019 20:53

#	Program:	/corina/corina34_cracker 3.40 0067  02.08.2006

@<TRIPOS>MOLECULE
ASD04880760
  65   69    0    0    0
SMALL
NO_CHARGES


@<TRIPOS>ATOM
   1 C1             1.0812    -0.8394     0.1173 C.ar    
   2 C2             0.6249    -1.6713    -0.8891 C.ar    
   3 C3             1.2451    -1.6712    -2.1248 C.ar    
   4 C4             2.3232    -0.8398    -2.3581 C.ar    
   5 C5             2.7840    -0.0032    -1.3498 C.ar    
   6 C6             2.1584    -0.0058    -0.1093 C.ar    
   7 N7             3.8741     0.8385    -1.5822 N.3     
   8 C8             5.0024     0.4929    -0.7063 C.3     
   9 C9             6.2000     1.3833    -1.0462 C.3     
  10 N10            5.8212     2.7935    -0.8807 N.3     
  11 C11            4.6929     3.1391    -1.7566 C.3     
  12 C12            3.4954     2.2487    -1.4167 C.3     
  13 C13            6.9081     3.6327    -1.1124 C.ar    
  14 C14            6.9064     4.4830    -2.2122 C.ar    
  15 C15            7.9793     5.3146    -2.4452 C.ar    
  16 C16            9.0735     5.3058    -1.5757 C.ar    
  17 C17            9.0775     4.4522    -0.4690 C.ar    
  18 C18            7.9966     3.6230    -0.2358 C.ar    
  19 N19            7.9945     2.7694     0.8751 N.am    
  20 C20            9.1605     2.3772     1.4257 C.2     
  21 C21            9.1587     1.5824     2.6579 C.2     
  22 O22           10.2149     2.6826     0.9000 O.2     
  23 C23           10.2623     1.1220     3.3174 C.2     
  24 C24            9.7974     0.4150     4.4374 C.2     
  25 C25            8.4476     0.4742     4.4128 C.2     
  26 O26            8.0667     1.1830     3.3421 O.3     
  27 C27           10.2230     6.1960    -1.8260 C.2     
  28 N28           10.6307     6.4313    -3.0890 N.am    
  29 O29           10.8027     6.7175    -0.8930 O.2     
  30 C30            2.9989    -0.8408    -3.7052 C.3     
  31 C31            9.8990     5.8878    -4.2429 C.3     
  32 C32           10.8905     5.3615    -5.2444 C.2     
  33 N33           12.1968     5.6234    -5.1806 N.am    
  34 C34           12.8401     6.3636    -4.1038 C.3     
  35 C35           11.8234     7.2482    -3.3695 C.3     
  36 O36           10.4834     4.6668    -6.1514 O.2     
  37 H37            0.5917    -0.8387     1.0800 H       
  38 H38           -0.2176    -2.3226    -0.7091 H       
  39 H39            0.8865    -2.3223    -2.9083 H       
  40 H40            2.5140     0.6438     0.6769 H       
  41 H41            4.7166     0.6494     0.3338 H       
  42 H42            5.2723    -0.5524    -0.8563 H       
  43 H43            7.0288     1.1486    -0.3784 H       
  44 H44            6.5030     1.2068    -2.0783 H       
  45 H45            4.4230     4.1845    -1.6066 H       
  46 H46            4.9788     2.9826    -2.7967 H       
  47 H47            2.6665     2.4834    -2.0845 H       
  48 H48            3.1924     2.4252    -0.3846 H       
  49 H49            6.0621     4.4913    -2.8856 H       
  50 H50            7.9751     5.9738    -3.3007 H       
  51 H51            9.9217     4.4432     0.2046 H       
  52 H52            7.1540     2.4607     1.2480 H       
  53 H53           11.2931     1.2725     3.0324 H       
  54 H54           10.4043    -0.0829     5.1791 H       
  55 H55            7.7851     0.0267     5.1390 H       
  56 H56            2.4685    -0.1671    -4.3782 H       
  57 H57            4.0303    -0.5060    -3.5945 H       
  58 H58            2.9866    -1.8499    -4.1171 H       
  59 H59            9.2477     5.0781    -3.9138 H       
  60 H60            9.3014     6.6762    -4.7005 H       
  61 H61           12.7578     5.2978    -5.9019 H       
  62 H62           13.2816     5.6596    -3.3984 H       
  63 H63           13.6261     6.9931    -4.5208 H       
  64 H64           11.5492     8.0961    -3.9972 H       
  65 H65           12.2525     7.6062    -2.4336 H       
@<TRIPOS>BOND
   1    1    2 ar
   2    1    6 ar
   3    1   37 1
   4    2    3 ar
   5    2   38 1
   6    3    4 ar
   7    3   39 1
   8    4    5 ar
   9    4   30 1
  10    5    6 ar
  11    5    7 1
  12    6   40 1
  13    7    8 1
  14    7   12 1
  15    8    9 1
  16    8   41 1
  17    8   42 1
  18    9   10 1
  19    9   43 1
  20    9   44 1
  21   10   11 1
  22   10   13 1
  23   11   12 1
  24   11   45 1
  25   11   46 1
  26   12   47 1
  27   12   48 1
  28   13   14 ar
  29   13   18 ar
  30   14   15 ar
  31   14   49 1
  32   15   16 ar
  33   15   50 1
  34   16   17 ar
  35   16   27 1
  36   17   18 ar
  37   17   51 1
  38   18   19 1
  39   19   20 am
  40   19   52 1
  41   20   21 1
  42   20   22 2
  43   21   23 2
  44   21   26 1
  45   23   24 1
  46   23   53 1
  47   24   25 2
  48   24   54 1
  49   25   26 1
  50   25   55 1
  51   27   28 am
  52   27   29 2
  53   28   31 1
  54   28   35 1
  55   30   56 1
  56   30   57 1
  57   30   58 1
  58   31   32 1
  59   31   59 1
  60   31   60 1
  61   32   33 am
  62   32   36 2
  63   33   34 1
  64   33   61 1
  65   34   35 1
  66   34   62 1
  67   34   63 1
  68   35   64 1
  69   35   65 1

#	End of record

