#	Name: ASD02508166
#	Creating user name:	WinNT
#	Creation time:	15. 06. 2019 20:23

#	Modifying user name:	WinNT
#	Modification time:	15. 06. 2019 20:23

#	Program:	/corina/corina34_cracker 3.40 0067  02.08.2006

@<TRIPOS>MOLECULE
ASD02508166
  32   34    0    0    0
SMALL
NO_CHARGES


@<TRIPOS>ATOM
   1 C1            -0.0623     1.3980     0.2672 C.ar    
   2 C2             0.0347     0.0068     0.4632 C.ar    
   3 C3             1.0776     2.1137    -0.0220 C.ar    
   4 C4             2.3074     1.4338    -0.1142 C.ar    
   5 C5             2.3868     0.0771     0.0785 C.ar    
   6 C6             1.2404    -0.6426     0.3709 C.ar    
   7 S7            -1.5259     2.3683     0.3590 S.3     
   8 C8            -0.9115     3.9723     0.0142 C.2     
   9 S9             0.8163     3.8385    -0.2426 S.3     
  10 S10            3.9405    -0.7448    -0.0442 S.o2    
  11 N11            4.2815    -1.3740     1.4492 N.am    
  12 C12            4.4706    -0.5213     2.5400 C.ar    
  13 O13           -1.5672     4.9970    -0.0345 O.2     
  14 O14            3.7407    -1.8533    -0.9105 O.2     
  15 O15            4.9107     0.2650    -0.2853 O.2     
  16 C16            3.8589    -0.8002     3.7554 C.ar    
  17 C17            5.2752     0.6037     2.4125 C.ar    
  18 C18            5.4603     1.4447     3.4922 C.ar    
  19 C19            4.8450     1.1675     4.7003 C.ar    
  20 C20            4.0475     0.0442     4.8319 C.ar    
  21 C21            1.3159    -2.1325     0.5844 C.3     
  22 Cl22           5.0799     2.2268     6.0554 Cl      
  23 H23           -0.8563    -0.5597     0.6907 H       
  24 H24            3.2048     1.9901    -0.3412 H       
  25 H25            4.3501    -2.3344     1.5667 H       
  26 H26            3.2361    -1.6765     3.8586 H       
  27 H27            5.7559     0.8204     1.4699 H       
  28 H28            6.0860     2.3195     3.3937 H       
  29 H29            3.5685    -0.1698     5.7759 H       
  30 H30            1.5902    -2.3378     1.6191 H       
  31 H31            0.3453    -2.5799     0.3702 H       
  32 H32            2.0668    -2.5574    -0.0817 H       
@<TRIPOS>BOND
   1    1    2 ar
   2    1    3 ar
   3    1    7 1
   4    2    6 ar
   5    2   23 1
   6    3    4 ar
   7    3    9 1
   8    4    5 ar
   9    4   24 1
  10    5    6 ar
  11    5   10 1
  12    6   21 1
  13    7    8 1
  14    8    9 1
  15    8   13 2
  16   10   11 am
  17   10   14 2
  18   10   15 2
  19   11   12 1
  20   11   25 1
  21   12   16 ar
  22   12   17 ar
  23   16   20 ar
  24   16   26 1
  25   17   18 ar
  26   17   27 1
  27   18   19 ar
  28   18   28 1
  29   19   20 ar
  30   19   22 1
  31   20   29 1
  32   21   30 1
  33   21   31 1
  34   21   32 1

#	End of record

