#	Name: ASD01912994
#	Creating user name:	WinNT
#	Creation time:	15. 06. 2019 20:00

#	Modifying user name:	WinNT
#	Modification time:	15. 06. 2019 20:00

#	Program:	/corina/corina34_cracker 3.40 0067  02.08.2006

@<TRIPOS>MOLECULE
ASD01912994
  40   43    0    0    0
SMALL
NO_CHARGES


@<TRIPOS>ATOM
   1 C1             0.1171     1.3947     0.1863 C.2     
   2 C2             0.1764    -0.0357     0.2204 C.1     
   3 C3             0.2250    -1.2083     0.2485 C.1     
   4 C4             0.2843    -2.6387     0.2826 C.ar    
   5 C5            -0.8936    -3.3894     0.3421 C.ar    
   6 C6             1.5200    -3.2915     0.2509 C.ar    
   7 C7             1.5690    -4.6693     0.2837 C.ar    
   8 C8             0.3989    -5.4055     0.3473 C.ar    
   9 C9            -0.8284    -4.7665     0.3742 C.ar    
  10 N10            1.1435     2.1925     0.1309 N.2     
  11 C11            0.9165     3.4947     0.1071 C.2     
  12 C12           -0.3915     3.8270     0.1391 C.2     
  13 S13           -1.3568     2.3579     0.2048 S.3     
  14 C14            2.0289     4.5339     0.0562 C.3     
  15 C15            1.4523     5.8636    -0.4338 C.3     
  16 N16            0.2133     6.1517     0.3040 N.am    
  17 C17           -0.9279     5.2409     0.1117 C.3     
  18 C18            0.1251     7.2137     1.1292 C.2     
  19 C19           -1.1654     7.5599     1.7485 C.2     
  20 O20            1.1114     7.8863     1.3623 O.2     
  21 C21           -1.3000     8.5241     2.6867 C.2     
  22 S22           -2.9431     8.6188     3.1487 S.3     
  23 C23           -3.3554     7.3664     2.0634 C.2     
  24 N24           -2.3130     6.9545     1.4318 N.2     
  25 C25           -4.7474     6.8229     1.8688 C.3     
  26 H26           -1.8520    -2.8921     0.3631 H       
  27 H27            2.4340    -2.7184     0.2005 H       
  28 H28            2.5229    -5.1751     0.2592 H       
  29 H29            0.4435    -6.4843     0.3720 H       
  30 H30           -1.7373    -5.3477     0.4239 H       
  31 H31            2.4507     4.6650     1.0527 H       
  32 H32            2.8080     4.2001    -0.6291 H       
  33 H33            2.1747     6.6608    -0.2584 H       
  34 H34            1.2344     5.7957    -1.4996 H       
  35 H35           -1.4011     5.4385    -0.8502 H       
  36 H36           -1.6507     5.3783     0.9159 H       
  37 H37           -0.5005     9.1345     3.0798 H       
  38 H38           -5.4390     7.3522     2.5242 H       
  39 H39           -5.0505     6.9632     0.8313 H       
  40 H40           -4.7595     5.7600     2.1102 H       
@<TRIPOS>BOND
   1    1    2 1
   2    1   10 2
   3    1   13 1
   4    2    3 3
   5    3    4 1
   6    4    5 ar
   7    4    6 ar
   8    5    9 ar
   9    5   26 1
  10    6    7 ar
  11    6   27 1
  12    7    8 ar
  13    7   28 1
  14    8    9 ar
  15    8   29 1
  16    9   30 1
  17   10   11 1
  18   11   12 2
  19   11   14 1
  20   12   13 1
  21   12   17 1
  22   14   15 1
  23   14   31 1
  24   14   32 1
  25   15   16 1
  26   15   33 1
  27   15   34 1
  28   16   17 1
  29   16   18 am
  30   17   35 1
  31   17   36 1
  32   18   19 1
  33   18   20 2
  34   19   21 2
  35   19   24 1
  36   21   22 1
  37   21   37 1
  38   22   23 1
  39   23   24 2
  40   23   25 1
  41   25   38 1
  42   25   39 1
  43   25   40 1

#	End of record

