#	Name: ASD01915144
#	Creating user name:	WinNT
#	Creation time:	15. 06. 2019 20:04

#	Modifying user name:	WinNT
#	Modification time:	15. 06. 2019 20:04

#	Program:	/corina/corina34_cracker 3.40 0067  02.08.2006

@<TRIPOS>MOLECULE
ASD01915144
  39   42    0    0    0
SMALL
NO_CHARGES


@<TRIPOS>ATOM
   1 C1            -0.0169     1.3924     0.0097 C.ar    
   2 C2             0.0021    -0.0041     0.0020 C.ar    
   3 N3            -1.1430    -0.6903     0.0096 N.ar    
   4 C4            -2.3135    -0.0965     0.0244 C.ar    
   5 C5            -2.4136     1.2863     0.0328 C.ar    
   6 C6            -1.2657     2.0479     0.0305 C.ar    
   7 C7             1.3286     1.9586    -0.0001 C.2     
   8 C8             2.3057     1.0550    -0.0143 C.2     
   9 S9             1.6661    -0.5765    -0.0169 S.3     
  10 C10            1.5852     3.4183     0.0053 C.ar    
  11 C11            1.2155     4.1870     1.1048 C.ar    
  12 S12            4.0231     1.4489    -0.0280 S.o2    
  13 O13            4.6884     0.3236    -0.5850 O.2     
  14 O14            4.1298     2.7597    -0.5661 O.2     
  15 C15            4.5471     1.5560     1.6509 C.ar    
  16 C16            5.0188     0.4327     2.2974 C.ar    
  17 C17            4.4897     2.7682     2.3160 C.ar    
  18 C18            4.8999     2.8615     3.6338 C.ar    
  19 C19            5.3695     1.7448     4.2942 C.ar    
  20 C20            5.4341     0.5196     3.6279 C.ar    
  21 C21            1.4603     5.5597     1.1022 C.ar    
  22 C22            2.0744     6.1537    -0.0029 C.ar    
  23 C23            2.4379     5.3842    -1.0901 C.ar    
  24 C24            2.2033     4.0234    -1.0899 C.ar    
  25 C25            5.9201    -0.6437     4.3071 C.1     
  26 N26            6.3055    -1.5665     4.8459 N.1     
  27 C27            1.0827     6.3584     2.2292 C.1     
  28 N28            0.7832     6.9920     3.1232 N.1     
  29 H29           -3.2129    -0.6945     0.0297 H       
  30 H30           -3.3830     1.7623     0.0450 H       
  31 H31           -1.3210     3.1265     0.0370 H       
  32 H32            0.7407     3.7224     1.9563 H       
  33 H33            5.0666    -0.5119     1.7760 H       
  34 H34            4.1233     3.6455     1.8037 H       
  35 H35            4.8528     3.8107     4.1469 H       
  36 H36            5.6901     1.8191     5.3228 H       
  37 H37            2.2650     7.2168    -0.0070 H       
  38 H38            2.9121     5.8479    -1.9425 H       
  39 H39            2.4904     3.4273    -1.9435 H       
@<TRIPOS>BOND
   1    1    2 ar
   2    1    7 1
   3    1    6 ar
   4    2    3 ar
   5    2    9 1
   6    3    4 ar
   7    4    5 ar
   8    4   29 1
   9    5    6 ar
  10    5   30 1
  11    6   31 1
  12    7    8 2
  13    7   10 1
  14    8    9 1
  15    8   12 1
  16   10   11 ar
  17   10   24 ar
  18   11   21 ar
  19   11   32 1
  20   12   13 2
  21   12   14 2
  22   12   15 1
  23   15   16 ar
  24   15   17 ar
  25   16   20 ar
  26   16   33 1
  27   17   18 ar
  28   17   34 1
  29   18   19 ar
  30   18   35 1
  31   19   20 ar
  32   19   36 1
  33   20   25 1
  34   21   22 ar
  35   21   27 1
  36   22   23 ar
  37   22   37 1
  38   23   24 ar
  39   23   38 1
  40   24   39 1
  41   25   26 3
  42   27   28 3

#	End of record

