#	Name: ASD01883521
#	Creating user name:	WinNT
#	Creation time:	15. 06. 2019 19:46

#	Modifying user name:	WinNT
#	Modification time:	15. 06. 2019 19:46

#	Program:	/corina/corina34_cracker 3.40 0067  02.08.2006

@<TRIPOS>MOLECULE
ASD01883521
  55   57    0    0    0
SMALL
NO_CHARGES


@<TRIPOS>ATOM
   1 N1             0.0020     1.3083    -0.0152 N.am    
   2 C2            -0.7508     1.3811     1.0981 C.2     
   3 C3            -1.9987     0.7163     1.1507 C.2     
   4 C4            -2.4239    -0.0108     0.0261 C.2     
   5 C5            -1.5922    -0.0495    -1.1084 C.2     
   6 C6            -0.4127     0.6091    -1.1036 C.2     
   7 O7            -0.3577     2.0188     2.0603 O.2     
   8 C8            -2.8123     0.7828     2.3273 C.1     
   9 N9            -3.4576     0.8356     3.2607 N.1     
  10 C10            1.2918     2.0018    -0.0563 C.3     
  11 C11            2.3913     1.0641     0.4464 C.3     
  12 C12            3.7383     1.7884     0.4035 C.3     
  13 C13            4.8169     0.8965     1.0216 C.3     
  14 C14            4.1043     2.0992    -1.0492 C.3     
  15 N15           -3.6309    -0.6732     0.0341 N.pl3   
  16 C16           -4.9039     0.0558     0.1602 C.3     
  17 C17           -5.6914    -0.1483    -1.1330 C.3     
  18 C18           -5.7059    -1.6016    -1.5288 C.ar    
  19 C19           -4.7890    -2.5136    -1.0562 C.ar    
  20 C20           -3.7011    -2.1331    -0.0889 C.3     
  21 C21           -6.6960    -2.0168    -2.4122 C.ar    
  22 C22           -6.7645    -3.3342    -2.8242 C.ar    
  23 C23           -5.8324    -4.2535    -2.3509 C.ar    
  24 C24           -4.8506    -3.8378    -1.4708 C.ar    
  25 O25           -7.7378    -3.7306    -3.6873 O.3     
  26 O26           -5.8869    -5.5518    -2.7520 O.3     
  27 C27           -4.8966    -6.4362    -2.2237 C.3     
  28 C28           -8.6588    -2.7316    -4.1297 C.3     
  29 H29           -1.8985    -0.6024    -1.9841 H       
  30 H30            0.2172     0.5722    -1.9801 H       
  31 H31            1.5106     2.3018    -1.0811 H       
  32 H32            1.2494     2.8859     0.5798 H       
  33 H33            2.1725     0.7642     1.4713 H       
  34 H34            2.4338     0.1800    -0.1897 H       
  35 H35            3.6688     2.7185     0.9676 H       
  36 H36            4.8864    -0.0336     0.4575 H       
  37 H37            5.7765     1.4125     0.9911 H       
  38 H38            4.5562     0.6752     2.0566 H       
  39 H39            4.1738     1.1691    -1.6133 H       
  40 H40            3.3359     2.7346    -1.4895 H       
  41 H41            5.0639     2.6152    -1.0797 H       
  42 H42           -5.4718    -0.3369     1.0037 H       
  43 H43           -4.7078     1.1176     0.3090 H       
  44 H44           -6.7160     0.1936    -0.9865 H       
  45 H45           -5.2300     0.4355    -1.9295 H       
  46 H46           -2.7459    -2.5159    -0.4484 H       
  47 H47           -3.9185    -2.5628     0.8889 H       
  48 H48           -7.4187    -1.3032    -2.7795 H       
  49 H49           -4.1256    -4.5485    -1.1026 H       
  50 H50           -3.9054    -6.0832    -2.5081 H       
  51 H51           -4.9752    -6.4619    -1.1368 H       
  52 H52           -5.0540    -7.4381    -2.6231 H       
  53 H53           -9.1823    -2.3137    -3.2698 H       
  54 H54           -8.1156    -1.9392    -4.6446 H       
  55 H55           -9.3810    -3.1798    -4.8121 H       
@<TRIPOS>BOND
   1    1    2 am
   2    1   10 1
   3    1    6 1
   4    2    3 1
   5    2    7 2
   6    3    4 2
   7    3    8 1
   8    4    5 1
   9    4   15 1
  10    5    6 2
  11    5   29 1
  12    6   30 1
  13    8    9 3
  14   10   11 1
  15   10   31 1
  16   10   32 1
  17   11   12 1
  18   11   33 1
  19   11   34 1
  20   12   13 1
  21   12   14 1
  22   12   35 1
  23   13   36 1
  24   13   37 1
  25   13   38 1
  26   14   39 1
  27   14   40 1
  28   14   41 1
  29   15   16 1
  30   15   20 1
  31   16   17 1
  32   16   42 1
  33   16   43 1
  34   17   18 1
  35   17   44 1
  36   17   45 1
  37   18   19 ar
  38   18   21 ar
  39   19   20 1
  40   19   24 ar
  41   20   46 1
  42   20   47 1
  43   21   22 ar
  44   21   48 1
  45   22   23 ar
  46   22   25 1
  47   23   24 ar
  48   23   26 1
  49   24   49 1
  50   25   28 1
  51   26   27 1
  52   27   50 1
  53   27   51 1
  54   27   52 1
  55   28   53 1
  56   28   54 1
  57   28   55 1

#	End of record

