#	Name: ASD09100001
#	Creating user name:	WinNT
#	Creation time:	15. 06. 2019 21:20

#	Modifying user name:	WinNT
#	Modification time:	15. 06. 2019 21:20

#	Program:	/corina/corina34_cracker 3.40 0067  02.08.2006

@<TRIPOS>MOLECULE
ASD09100001
  59   62    0    0    0
SMALL
NO_CHARGES


@<TRIPOS>ATOM
   1 C1            -0.0158     1.3162     0.0093 C.ar    
   2 N2             0.0021    -0.0041     0.0020 N.ar    
   3 C3             1.1483    -0.6768    -0.0126 C.ar    
   4 N4             1.0851     2.0380     0.0026 N.ar    
   5 C5             2.2783     1.4531    -0.0119 C.ar    
   6 C6             2.3509     0.0497    -0.0202 C.ar    
   7 N7             3.6643    -0.2820    -0.0342 N.2     
   8 C8             4.3848     0.8018    -0.0350 C.2     
   9 N9             3.5758     1.8989    -0.0215 N.pl3   
  10 N10            1.1570    -2.0606    -0.0196 N.pl3   
  11 C11            4.0119     3.2975    -0.0191 C.3     
  12 O12            5.3412     3.4106    -0.5722 O.3     
  13 C13            5.8515     4.6695    -0.0818 C.3     
  14 C14            5.3797     4.7412     1.3875 C.3     
  15 C15            4.1416     3.8178     1.4297 C.3     
  16 O16            2.9774     4.5580     1.8020 O.3     
  17 O17            5.0179     6.0799     1.7325 O.3     
  18 C18            7.3798     4.6884    -0.1519 C.3     
  19 O19            7.7942     4.6645    -1.5193 O.3     
  20 P20            9.3406     4.6755    -1.9673 P.3     
  21 O21            9.4374     4.5101    -3.5658 O.3     
  22 O22           10.0161     6.0700    -1.5301 O.3     
  23 O23           10.0521     3.5557    -1.3115 O.2     
  24 P24           10.6051     4.0490    -4.5738 P.3     
  25 O25           11.8966     4.6156    -4.1249 O.2     
  26 O26           10.6996     2.4418    -4.5863 O.3     
  27 O27           10.2735     4.5786    -6.0576 O.3     
  28 C28           11.1706     4.4214    -7.1587 C.3     
  29 C29           10.5483     5.0342    -8.4150 C.3     
  30 C30           11.5499     4.9907    -9.5970 C.3     
  31 C31           10.6058     5.0224   -10.8235 C.3     
  32 C32            9.2499     4.5441   -10.2688 C.3     
  33 O33            9.4437     4.2291    -8.8797 O.3     
  34 O34           12.3148     3.7839    -9.5732 O.3     
  35 O35           11.0735     4.1312   -11.8379 O.3     
  36 O36            8.2775     5.5829   -10.4004 O.3     
  37 H37           -0.9695     1.8230     0.0165 H       
  38 H38            5.4644     0.8281    -0.0442 H       
  39 H39            0.3201    -2.5510    -0.0139 H       
  40 H40            2.0000    -2.5403    -0.0303 H       
  41 H41            3.3121     3.9133    -0.5840 H       
  42 H42            5.4343     5.4973    -0.6551 H       
  43 H43            6.1561     4.3699     2.0564 H       
  44 H44            4.3059     2.9900     2.1195 H       
  45 H45            3.0302     4.9584     2.6807 H       
  46 H46            4.7140     6.1825     2.6447 H       
  47 H47            7.7543     5.5939     0.3254 H       
  48 H48            7.7780     3.8145     0.3637 H       
  49 H49            9.5996     6.8491    -1.9233 H       
  50 H50            9.8867     2.0022    -4.8711 H       
  51 H51           12.1109     4.9256    -6.9360 H       
  52 H52           11.3578     3.3608    -7.3263 H       
  53 H53           10.2262     6.0575    -8.2223 H       
  54 H54           12.2027     5.8636    -9.5860 H       
  55 H55           10.5218     6.0364   -11.2143 H       
  56 H56            8.9214     3.6557   -10.8080 H       
  57 H57           12.9557     3.7102   -10.2935 H       
  58 H58           10.5191     4.1110   -12.6299 H       
  59 H59            7.4007     5.3451   -10.0690 H       
@<TRIPOS>BOND
   1    1    2 ar
   2    1    4 ar
   3    1   37 1
   4    2    3 ar
   5    3   10 1
   6    3    6 ar
   7    4    5 ar
   8    5    6 ar
   9    5    9 1
  10    6    7 1
  11    7    8 2
  12    8    9 1
  13    8   38 1
  14    9   11 1
  15   10   39 1
  16   10   40 1
  17   11   12 1
  18   11   15 1
  19   11   41 1
  20   12   13 1
  21   13   14 1
  22   13   18 1
  23   13   42 1
  24   14   15 1
  25   14   17 1
  26   14   43 1
  27   15   16 1
  28   15   44 1
  29   16   45 1
  30   17   46 1
  31   18   19 1
  32   18   47 1
  33   18   48 1
  34   19   20 1
  35   20   21 1
  36   20   22 1
  37   20   23 2
  38   21   24 1
  39   22   49 1
  40   24   25 2
  41   24   26 1
  42   24   27 1
  43   26   50 1
  44   27   28 1
  45   28   29 1
  46   28   51 1
  47   28   52 1
  48   29   30 1
  49   29   33 1
  50   29   53 1
  51   30   31 1
  52   30   34 1
  53   30   54 1
  54   31   32 1
  55   31   35 1
  56   31   55 1
  57   32   33 1
  58   32   36 1
  59   32   56 1
  60   34   57 1
  61   35   58 1
  62   36   59 1

#	End of record

