#	Name: ASD01028609
#	Creating user name:	WinNT
#	Creation time:	15. 06. 2019 18:57

#	Modifying user name:	WinNT
#	Modification time:	15. 06. 2019 18:57

#	Program:	/corina/corina34_cracker 3.40 0067  02.08.2006

@<TRIPOS>MOLECULE
ASD01028609
  24   25    0    0    0
SMALL
NO_CHARGES


@<TRIPOS>ATOM
   1 N1            -0.0164     1.3618     0.0095 N.pl3   
   2 N2             0.0021    -0.0041     0.0020 N.3     
   3 C3             1.1771     2.0727     0.0020 C.ar    
   4 C4             1.1475     3.4675     0.0097 C.ar    
   5 C5             2.3383     4.1669     0.0021 C.ar    
   6 C6             3.5378     3.4400    -0.0132 C.ar    
   7 C7             3.4853     2.0471    -0.0202 C.ar    
   8 N8             2.3278     1.4174    -0.0071 N.ar    
   9 O9             5.0400     5.4707    -0.0172 O.3     
  10 N10            6.2187     5.7390    -0.0270 N.2     
  11 C11            6.9616     4.6685    -0.0399 C.2     
  12 C12            6.0816     3.5676    -0.0374 C.2     
  13 C13            4.8384     4.1408    -0.0224 C.2     
  14 C14            8.4676     4.6176    -0.0551 C.3     
  15 F15            8.9793     5.9144     0.0621 F       
  16 F16            8.9188     3.8397     1.0166 F       
  17 F17            8.9030     4.0514    -1.2580 F       
  18 F18           -0.0320     4.1262     0.0241 F       
  19 H19           -0.8630     1.8353     0.0161 H       
  20 H20            0.5405    -0.3627     0.7764 H       
  21 H21           -0.9349    -0.3784     0.0090 H       
  22 H22            2.3458     5.2468     0.0075 H       
  23 H23            4.4031     1.4779    -0.0324 H       
  24 H24            6.3301     2.5166    -0.0457 H       
@<TRIPOS>BOND
   1    1    2 1
   2    1    3 1
   3    1   19 1
   4    2   20 1
   5    2   21 1
   6    3    4 ar
   7    3    8 ar
   8    4    5 ar
   9    4   18 1
  10    5    6 ar
  11    5   22 1
  12    6    7 ar
  13    6   13 1
  14    7    8 ar
  15    7   23 1
  16    9   10 1
  17    9   13 1
  18   10   11 2
  19   11   12 1
  20   11   14 1
  21   12   13 2
  22   12   24 1
  23   14   15 1
  24   14   16 1
  25   14   17 1

#	End of record

