#	Name: ASD04590400
#	Creating user name:	WinNT
#	Creation time:	15. 06. 2019 20:50

#	Modifying user name:	WinNT
#	Modification time:	15. 06. 2019 20:50

#	Program:	/corina/corina34_cracker 3.40 0067  02.08.2006

@<TRIPOS>MOLECULE
ASD04590400
  58   63    0    0    0
SMALL
NO_CHARGES


@<TRIPOS>ATOM
   1 C1             0.2555     1.4439     1.6358 C.ar    
   2 C2             0.2920     0.0605     1.7356 C.ar    
   3 C3             2.5699     0.0597     0.9792 C.ar    
   4 C4             2.5271     1.4618     0.8800 C.ar    
   5 C5             1.3653     2.1439     1.2106 C.ar    
   6 N6             3.8109    -0.3313     0.5987 N.2     
   7 C7             4.5246     0.7203     0.2766 C.2     
   8 N8             3.7748     1.8549     0.4338 N.pl3   
   9 C9             5.9272     0.6860    -0.1869 C.2     
  10 C10            6.7182    -0.4735    -0.3568 C.2     
  11 C11            7.9390    -0.0805    -0.7947 C.2     
  12 N12            7.9276     1.2745    -0.8999 N.pl3   
  13 N13            6.6592     1.7310    -0.5202 N.2     
  14 N14            6.3113    -1.7968    -0.1150 N.am    
  15 C15            7.1712    -2.8143    -0.3193 C.2     
  16 O16            8.2985    -2.5874    -0.7126 O.2     
  17 O17            6.7812    -4.0826    -0.0874 O.3     
  18 C18            1.4354    -0.6338     1.4120 C.ar    
  19 C19            8.6694    -5.2233     0.7912 C.ar    
  20 C20            7.7274    -5.0510    -0.2082 C.ar    
  21 C21            7.7452    -5.8639    -1.3329 C.ar    
  22 C22            8.7114    -6.8454    -1.4538 C.ar    
  23 C23            9.6515    -7.0142    -0.4607 C.ar    
  24 C24            9.6409    -6.2132     0.6745 C.ar    
  25 C25           -0.9300    -0.6877     2.2024 C.3     
  26 N26           -1.7628    -1.0368     1.0437 N.3     
  27 C27           -2.8354    -1.9663     1.4268 C.3     
  28 C28           -3.7125    -2.2560     0.2058 C.3     
  29 O29           -2.8971    -2.7750    -0.8483 O.3     
  30 C30           -1.8426    -1.8950    -1.2469 C.3     
  31 C31           -0.9465    -1.6017    -0.0407 C.3     
  32 C32           10.8203    -7.9702    -0.3187 C.3     
  33 C33           11.6354    -7.3127     0.8200 C.3     
  34 O34           10.6375    -6.5629     1.5336 O.3     
  35 H35           -0.6497     1.9760     1.8886 H       
  36 H36            1.3297     3.2206     1.1350 H       
  37 H37            4.0650     2.7648     0.2641 H       
  38 H38            8.7728    -0.7289    -1.0200 H       
  39 H39            8.6684     1.8289    -1.1910 H       
  40 H40            5.4115    -1.9778     0.1990 H       
  41 H41            1.4564    -1.7106     1.4925 H       
  42 H42            8.6532    -4.5848     1.6621 H       
  43 H43            7.0074    -5.7305    -2.1102 H       
  44 H44            8.7290    -7.4805    -2.3271 H       
  45 H45           -0.6238    -1.5983     2.7173 H       
  46 H46           -1.5021    -0.0592     2.8849 H       
  47 H47           -2.3985    -2.8965     1.7900 H       
  48 H48           -3.4426    -1.5174     2.2128 H       
  49 H49           -4.4747    -2.9887     0.4708 H       
  50 H50           -4.1919    -1.3345    -0.1248 H       
  51 H51           -1.2524    -2.3667    -2.0326 H       
  52 H52           -2.2675    -0.9631    -1.6198 H       
  53 H53           -0.1749    -0.8866    -0.3258 H       
  54 H54           -0.4794    -2.5261     0.2991 H       
  55 H55           10.4779    -8.9637    -0.0291 H       
  56 H56           11.4022    -8.0134    -1.2393 H       
  57 H57           12.0817    -8.0712     1.4632 H       
  58 H58           12.4000    -6.6500     0.4147 H       
@<TRIPOS>BOND
   1    1    2 ar
   2    1    5 ar
   3    1   35 1
   4    2   18 ar
   5    2   25 1
   6    3    4 ar
   7    3    6 1
   8    3   18 ar
   9    4    5 ar
  10    4    8 1
  11    5   36 1
  12    6    7 2
  13    7    8 1
  14    7    9 1
  15    8   37 1
  16    9   10 1
  17    9   13 2
  18   10   11 2
  19   10   14 1
  20   11   12 1
  21   11   38 1
  22   12   13 1
  23   12   39 1
  24   14   15 am
  25   14   40 1
  26   15   16 2
  27   15   17 1
  28   17   20 1
  29   18   41 1
  30   19   20 ar
  31   19   24 ar
  32   19   42 1
  33   20   21 ar
  34   21   22 ar
  35   21   43 1
  36   22   23 ar
  37   22   44 1
  38   23   24 ar
  39   23   32 1
  40   24   34 1
  41   25   26 1
  42   25   45 1
  43   25   46 1
  44   26   27 1
  45   26   31 1
  46   27   28 1
  47   27   47 1
  48   27   48 1
  49   28   29 1
  50   28   49 1
  51   28   50 1
  52   29   30 1
  53   30   31 1
  54   30   51 1
  55   30   52 1
  56   31   53 1
  57   31   54 1
  58   32   33 1
  59   32   55 1
  60   32   56 1
  61   33   34 1
  62   33   57 1
  63   33   58 1

#	End of record

