#	Name: ASD00071120
#	Creating user name:	WinNT
#	Creation time:	15. 06. 2019 18:30

#	Modifying user name:	WinNT
#	Modification time:	15. 06. 2019 18:30

#	Program:	/corina/corina34_cracker 3.40 0067  02.08.2006

@<TRIPOS>MOLECULE
ASD00071120
  56   60    0    0    0
SMALL
NO_CHARGES


@<TRIPOS>ATOM
   1 N1            -0.0157     1.3065     0.0092 N.2     
   2 C2             0.0021    -0.0041     0.0020 C.2     
   3 N3             1.1984    -0.6822     0.0317 N.pl3   
   4 C4             2.3732    -0.0684    -0.6058 C.3     
   5 C5             2.3601     1.4066    -0.2838 C.ar    
   6 C6             3.5306     2.1320    -0.2741 C.ar    
   7 C7             3.5023     3.4864     0.0113 C.ar    
   8 C8             2.3010     4.1157     0.2867 C.ar    
   9 C9             1.1230     3.3980     0.2846 C.ar    
  10 C10            1.1441     2.0306     0.0020 C.ar    
  11 N11           -1.1783    -0.7029    -0.0348 N.pl3   
  12 C12           -2.4545     0.0160    -0.0660 C.3     
  13 C13           -3.5887    -0.9755    -0.1033 C.ar    
  14 C14           -4.2060    -1.2649    -1.2815 C.ar    
  15 C15           -5.2563    -2.1788    -1.3356 C.ar    
  16 C16           -5.6955    -2.8092    -0.2118 C.ar    
  17 C17           -5.0827    -2.5364     1.0228 C.ar    
  18 C18           -5.5087    -3.1670     2.2044 C.ar    
  19 C19           -4.8914    -2.8776     3.3822 C.ar    
  20 C20           -3.8409    -1.9632     3.4363 C.ar    
  21 C21           -3.4019    -1.3330     2.3129 C.ar    
  22 C22           -4.0109    -1.6103     1.0769 C.ar    
  23 C23            1.3004    -1.9893     0.6854 C.3     
  24 C24            1.0037    -3.0761    -0.3155 C.ar    
  25 C25            1.9845    -3.4848    -1.2078 C.ar    
  26 C26            1.7083    -4.4854    -2.1279 C.ar    
  27 C27            0.4578    -5.0725    -2.1538 C.ar    
  28 C28           -0.5178    -4.6632    -1.2640 C.ar    
  29 C29           -0.2430    -3.6701    -0.3416 C.ar    
  30 O30            3.2135    -2.9055    -1.1807 O.3     
  31 C31            4.1738    -3.3764    -2.1285 C.3     
  32 H32            3.2838    -0.5228    -0.2154 H       
  33 H33            2.3231    -0.2105    -1.6853 H       
  34 H34            4.4702     1.6446    -0.4885 H       
  35 H35            4.4211     4.0539     0.0193 H       
  36 H36            2.2857     5.1734     0.5045 H       
  37 H37            0.1873     3.8920     0.5009 H       
  38 H38           -1.1678    -1.6728    -0.0402 H       
  39 H39           -2.5437     0.6368     0.8255 H       
  40 H40           -2.4943     0.6472    -0.9537 H       
  41 H41           -3.8769    -0.7786    -2.1879 H       
  42 H42           -5.7294    -2.3900    -2.2832 H       
  43 H43           -6.5110    -3.5150    -0.2688 H       
  44 H44           -6.3219    -3.8772     2.1778 H       
  45 H45           -5.2207    -3.3636     4.2887 H       
  46 H46           -3.3685    -1.7513     4.3841 H       
  47 H47           -2.5873    -0.6262     2.3702 H       
  48 H48            2.3088    -2.1217     1.0774 H       
  49 H49            0.5825    -2.0432     1.5038 H       
  50 H50            2.4699    -4.8051    -2.8238 H       
  51 H51            0.2422    -5.8516    -2.8700 H       
  52 H52           -1.4949    -5.1228    -1.2863 H       
  53 H53           -1.0053    -3.3554     0.3556 H       
  54 H54            5.1091    -2.8319    -1.9991 H       
  55 H55            4.3481    -4.4407    -1.9709 H       
  56 H56            3.7964    -3.2156    -3.1384 H       
@<TRIPOS>BOND
   1    1    2 2
   2    1   10 1
   3    2    3 1
   4    2   11 1
   5    3    4 1
   6    3   23 1
   7    4    5 1
   8    4   32 1
   9    4   33 1
  10    5    6 ar
  11    5   10 ar
  12    6    7 ar
  13    6   34 1
  14    7    8 ar
  15    7   35 1
  16    8    9 ar
  17    8   36 1
  18    9   10 ar
  19    9   37 1
  20   11   12 1
  21   11   38 1
  22   12   13 1
  23   12   39 1
  24   12   40 1
  25   13   14 ar
  26   13   22 ar
  27   14   15 ar
  28   14   41 1
  29   15   16 ar
  30   15   42 1
  31   16   17 ar
  32   16   43 1
  33   17   18 ar
  34   17   22 ar
  35   18   19 ar
  36   18   44 1
  37   19   20 ar
  38   19   45 1
  39   20   21 ar
  40   20   46 1
  41   21   22 ar
  42   21   47 1
  43   23   24 1
  44   23   48 1
  45   23   49 1
  46   24   25 ar
  47   24   29 ar
  48   25   26 ar
  49   25   30 1
  50   26   27 ar
  51   26   50 1
  52   27   28 ar
  53   27   51 1
  54   28   29 ar
  55   28   52 1
  56   29   53 1
  57   30   31 1
  58   31   54 1
  59   31   55 1
  60   31   56 1

#	End of record

