#	Name: ASD01900657
#	Creating user name:	WinNT
#	Creation time:	15. 06. 2019 19:52

#	Modifying user name:	WinNT
#	Modification time:	15. 06. 2019 19:52

#	Program:	/corina/corina34_cracker 3.40 0067  02.08.2006

@<TRIPOS>MOLECULE
ASD01900657
  35   38    0    0    0
SMALL
NO_CHARGES


@<TRIPOS>ATOM
   1 C1            -0.0160     1.4188    -0.1154 C.ar    
   2 C2             0.0118     0.0198    -0.1193 C.ar    
   3 C3            -1.1581    -0.7030    -0.0670 C.ar    
   4 C4            -2.3839    -0.0477    -0.0097 C.ar    
   5 C5            -2.4144     1.3556    -0.0101 C.ar    
   6 O6            -3.5332    -0.7520     0.0531 O.3     
   7 C7            -4.7267    -0.1829    -0.1875 C.2     
   8 C8            -4.9101     1.1583    -0.2040 C.2     
   9 C9            -3.7404     2.0242     0.0380 C.2     
  10 C10           -5.8877    -1.0580    -0.4455 C.ar    
  11 N11           -7.0810    -0.5074    -0.6864 N.ar    
  12 C12           -8.1534    -1.2208    -0.9230 C.ar    
  13 C13           -8.0825    -2.6250    -0.9316 C.ar    
  14 C14           -6.8321    -3.2498    -0.6800 C.ar    
  15 C15           -5.7154    -2.4334    -0.4381 C.ar    
  16 C16           -9.2100    -3.4218    -1.1806 C.ar    
  17 C17           -9.0884    -4.7788    -1.1774 C.ar    
  18 C18           -7.8612    -5.3911    -0.9305 C.ar    
  19 C19           -6.7446    -4.6505    -0.6846 C.ar    
  20 C20           -1.2397     2.0881    -0.0547 C.ar    
  21 C21            1.2071     2.1616    -0.1674 C.1     
  22 N22            2.1775     2.7509    -0.2087 N.1     
  23 N23           -3.8635     3.3062     0.2805 N.2     
  24 O24           -2.7297     4.0685     0.6526 O.3     
  25 H25            0.9591    -0.4969    -0.1640 H       
  26 H26           -1.1245    -1.7825    -0.0708 H       
  27 H27           -5.8858     1.5827    -0.3892 H       
  28 H28           -9.0960    -0.7286    -1.1120 H       
  29 H29           -4.7461    -2.8675    -0.2424 H       
  30 H30          -10.1683    -2.9625    -1.3733 H       
  31 H31           -9.9578    -5.3902    -1.3690 H       
  32 H32           -7.7943    -6.4691    -0.9342 H       
  33 H33           -5.7994    -5.1373    -0.4952 H       
  34 H34           -1.2705     3.1676    -0.0513 H       
  35 H35           -2.9190     5.0035     0.8107 H       
@<TRIPOS>BOND
   1    1    2 ar
   2    1   21 1
   3    1   20 ar
   4    2    3 ar
   5    2   25 1
   6    3    4 ar
   7    3   26 1
   8    4    5 ar
   9    4    6 1
  10    5   20 ar
  11    5    9 1
  12    6    7 1
  13    7    8 2
  14    7   10 1
  15    8    9 1
  16    8   27 1
  17    9   23 2
  18   10   11 ar
  19   10   15 ar
  20   11   12 ar
  21   12   13 ar
  22   12   28 1
  23   13   14 ar
  24   13   16 ar
  25   14   15 ar
  26   14   19 ar
  27   15   29 1
  28   16   17 ar
  29   16   30 1
  30   17   18 ar
  31   17   31 1
  32   18   19 ar
  33   18   32 1
  34   19   33 1
  35   20   34 1
  36   21   22 3
  37   23   24 1
  38   24   35 1

#	End of record

