#	Name: ASD01180246
#	Creating user name:	WinNT
#	Creation time:	15. 06. 2019 19:07

#	Modifying user name:	WinNT
#	Modification time:	15. 06. 2019 19:07

#	Program:	/corina/corina34_cracker 3.40 0067  02.08.2006

@<TRIPOS>MOLECULE
ASD01180246
  66   69    0    0    0
SMALL
NO_CHARGES


@<TRIPOS>ATOM
   1 C1            -2.2411    -1.9865     6.1492 C.2     
   2 C2            -1.8232    -2.8724     5.0039 C.3     
   3 C3            -0.4531    -3.4832     5.3051 C.3     
   4 O4            -1.5173    -1.8569     7.1080 O.2     
   5 O5            -3.4148    -1.3370     6.1017 O.3     
   6 C6             1.1341    -4.9921     4.2370 C.2     
   7 C7             1.5432    -5.8594     3.1157 C.ar    
   8 C8             2.7708    -6.5386     3.1524 C.ar    
   9 C9             3.1097    -7.3324     2.0903 C.ar    
  10 C10            2.2334    -7.4427     1.0118 C.ar    
  11 N11            1.0794    -6.7897     1.0021 N.ar    
  12 C12            0.7123    -6.0207     2.0060 C.ar    
  13 O13            1.8624    -4.8617     5.2018 O.2     
  14 N14           -0.0470    -4.3444     4.1918 N.am    
  15 N15            2.5730    -8.2448    -0.0644 N.pl3   
  16 C16            3.8965    -8.8703    -0.1230 C.3     
  17 C17            3.8201   -12.5709     2.0168 C.ar    
  18 C18            4.9272   -11.7303     2.1130 C.ar    
  19 C19            4.9464   -10.5367     1.4203 C.ar    
  20 C20            3.8695   -10.1746     0.6314 C.ar    
  21 C21            2.7677   -11.0051     0.5326 C.ar    
  22 C22            2.7379   -12.2010     1.2210 C.ar    
  23 C23            3.7963   -13.8583     2.7544 C.ar    
  24 C24            2.6892   -14.6989     2.6582 C.ar    
  25 C25            2.6724   -15.8952     3.3464 C.ar    
  26 C26            3.7517   -16.2599     4.1309 C.ar    
  27 C27            4.8531   -15.4291     4.2303 C.ar    
  28 C28            4.8834   -14.2336     3.5412 C.ar    
  29 C29            3.7273   -17.5671     4.8804 C.3     
  30 F30            4.2686   -18.5759     4.0763 F       
  31 F31            4.4839   -17.4476     6.0511 F       
  32 F32            2.4068   -17.8913     5.2096 F       
  33 C33            4.6840    -8.0769    -3.8064 C.3     
  34 C34            4.2309    -7.8180    -2.3671 C.3     
  35 C35            4.2722    -9.1330    -1.5827 C.3     
  36 C36            5.6890    -9.7113    -1.6510 C.3     
  37 C37            6.0857    -9.8971    -3.1179 C.3     
  38 O38            5.9962    -8.6428    -3.7968 O.3     
  39 H39           -2.5558    -3.6692     4.8749 H       
  40 H40           -1.7645    -2.2813     4.0900 H       
  41 H41            0.2794    -2.6864     5.4342 H       
  42 H42           -0.5118    -4.0743     6.2190 H       
  43 H43           -3.6396    -0.7805     6.8599 H       
  44 H44            3.4332    -6.4369     3.9993 H       
  45 H45            4.0475    -7.8681     2.0876 H       
  46 H46           -0.2370    -5.5071     1.9683 H       
  47 H47           -0.6280    -4.4484     3.4221 H       
  48 H48            1.9346    -8.3926    -0.7796 H       
  49 H49            4.6330    -8.2051     0.3277 H       
  50 H50            5.7685   -12.0121     2.7287 H       
  51 H51            5.8040    -9.8844     1.4941 H       
  52 H52            1.9294   -10.7173    -0.0845 H       
  53 H53            1.8774   -12.8490     1.1426 H       
  54 H54            1.8457   -14.4148     2.0466 H       
  55 H55            1.8149   -16.5475     3.2726 H       
  56 H56            5.6930   -15.7185     4.8445 H       
  57 H57            5.7460   -13.5880     3.6154 H       
  58 H58            3.9928    -8.7700    -4.2859 H       
  59 H59            4.6976    -7.1369    -4.3579 H       
  60 H60            4.8984    -7.0940    -1.8998 H       
  61 H61            3.2133    -7.4275    -2.3703 H       
  62 H62            3.5669    -9.8402    -2.0191 H       
  63 H63            6.3859    -9.0256    -1.1692 H       
  64 H64            5.7141   -10.6748    -1.1420 H       
  65 H65            7.1091   -10.2683    -3.1735 H       
  66 H66            5.4128   -10.6140    -3.5885 H       
@<TRIPOS>BOND
   1    1    2 1
   2    1    4 2
   3    1    5 1
   4    2    3 1
   5    2   39 1
   6    2   40 1
   7    3   14 1
   8    3   41 1
   9    3   42 1
  10    5   43 1
  11    6    7 1
  12    6   13 2
  13    6   14 am
  14    7    8 ar
  15    7   12 ar
  16    8    9 ar
  17    8   44 1
  18    9   10 ar
  19    9   45 1
  20   10   11 ar
  21   10   15 1
  22   11   12 ar
  23   12   46 1
  24   14   47 1
  25   15   16 1
  26   15   48 1
  27   16   20 1
  28   16   35 1
  29   16   49 1
  30   17   18 ar
  31   17   22 ar
  32   17   23 1
  33   18   19 ar
  34   18   50 1
  35   19   20 ar
  36   19   51 1
  37   20   21 ar
  38   21   22 ar
  39   21   52 1
  40   22   53 1
  41   23   24 ar
  42   23   28 ar
  43   24   25 ar
  44   24   54 1
  45   25   26 ar
  46   25   55 1
  47   26   27 ar
  48   26   29 1
  49   27   28 ar
  50   27   56 1
  51   28   57 1
  52   29   30 1
  53   29   31 1
  54   29   32 1
  55   33   34 1
  56   33   38 1
  57   33   58 1
  58   33   59 1
  59   34   35 1
  60   34   60 1
  61   34   61 1
  62   35   36 1
  63   35   62 1
  64   36   37 1
  65   36   63 1
  66   36   64 1
  67   37   38 1
  68   37   65 1
  69   37   66 1

#	End of record

