#	Name: ASD01916510
#	Creating user name:	WinNT
#	Creation time:	15. 06. 2019 20:07

#	Modifying user name:	WinNT
#	Modification time:	15. 06. 2019 20:07

#	Program:	/corina/corina34_cracker 3.40 0067  02.08.2006

@<TRIPOS>MOLECULE
ASD01916510
  21   21    0    0    0
SMALL
NO_CHARGES


@<TRIPOS>ATOM
   1 C1            -0.0184     1.5028     0.0103 C.2     
   2 C2             0.0021    -0.0041     0.0020 C.3     
   3 N3             1.0915     2.1639     0.0033 N.2     
   4 N4            -1.2203     2.1751     0.0197 N.pl3   
   5 O5             1.0723     3.5797     0.0110 O.3     
   6 C6             1.4295    -0.4870    -0.0142 C.ar    
   7 C7             2.0952    -0.7148     1.1758 C.ar    
   8 C8             3.4040    -1.1581     1.1622 C.ar    
   9 C9             4.0487    -1.3741    -0.0440 C.ar    
  10 C10            3.3810    -1.1457    -1.2352 C.ar    
  11 C11            2.0704    -0.7074    -1.2191 C.ar    
  12 F12            5.3284    -1.8071    -0.0585 F       
  13 H13           -0.4983    -0.3791     0.8948 H       
  14 H14           -0.5153    -0.3696    -0.8850 H       
  15 H15           -2.0537     1.6787     0.0209 H       
  16 H16           -1.2334     3.1450     0.0250 H       
  17 H17            1.9502     3.9850     0.0048 H       
  18 H18            1.5922    -0.5459     2.1165 H       
  19 H19            3.9240    -1.3356     2.0920 H       
  20 H20            3.8828    -1.3138    -2.1767 H       
  21 H21            1.5481    -0.5330    -2.1482 H       
@<TRIPOS>BOND
   1    1    2 1
   2    1    3 2
   3    1    4 1
   4    2    6 1
   5    2   13 1
   6    2   14 1
   7    3    5 1
   8    4   15 1
   9    4   16 1
  10    5   17 1
  11    6    7 ar
  12    6   11 ar
  13    7    8 ar
  14    7   18 1
  15    8    9 ar
  16    8   19 1
  17    9   10 ar
  18    9   12 1
  19   10   11 ar
  20   10   20 1
  21   11   21 1

#	End of record

