#	Name: ASD03330871
#	Creating user name:	WinNT
#	Creation time:	15. 06. 2019 20:38

#	Modifying user name:	WinNT
#	Modification time:	15. 06. 2019 20:38

#	Program:	/corina/corina34_cracker 3.40 0067  02.08.2006

@<TRIPOS>MOLECULE
ASD03330871
  60   62    0    0    0
SMALL
NO_CHARGES


@<TRIPOS>ATOM
   1 N1            -0.0653     0.9552    -0.2641 N.pl3   
   2 C2            -0.2105    -0.3626     0.0376 C.2     
   3 C3             0.8941    -1.2904     0.4717 C.3     
   4 N4             1.6882    -0.6360     1.5232 N.3     
   5 C5             2.7782     0.1554     0.9495 C.3     
   6 C6             2.3656     0.7641    -0.3876 C.3     
   7 C7             1.1845     1.7163    -0.1814 C.3     
   8 C8            -1.2898     1.4255    -0.6404 C.2     
   9 N9            -2.1585     0.4453    -0.5574 N.2     
  10 C10           -1.5246    -0.6721    -0.1388 C.2     
  11 C11           -2.1446    -1.9898     0.0864 C.2     
  12 O12           -1.4653    -2.9246     0.4658 O.2     
  13 N13           -3.4644    -2.1591    -0.1280 N.am    
  14 C14            2.2020    -1.6208     2.4846 C.3     
  15 C15           -5.3233    -3.5906    -0.7481 C.2     
  16 C16           -4.0807    -3.4692     0.0959 C.3     
  17 C17           -4.4516    -3.6125     1.5733 C.3     
  18 C18           -5.4863    -2.5484     1.9449 C.3     
  19 O19           -5.9401    -2.5958    -1.0658 O.2     
  20 N20           -5.7492    -4.8046    -1.1497 N.am    
  21 C21           -7.0145    -4.9333    -1.8768 C.3     
  22 C22           -5.0397    -5.0034     1.8189 C.3     
  23 C23           -3.1997    -3.4289     2.4335 C.3     
  24 C24           -1.5882     2.8091    -1.0695 C.ar    
  25 C25           -2.3547     3.0375    -2.2140 C.ar    
  26 C26           -2.6306     4.3304    -2.6108 C.ar    
  27 C27           -2.1486     5.4011    -1.8759 C.ar    
  28 C28           -1.3862     5.1803    -0.7375 C.ar    
  29 C29           -1.1094     3.8902    -0.3289 C.ar    
  30 F30           -0.9188     6.2285    -0.0247 F       
  31 F31           -2.4213     6.6646    -2.2689 F       
  32 Br32          -3.0134     1.5776    -3.2194 Br      
  33 H33            0.4632    -2.2127     0.8613 H       
  34 H34            1.5347    -1.5178    -0.3803 H       
  35 H35            3.0422     0.9556     1.6410 H       
  36 H36            3.6458    -0.4868     0.7982 H       
  37 H37            3.2060     1.3153    -0.8096 H       
  38 H38            2.0743    -0.0314    -1.0735 H       
  39 H39            1.1957     2.4838    -0.9553 H       
  40 H40            1.2614     2.1852     0.7995 H       
  41 H41           -4.0061    -1.4136    -0.4307 H       
  42 H42            2.7776    -2.3797     1.9547 H       
  43 H43            2.8426    -1.1199     3.2104 H       
  44 H44            1.3671    -2.0934     3.0019 H       
  45 H45           -3.3762    -4.2540    -0.1797 H       
  46 H46           -6.3781    -2.6792     1.3320 H       
  47 H47           -5.7505    -2.6505     2.9974 H       
  48 H48           -5.0673    -1.5575     1.7699 H       
  49 H49           -5.2179    -5.5930    -0.9574 H       
  50 H50           -7.8295    -4.5603    -1.2566 H       
  51 H51           -6.9645    -4.3536    -2.7985 H       
  52 H52           -7.1908    -5.9820    -2.1163 H       
  53 H53           -4.2819    -5.7596     1.6139 H       
  54 H54           -5.3616    -5.0836     2.8572 H       
  55 H55           -5.8946    -5.1579     1.1605 H       
  56 H56           -2.7808    -2.4380     2.2586 H       
  57 H57           -3.4640    -3.5310     3.4861 H       
  58 H58           -2.4626    -4.1870     2.1688 H       
  59 H59           -3.2232     4.5076    -3.4961 H       
  60 H60           -0.5198     3.7188     0.5595 H       
@<TRIPOS>BOND
   1    1    2 1
   2    1    7 1
   3    1    8 1
   4    2    3 1
   5    2   10 2
   6    3    4 1
   7    3   33 1
   8    3   34 1
   9    4    5 1
  10    4   14 1
  11    5    6 1
  12    5   35 1
  13    5   36 1
  14    6    7 1
  15    6   37 1
  16    6   38 1
  17    7   39 1
  18    7   40 1
  19    8    9 2
  20    8   24 1
  21    9   10 1
  22   10   11 1
  23   11   12 2
  24   11   13 am
  25   13   16 1
  26   13   41 1
  27   14   42 1
  28   14   43 1
  29   14   44 1
  30   15   19 2
  31   15   20 am
  32   15   16 1
  33   16   17 1
  34   16   45 1
  35   17   18 1
  36   17   22 1
  37   17   23 1
  38   18   46 1
  39   18   47 1
  40   18   48 1
  41   20   21 1
  42   20   49 1
  43   21   50 1
  44   21   51 1
  45   21   52 1
  46   22   53 1
  47   22   54 1
  48   22   55 1
  49   23   56 1
  50   23   57 1
  51   23   58 1
  52   24   25 ar
  53   24   29 ar
  54   25   26 ar
  55   25   32 1
  56   26   27 ar
  57   26   59 1
  58   27   28 ar
  59   27   31 1
  60   28   29 ar
  61   28   30 1
  62   29   60 1

#	End of record

