#	Name: ASD01814705
#	Creating user name:	WinNT
#	Creation time:	15. 06. 2019 19:32

#	Modifying user name:	WinNT
#	Modification time:	15. 06. 2019 19:32

#	Program:	/corina/corina34_cracker 3.40 0067  02.08.2006

@<TRIPOS>MOLECULE
ASD01814705
  51   55    0    0    0
SMALL
NO_CHARGES


@<TRIPOS>ATOM
   1 O1            -0.7487     1.7989     1.2413 O.3     
   2 C2            -0.7023     0.3725     1.3148 C.3     
   3 H3            -0.0343    -0.0104     0.5433 H       
   4 C4            -0.1887    -0.0523     2.6931 C.3     
   5 O5            -0.1980    -1.4784     2.7846 O.3     
   6 C6            -1.4940    -2.0637     2.6433 C.3     
   7 C7            -2.0600    -1.7197     1.2630 C.3     
   8 C8            -2.1084    -0.1969     1.1033 C.3     
   9 H9            -2.7879     0.2251     1.8438 H       
  10 N10           -2.5767     0.1412    -0.2431 N.am    
  11 C11           -1.8819    -0.2940    -1.3264 C.2     
  12 N12           -2.2317    -0.0369    -2.5501 N.2     
  13 C13           -3.3361     0.6985    -2.8340 C.ar    
  14 C14           -3.7100     0.9732    -4.1533 C.ar    
  15 C15           -3.0623     0.5715    -5.4612 C.3     
  16 C16           -4.1515     0.7864    -6.5333 C.3     
  17 C17           -5.0294     1.8829    -5.8943 C.3     
  18 C18           -4.8378     1.7241    -4.3998 C.ar    
  19 C19           -5.6068     2.2093    -3.3452 C.ar    
  20 C20           -6.8375     3.0284    -3.6380 C.3     
  21 C21           -6.4474     4.4720    -3.8249 C.ar    
  22 C22           -6.2935     5.3051    -2.7271 C.ar    
  23 C23           -5.9333     6.6255    -2.9459 C.ar    
  24 C24           -5.7407     7.0654    -4.2435 C.ar    
  25 Cl25          -5.2888     8.7165    -4.5319 Cl      
  26 N26           -5.8962     6.2435    -5.2643 N.ar    
  27 C27           -6.2330     4.9802    -5.0919 C.ar    
  28 C28           -5.2586     1.9507    -2.0390 C.ar    
  29 C29           -4.1208     1.1938    -1.7702 C.ar    
  30 C30           -3.7006     0.8798    -0.3964 C.2     
  31 O31           -4.3361     1.2718     0.5649 O.2     
  32 H32            0.1088     2.2274     1.3685 H       
  33 H33            0.8285     0.3142     2.8308 H       
  34 H34           -0.8336     0.3658     3.4660 H       
  35 H35           -1.4170    -3.1462     2.7451 H       
  36 H36           -2.1560    -1.6719     3.4156 H       
  37 H37           -1.4201    -2.1458     0.4904 H       
  38 H38           -3.0663    -2.1279     1.1699 H       
  39 H39           -0.9926    -0.8841    -1.1613 H       
  40 H40           -2.1994     1.2051    -5.6663 H       
  41 H41           -2.7641    -0.4764    -5.4295 H       
  42 H42           -3.7124     1.1365    -7.4675 H       
  43 H43           -4.7254    -0.1267    -6.6915 H       
  44 H44           -4.6956     2.8696    -6.2155 H       
  45 H45           -6.0758     1.7319    -6.1595 H       
  46 H46           -7.3115     2.6595    -4.5476 H       
  47 H47           -7.5357     2.9456    -2.8052 H       
  48 H48           -6.4509     4.9339    -1.7252 H       
  49 H49           -5.8051     7.3025    -2.1143 H       
  50 H50           -6.3470     4.3362    -5.9515 H       
  51 H51           -5.8624     2.3323    -1.2290 H       
@<TRIPOS>BOND
   1    1    2 1
   2    1   32 1
   3    2    3 1
   4    2    8 1
   5    2    4 1
   6    4    5 1
   7    4   33 1
   8    4   34 1
   9    5    6 1
  10    6    7 1
  11    6   35 1
  12    6   36 1
  13    7    8 1
  14    7   37 1
  15    7   38 1
  16    8    9 1
  17    8   10 1
  18   10   30 am
  19   10   11 1
  20   11   12 2
  21   11   39 1
  22   12   13 1
  23   13   29 ar
  24   13   14 ar
  25   14   18 ar
  26   14   15 1
  27   15   16 1
  28   15   40 1
  29   15   41 1
  30   16   17 1
  31   16   42 1
  32   16   43 1
  33   17   18 1
  34   17   44 1
  35   17   45 1
  36   18   19 ar
  37   19   20 1
  38   19   28 ar
  39   20   21 1
  40   20   46 1
  41   20   47 1
  42   21   27 ar
  43   21   22 ar
  44   22   23 ar
  45   22   48 1
  46   23   24 ar
  47   23   49 1
  48   24   25 1
  49   24   26 ar
  50   26   27 ar
  51   27   50 1
  52   28   29 ar
  53   28   51 1
  54   29   30 1
  55   30   31 2

#	End of record

