#	Name: ASD04220032
#	Creating user name:	WinNT
#	Creation time:	15. 06. 2019 20:48

#	Modifying user name:	WinNT
#	Modification time:	15. 06. 2019 20:48

#	Program:	/corina/corina34_cracker 3.40 0067  02.08.2006

@<TRIPOS>MOLECULE
ASD04220032
  57   59    0    0    0
SMALL
NO_CHARGES


@<TRIPOS>ATOM
   1 C1             1.0985     0.5377    -0.1389 C.3     
   2 N2             1.5893    -0.8402    -0.2475 N.am    
   3 C3             2.4435    -1.1637    -1.4024 C.3     
   4 C4             3.7300    -0.3493    -1.2767 C.3     
   5 C5             3.4242     1.0917    -0.9621 C.ar    
   6 C6             4.4159     2.0305    -1.2233 C.ar    
   7 C7             4.2072     3.3693    -0.9508 C.ar    
   8 C8             2.9928     3.7810    -0.4090 C.ar    
   9 C9             2.0075     2.8453    -0.1539 C.ar    
  10 C10            2.2208     1.5016    -0.4331 C.ar    
  11 C11            2.7690    -2.6351    -1.3997 C.2     
  12 O12            2.2365    -3.3788    -2.2058 O.co2   
  13 O13            3.5650    -3.0819    -0.5914 O.co2   
  14 C14            1.2717    -1.7723     0.6727 C.2     
  15 C15            0.4596    -1.3900     1.8833 C.3     
  16 C16            0.2410    -2.6238     2.7612 C.3     
  17 O17            1.6394    -2.9188     0.5266 O.2     
  18 C18           -0.5710    -2.2415     3.9718 C.ar    
  19 C19           -1.9559    -2.2134     3.8973 C.ar    
  20 C20           -2.7032    -1.8620     5.0114 C.ar    
  21 C21           -2.0684    -1.5404     6.1956 C.ar    
  22 C22           -0.6840    -1.5689     6.2701 C.ar    
  23 C23            0.0634    -1.9246     5.1569 C.ar    
  24 O24            5.1835     4.2797    -1.2102 O.3     
  25 S25            6.2035     4.4298    -0.0906 S.o2    
  26 O26            6.9790     5.6242    -0.3869 O.co2   
  27 O27            5.4510     4.5607     1.1475 O.co2   
  28 O28            7.0236     3.2284    -0.1065 O.co2   
  29 O29           -0.0592    -1.2524     7.4357 O.3     
  30 S30            0.1769    -2.4425     8.3546 S.o2    
  31 O31            0.5057    -1.9022     9.6646 O.co2   
  32 O32           -1.0596    -3.2085     8.3748 O.co2   
  33 O33            1.2795    -3.2006     7.7842 O.co2   
  34 O34           -2.5807    -2.5299     2.7317 O.3     
  35 S35           -2.9131    -4.0083     2.5892 S.o2    
  36 O36           -3.2306    -4.2336     1.1876 O.co2   
  37 O37           -1.7310    -4.7462     3.0066 O.co2   
  38 O38           -4.0525    -4.2675     3.4556 O.co2   
  39 O39            2.7772     5.0949    -0.1321 O.3     
  40 S40            2.0456     5.8479    -1.2340 S.o2    
  41 O41            2.2354     7.2658    -0.9705 O.co2   
  42 O42            2.6502     5.4408    -2.4929 O.co2   
  43 O43            0.6463     5.4595    -1.1497 O.co2   
  44 H44            0.2907     0.6924    -0.8542 H       
  45 H45            0.7263     0.7117     0.8707 H       
  46 H46            1.9292    -0.9007    -2.3267 H       
  47 H47            4.3429    -0.7682    -0.4786 H       
  48 H48            4.2808    -0.4020    -2.2159 H       
  49 H49            5.3582     1.7106    -1.6427 H       
  50 H50            1.0642     3.1619     0.2659 H       
  51 H51            0.9927    -0.6287     2.4527 H       
  52 H52           -0.5051    -0.9958     1.5639 H       
  53 H53           -0.2921    -3.3851     2.1917 H       
  54 H54            1.2057    -3.0180     3.0806 H       
  55 H55           -3.7814    -1.8394     4.9533 H       
  56 H56           -2.6504    -1.2664     7.0631 H       
  57 H57            1.1414    -1.9508     5.2161 H       
@<TRIPOS>BOND
   1    1    2 1
   2    1   10 1
   3    1   44 1
   4    1   45 1
   5    2    3 1
   6    2   14 am
   7    3    4 1
   8    3   11 1
   9    3   46 1
  10    4    5 1
  11    4   47 1
  12    4   48 1
  13    5    6 ar
  14    5   10 ar
  15    6    7 ar
  16    6   49 1
  17    7    8 ar
  18    7   24 1
  19    8    9 ar
  20    8   39 1
  21    9   10 ar
  22    9   50 1
  23   11   12 ar
  24   11   13 ar
  25   14   15 1
  26   14   17 2
  27   15   16 1
  28   15   51 1
  29   15   52 1
  30   16   18 1
  31   16   53 1
  32   16   54 1
  33   18   19 ar
  34   18   23 ar
  35   19   20 ar
  36   19   34 1
  37   20   21 ar
  38   20   55 1
  39   21   22 ar
  40   21   56 1
  41   22   23 ar
  42   22   29 1
  43   23   57 1
  44   24   25 1
  45   25   26 ar
  46   25   27 ar
  47   25   28 ar
  48   29   30 1
  49   30   31 ar
  50   30   32 ar
  51   30   33 ar
  52   34   35 1
  53   35   36 ar
  54   35   37 ar
  55   35   38 ar
  56   39   40 1
  57   40   41 ar
  58   40   42 ar
  59   40   43 ar

#	End of record

