#	Name: ASD01814071
#	Creating user name:	WinNT
#	Creation time:	15. 06. 2019 19:31

#	Modifying user name:	WinNT
#	Modification time:	15. 06. 2019 19:31

#	Program:	/corina/corina34_cracker 3.40 0067  02.08.2006

@<TRIPOS>MOLECULE
ASD01814071
  51   55    0    0    0
SMALL
NO_CHARGES


@<TRIPOS>ATOM
   1 C1             1.1558     2.2514    -0.5136 C.ar    
   2 C2             0.7793     0.9162    -0.4986 C.ar    
   3 C3             1.7218    -0.0797    -0.3471 C.ar    
   4 C4             3.0689     0.2527    -0.2071 C.ar    
   5 C5             3.4456     1.6060    -0.2230 C.ar    
   6 C6             2.4809     2.6017    -0.3770 C.ar    
   7 N7             4.0212    -0.7325    -0.0539 N.pl3   
   8 C8             5.3257    -0.4652     0.0854 C.2     
   9 C9             5.8161     0.8252     0.0858 C.2     
  10 C10            4.8735     1.9441    -0.0741 C.2     
  11 O11            5.2562     3.1010    -0.0806 O.2     
  12 C12            7.2556     1.0775     0.2425 C.2     
  13 O13            7.7223     2.3421     0.2413 O.3     
  14 O14            8.0252     0.1456     0.3731 O.2     
  15 C15            3.5871    -2.1316    -0.0427 C.3     
  16 C16            3.4445    -2.6248    -1.4595 C.ar    
  17 C17            4.5266    -2.5716    -2.3222 C.ar    
  18 C18            4.3974    -3.0239    -3.6233 C.ar    
  19 C19            3.1823    -3.5308    -4.0623 C.ar    
  20 C20            2.0996    -3.5824    -3.1939 C.ar    
  21 C21            2.2352    -3.1349    -1.8944 C.ar    
  22 N22            3.0479    -3.9893    -5.3794 N.pl3   
  23 F23            1.3402    -1.3756    -0.3339 F       
  24 C24            2.7982    -5.2950    -5.7752 C.ar    
  25 C25            2.7461    -5.2748    -7.1788 C.ar    
  26 N26            2.9606    -3.9912    -7.5701 N.2     
  27 C27            3.1325    -3.2315    -6.5161 C.2     
  28 F28            5.7086    -2.0774    -1.8933 F       
  29 C29            2.6113    -6.4869    -5.0924 C.ar    
  30 C30            2.3745    -7.6509    -5.7945 C.ar    
  31 C31            2.3220    -7.6369    -7.1804 C.ar    
  32 C32            2.5054    -6.4621    -7.8749 C.ar    
  33 S33            3.4388    -1.4969    -6.5568 S.3     
  34 C34            3.4263    -1.2173    -8.3450 C.3     
  35 H35            0.4069     3.0196    -0.6376 H       
  36 H36           -0.2628     0.6537    -0.6062 H       
  37 H37            2.7715     3.6418    -0.3894 H       
  38 H38            6.0173    -1.2865     0.2016 H       
  39 H39            8.6765     2.4580     0.3474 H       
  40 H40            4.3271    -2.7375     0.4802 H       
  41 H41            2.6271    -2.2101     0.4676 H       
  42 H42            5.2409    -2.9823    -4.2966 H       
  43 H43            1.1532    -3.9765    -3.5335 H       
  44 H44            1.3930    -3.1752    -1.2195 H       
  45 H45            2.6513    -6.5044    -4.0133 H       
  46 H46            2.2294    -8.5789    -5.2615 H       
  47 H47            2.1363    -8.5544    -7.7190 H       
  48 H48            2.4629    -6.4583    -8.9540 H       
  49 H49            4.2083    -1.8162    -8.8118 H       
  50 H50            2.4567    -1.5054    -8.7510 H       
  51 H51            3.6065    -0.1618    -8.5490 H       
@<TRIPOS>BOND
   1    1    2 ar
   2    1    6 ar
   3    1   35 1
   4    2    3 ar
   5    2   36 1
   6    3    4 ar
   7    3   23 1
   8    4    5 ar
   9    4    7 1
  10    5    6 ar
  11    5   10 1
  12    6   37 1
  13    7    8 1
  14    7   15 1
  15    8    9 2
  16    8   38 1
  17    9   10 1
  18    9   12 1
  19   10   11 2
  20   12   13 1
  21   12   14 2
  22   13   39 1
  23   15   16 1
  24   15   40 1
  25   15   41 1
  26   16   17 ar
  27   16   21 ar
  28   17   18 ar
  29   17   28 1
  30   18   19 ar
  31   18   42 1
  32   19   20 ar
  33   19   22 1
  34   20   21 ar
  35   20   43 1
  36   21   44 1
  37   22   24 1
  38   22   27 1
  39   24   25 ar
  40   24   29 ar
  41   25   26 1
  42   25   32 ar
  43   26   27 2
  44   27   33 1
  45   29   30 ar
  46   29   45 1
  47   30   31 ar
  48   30   46 1
  49   31   32 ar
  50   31   47 1
  51   32   48 1
  52   33   34 1
  53   34   49 1
  54   34   50 1
  55   34   51 1

#	End of record

