#	Name: ASD01884048
#	Creating user name:	WinNT
#	Creation time:	15. 06. 2019 19:47

#	Modifying user name:	WinNT
#	Modification time:	15. 06. 2019 19:47

#	Program:	/corina/corina34_cracker 3.40 0067  02.08.2006

@<TRIPOS>MOLECULE
ASD01884048
  52   54    0    0    0
SMALL
NO_CHARGES


@<TRIPOS>ATOM
   1 C1             0.6187     1.5119     0.0281 C.2     
   2 C2             0.5245     0.0987     0.0507 C.2     
   3 C3             1.6988    -0.6588    -0.1091 C.2     
   4 C4             2.9218     0.0186    -0.2853 C.2     
   5 C5             2.9494     1.3703    -0.2982 C.2     
   6 N6             1.8159     2.1023    -0.1439 N.am    
   7 C7            -0.7412    -0.5460     0.2331 C.1     
   8 N8            -1.7452    -1.0574     0.3778 N.1     
   9 O9            -0.3842     2.1927     0.1592 O.2     
  10 C10            1.6511    -2.1349    -0.0922 C.ar    
  11 C11            1.9818    -2.8595    -1.2406 C.ar    
  12 C12            1.9368    -4.2352    -1.2215 C.ar    
  13 C13            1.5625    -4.9046    -0.0600 C.ar    
  14 C14            1.2326    -4.1859     1.0853 C.ar    
  15 C15            1.2808    -2.8102     1.0741 C.ar    
  16 N16            1.5175    -6.2967    -0.0440 N.pl3   
  17 C17            2.8523    -7.1764     3.2623 C.ar    
  18 C18            2.6263    -6.4600     2.1055 C.ar    
  19 C19            1.7722    -6.9879     1.1376 C.ar    
  20 C20            1.1794    -8.2264     1.3843 C.ar    
  21 C21            1.4573    -8.8784     2.5670 C.ar    
  22 N22            2.2720    -8.3454     3.4585 N.ar    
  23 C23            3.7779    -6.6197     4.3131 C.3     
  24 C24            1.8981     3.5648    -0.1652 C.3     
  25 C25            2.1272     4.0835     1.2559 C.3     
  26 C26            2.2130     5.6109     1.2337 C.3     
  27 C27            0.8643     6.1913     0.8036 C.3     
  28 C28            2.5657     6.1222     2.6320 C.3     
  29 H29            3.8367    -0.5416    -0.4097 H       
  30 H30            3.8927     1.8786    -0.4336 H       
  31 H31            2.2720    -2.3406    -2.1422 H       
  32 H32            2.1919    -4.7956    -2.1087 H       
  33 H33            0.9422    -4.7081     1.9850 H       
  34 H34            1.0287    -2.2531     1.9643 H       
  35 H35            1.3088    -6.7845    -0.8560 H       
  36 H36            3.1040    -5.5037     1.9515 H       
  37 H37            0.5118    -8.6681     0.6593 H       
  38 H38            1.0028    -9.8376     2.7665 H       
  39 H39            3.2071    -6.0117     5.0150 H       
  40 H40            4.2555    -7.4404     4.8483 H       
  41 H41            4.5408    -6.0043     3.8362 H       
  42 H42            2.7270     3.8730    -0.8024 H       
  43 H43            0.9671     3.9754    -0.5561 H       
  44 H44            1.2983     3.7753     1.8932 H       
  45 H45            3.0582     3.6729     1.6468 H       
  46 H46            2.9838     5.9213     0.5282 H       
  47 H47            0.9254     7.2794     0.7878 H       
  48 H48            0.6131     5.8270    -0.1925 H       
  49 H49            0.0936     5.8809     1.5091 H       
  50 H50            3.5265     5.7088     2.9384 H       
  51 H51            2.6268     7.2104     2.6162 H       
  52 H52            1.7949     5.8118     3.3374 H       
@<TRIPOS>BOND
   1    1    2 1
   2    1    6 am
   3    1    9 2
   4    2    3 2
   5    2    7 1
   6    3    4 1
   7    3   10 1
   8    4    5 2
   9    4   29 1
  10    5    6 1
  11    5   30 1
  12    6   24 1
  13    7    8 3
  14   10   11 ar
  15   10   15 ar
  16   11   12 ar
  17   11   31 1
  18   12   13 ar
  19   12   32 1
  20   13   14 ar
  21   13   16 1
  22   14   15 ar
  23   14   33 1
  24   15   34 1
  25   16   19 1
  26   16   35 1
  27   17   18 ar
  28   17   22 ar
  29   17   23 1
  30   18   19 ar
  31   18   36 1
  32   19   20 ar
  33   20   21 ar
  34   20   37 1
  35   21   22 ar
  36   21   38 1
  37   23   39 1
  38   23   40 1
  39   23   41 1
  40   24   25 1
  41   24   42 1
  42   24   43 1
  43   25   26 1
  44   25   44 1
  45   25   45 1
  46   26   27 1
  47   26   28 1
  48   26   46 1
  49   27   47 1
  50   27   48 1
  51   27   49 1
  52   28   50 1
  53   28   51 1
  54   28   52 1

#	End of record

