#	Name: ASD01890268
#	Creating user name:	WinNT
#	Creation time:	15. 06. 2019 19:50

#	Modifying user name:	WinNT
#	Modification time:	15. 06. 2019 19:50

#	Program:	/corina/corina34_cracker 3.40 0067  02.08.2006

@<TRIPOS>MOLECULE
ASD01890268
  40   42    0    0    0
SMALL
NO_CHARGES


@<TRIPOS>ATOM
   1 C1            -0.0184     1.5028     0.0103 C.2     
   2 C2             0.0021    -0.0041     0.0020 C.3     
   3 C3             1.4513    -0.4944    -0.0145 C.3     
   4 O4             1.0234     2.1233     0.0037 O.2     
   5 C5            -1.3027     2.2212     0.0203 C.ar    
   6 C6            -1.3259     3.6195     0.0280 C.ar    
   7 C7            -2.5333     4.2853     0.0374 C.ar    
   8 C8            -3.7202     3.5735     0.0397 C.ar    
   9 C9            -3.7057     2.1896     0.0321 C.ar    
  10 C10           -2.5064     1.5092     0.0164 C.ar    
  11 C11            1.5088    -4.7694    -0.0380 C.ar    
  12 C12            1.4878    -4.0638    -1.2393 C.ar    
  13 C13            1.4696    -2.6838    -1.2258 C.ar    
  14 C14            1.4717    -2.0012    -0.0227 C.ar    
  15 C15            1.4930    -2.6966     1.1728 C.ar    
  16 C16            1.5113    -4.0767     1.1710 C.ar    
  17 C17            1.5223    -6.2532    -0.0461 C.ar    
  18 C18            1.5433    -6.9588     1.1553 C.ar    
  19 C19            1.5557    -8.3389     1.1419 C.ar    
  20 C20            1.5479    -9.0215    -0.0612 C.ar    
  21 C21            1.5275    -8.3261    -1.2567 C.ar    
  22 C22            1.5082    -6.9460    -1.2549 C.ar    
  23 H23           -0.4983    -0.3791     0.8948 H       
  24 H24           -0.5153    -0.3696    -0.8850 H       
  25 H25            1.9516    -0.1193    -0.9073 H       
  26 H26            1.9686    -0.1289     0.8726 H       
  27 H27           -0.4005     4.1764     0.0270 H       
  28 H28           -2.5529     5.3652     0.0434 H       
  29 H29           -4.6628     4.1007     0.0478 H       
  30 H30           -4.6360     1.6411     0.0339 H       
  31 H31           -2.4967     0.4293     0.0055 H       
  32 H32            1.4862    -4.5957    -2.1792 H       
  33 H33            1.4533    -2.1358    -2.1564 H       
  34 H34            1.4949    -2.1587     2.1093 H       
  35 H35            1.5272    -4.6187     2.1051 H       
  36 H36            1.5501    -6.4268     2.0951 H       
  37 H37            1.5720    -8.8868     2.0724 H       
  38 H38            1.5581   -10.1014    -0.0671 H       
  39 H39            1.5219    -8.8640    -2.1931 H       
  40 H40            1.4871    -6.4040    -2.1888 H       
@<TRIPOS>BOND
   1    1    2 1
   2    1    4 2
   3    1    5 1
   4    2    3 1
   5    2   23 1
   6    2   24 1
   7    3   14 1
   8    3   25 1
   9    3   26 1
  10    5    6 ar
  11    5   10 ar
  12    6    7 ar
  13    6   27 1
  14    7    8 ar
  15    7   28 1
  16    8    9 ar
  17    8   29 1
  18    9   10 ar
  19    9   30 1
  20   10   31 1
  21   11   12 ar
  22   11   16 ar
  23   11   17 1
  24   12   13 ar
  25   12   32 1
  26   13   14 ar
  27   13   33 1
  28   14   15 ar
  29   15   16 ar
  30   15   34 1
  31   16   35 1
  32   17   18 ar
  33   17   22 ar
  34   18   19 ar
  35   18   36 1
  36   19   20 ar
  37   19   37 1
  38   20   21 ar
  39   20   38 1
  40   21   22 ar
  41   21   39 1
  42   22   40 1

#	End of record

