#	Name: ASD05143078
#	Creating user name:	WinNT
#	Creation time:	15. 06. 2019 20:57

#	Modifying user name:	WinNT
#	Modification time:	15. 06. 2019 20:57

#	Program:	/corina/corina34_cracker 3.40 0067  02.08.2006

@<TRIPOS>MOLECULE
ASD05143078
 144  148    0    0    0
SMALL
NO_CHARGES


@<TRIPOS>ATOM
   1 C1             2.4148     1.8692     6.2275 C.2     
   2 C2             3.0272     0.9925     7.2894 C.3     
   3 N3             3.0338     3.0064     5.8531 N.am    
   4 O4             1.3676     1.5489     5.7064 O.2     
   5 C5             2.4384     3.8586     4.8208 C.3     
   6 C6             2.3039     3.0652     3.5195 C.3     
   7 C7             1.0759     4.3174     5.2725 C.2     
   8 C8             3.6958     2.7112     2.9919 C.3     
   9 C9             3.5613     1.9178     1.6906 C.3     
  10 N10            4.8940     1.5788     1.1854 N.pl3   
  11 C11            5.0253     0.8623     0.0194 C.2     
  12 N12            3.9060     0.4639    -0.6725 N.pl3   
  13 N13            6.2110     0.5607    -0.4301 N.2     
  14 O14            0.5701     3.8326     6.2625 O.2     
  15 N15            0.4194     5.2665     4.5763 N.am    
  16 C16           -0.9440     5.6327     4.9482 C.3     
  17 C17           -0.8923     6.8659     5.8586 C.3     
  18 C18           -1.6197     6.5665     7.1705 C.3     
  19 C19           -1.4697     7.7372     8.1063 C.2     
  20 N20           -2.5495     8.1372     8.8425 N.am    
  21 C21           -2.3202     9.3151     9.7103 C.3     
  22 C22           -3.6565    10.0199     9.9491 C.3     
  23 C23           -3.7657    11.2329     9.0238 C.3     
  24 C24           -5.1922    11.7874     9.0647 C.3     
  25 N25           -5.4322    12.5881     7.8498 N.am    
  26 C26           -5.3528    12.6682    10.2799 C.2     
  27 N27           -5.5683    12.1146    11.4897 N.am    
  28 O28           -5.2880    13.8741    10.1677 O.2     
  29 C29           -6.4585    12.2126     7.0375 C.2     
  30 O30           -7.0614    11.1797     7.2301 O.2     
  31 C31           -6.8413    13.1228     5.8985 C.3     
  32 N32           -7.3796    12.3207     4.7767 N.am    
  33 C33           -7.9121    14.1089     6.3771 C.3     
  34 C34           -6.4563    11.8448     3.8919 C.2     
  35 O35           -5.2710    11.9109     4.1531 O.2     
  36 C36           -6.9093    11.2750     2.5754 C.3     
  37 N37           -5.7940    10.5654     1.9216 N.am    
  38 C38           -8.0867    10.3235     2.7730 C.3     
  39 C39           -5.1448     9.6278     2.6505 C.2     
  40 O40           -5.5123     9.3284     3.7685 O.2     
  41 C41           -3.9116     8.9353     2.1004 C.3     
  42 C42           -8.2096    15.0988     5.2804 C.2     
  43 C43           -9.1507    14.9155     4.1729 C.ar    
  44 C44           -9.0897    16.0967     3.4115 C.ar    
  45 N45           -8.1763    16.9267     4.0219 N.pl3   
  46 C46           -7.6668    16.3181     5.1364 C.2     
  47 C47          -10.0048    13.8807     3.7863 C.ar    
  48 C48          -10.7781    14.0213     2.6688 C.ar    
  49 C49          -10.7212    15.1849     1.9137 C.ar    
  50 C50           -9.8863    16.2184     2.2774 C.ar    
  51 N51           -4.2564     7.5119     1.9513 N.am    
  52 C52           -2.7801     9.1561     3.1051 C.3     
  53 C53           -2.4698    10.6279     3.1967 C.ar    
  54 C54           -2.5604    11.2802     4.4144 C.ar    
  55 C55           -2.2749    12.6328     4.4971 C.ar    
  56 C56           -1.9001    13.3297     3.3643 C.ar    
  57 C57           -1.8100    12.6772     2.1487 C.ar    
  58 C58           -2.0892    11.3259     2.0661 C.ar    
  59 C59           -1.7935     5.9426     3.7499 C.2     
  60 O60           -2.9692     6.2277     3.9551 O.2     
  61 C61           -8.6021     9.8596     1.4092 C.3     
  62 C62           -9.7820     8.9060     1.6073 C.3     
  63 N63          -10.2755     8.4617     0.3014 N.pl3   
  64 C64          -11.3392     7.5938     0.2274 C.2     
  65 N65          -11.9398     7.1428     1.3789 N.pl3   
  66 N66          -11.7782     7.1986    -0.9345 N.2     
  67 N67           -1.3666     5.8995     2.4772 N.am    
  68 C68           -1.9331     6.6759     1.3676 C.3     
  69 C69           -3.4292     6.6030     1.3953 C.2     
  70 O70           -3.9521     5.6264     0.8610 O.2     
  71 O71           -0.4075     8.3136     8.2043 O.2     
  72 C72           -0.5981     4.8413     0.4421 C.3     
  73 C73           -1.4085     6.0852     0.0461 C.3     
  74 C74           -0.3094     5.0439     1.9367 C.3     
  75 F75           -2.9273    10.5979     5.5212 F       
  76 H76            2.6612     1.2991     8.2692 H       
  77 H77            2.7510    -0.0460     7.1069 H       
  78 H78            4.1124     1.0904     7.2599 H       
  79 H79            3.8734     3.2605     6.2670 H       
  80 H80            3.0768     4.7261     4.6532 H       
  81 H81            1.7433     2.1497     3.7085 H       
  82 H82            1.7772     3.6677     2.7795 H       
  83 H83            4.2564     3.6267     2.8030 H       
  84 H84            4.2225     2.1088     3.7320 H       
  85 H85            3.0006     1.0023     1.8795 H       
  86 H86            3.0345     2.5203     0.9505 H       
  87 H87            5.6837     1.8599     1.6735 H       
  88 H88            3.0236     0.6883    -0.3380 H       
  89 H89            3.9987    -0.0416    -1.4951 H       
  90 H90            6.3037     0.0552    -1.2528 H       
  91 H91            0.8528     5.7063     3.8282 H       
  92 H92           -1.3967     4.8072     5.5079 H       
  93 H93            0.1479     7.1141     6.0688 H       
  94 H94           -1.3728     7.7060     5.3614 H       
  95 H95           -2.6770     6.3947     6.9675 H       
  96 H96           -1.1896     5.6758     7.6297 H       
  97 H97           -3.4047     7.6814     8.8013 H       
  98 H98           -1.9056     8.9889    10.6647 H       
  99 H99           -1.6266    10.0011     9.2250 H       
 100 H100          -4.4756     9.3306     9.7443 H       
 101 H101          -3.7099    10.3481    10.9878 H       
 102 H102          -3.0694    12.0045     9.3520 H       
 103 H103          -3.5223    10.9372     8.0037 H       
 104 H104          -5.9030    10.9653     9.1165 H       
 105 H105          -4.8785    13.3603     7.6374 H       
 106 H106          -5.6202    11.1502    11.5795 H       
 107 H107          -5.6715    12.6806    12.2706 H       
 108 H108          -5.9647    13.6767     5.5656 H       
 109 H109          -8.3338    12.1595     4.6861 H       
 110 H110          -8.8211    13.5634     6.6306 H       
 111 H111          -7.5496    14.6399     7.2573 H       
 112 H112          -7.2267    12.1001     1.9280 H       
 113 H113          -5.5400    10.7676     1.0023 H       
 114 H114          -7.7620     9.4590     3.3520 H       
 115 H115          -8.8850    10.8392     3.3068 H       
 116 H116          -3.6503     9.3735     1.1381 H       
 117 H117          -7.9330    17.8125     3.7103 H       
 118 H118          -6.9312    16.7513     5.7979 H       
 119 H119         -10.0537    12.9724     4.3685 H       
 120 H120         -11.4386    13.2207     2.3702 H       
 121 H121         -11.3384    15.2811     1.0326 H       
 122 H122          -9.8495    17.1198     1.6836 H       
 123 H123          -5.1414     7.2013     2.2780 H       
 124 H124          -3.0865     8.7877     4.0842 H       
 125 H125          -1.8916     8.6172     2.7759 H       
 126 H126          -2.3456    13.1428     5.4464 H       
 127 H127          -1.6778    14.3846     3.4285 H       
 128 H128          -1.5173    13.2228     1.2638 H       
 129 H129          -2.0184    10.8172     1.1160 H       
 130 H130          -8.9268    10.7241     0.8302 H       
 131 H131          -7.8038     9.3439     0.8754 H       
 132 H132          -9.4572     8.0414     2.1862 H       
 133 H133         -10.5803     9.4216     2.1411 H       
 134 H134          -9.8517     8.7799    -0.5111 H       
 135 H135         -11.6131     7.4369     2.2436 H       
 136 H136         -12.6903     6.5304     1.3267 H       
 137 H137         -12.5286     6.5862    -0.9867 H       
 138 H138          -1.5838     7.7069     1.4296 H       
 139 H139          -1.1891     3.9390     0.2890 H       
 140 H140           0.3323     4.7916    -0.1207 H       
 141 H141          -2.2335     5.8123    -0.6075 H       
 142 H142          -0.7622     6.8113    -0.4546 H       
 143 H143           0.6561     5.5290     2.0562 H       
 144 H144          -0.3195     4.0781     2.4387 H       
@<TRIPOS>BOND
   1    1    2 1
   2    1    3 am
   3    1    4 2
   4    2   76 1
   5    2   77 1
   6    2   78 1
   7    3    5 1
   8    3   79 1
   9    5    6 1
  10    5    7 1
  11    5   80 1
  12    6    8 1
  13    6   81 1
  14    6   82 1
  15    7   14 2
  16    7   15 am
  17    8    9 1
  18    8   83 1
  19    8   84 1
  20    9   10 1
  21    9   85 1
  22    9   86 1
  23   10   11 1
  24   10   87 1
  25   11   12 1
  26   11   13 2
  27   12   88 1
  28   12   89 1
  29   13   90 1
  30   15   16 1
  31   15   91 1
  32   16   17 1
  33   16   59 1
  34   16   92 1
  35   17   18 1
  36   17   93 1
  37   17   94 1
  38   18   19 1
  39   18   95 1
  40   18   96 1
  41   19   20 am
  42   19   71 2
  43   20   21 1
  44   20   97 1
  45   21   22 1
  46   21   98 1
  47   21   99 1
  48   22   23 1
  49   22  100 1
  50   22  101 1
  51   23   24 1
  52   23  102 1
  53   23  103 1
  54   24   25 1
  55   24   26 1
  56   24  104 1
  57   25   29 am
  58   25  105 1
  59   26   27 am
  60   26   28 2
  61   27  106 1
  62   27  107 1
  63   29   30 2
  64   29   31 1
  65   31   32 1
  66   31   33 1
  67   31  108 1
  68   32   34 am
  69   32  109 1
  70   33   42 1
  71   33  110 1
  72   33  111 1
  73   34   35 2
  74   34   36 1
  75   36   37 1
  76   36   38 1
  77   36  112 1
  78   37   39 am
  79   37  113 1
  80   38   61 1
  81   38  114 1
  82   38  115 1
  83   39   40 2
  84   39   41 1
  85   41   51 1
  86   41   52 1
  87   41  116 1
  88   42   43 1
  89   42   46 2
  90   43   44 ar
  91   43   47 ar
  92   44   45 1
  93   44   50 ar
  94   45   46 1
  95   45  117 1
  96   46  118 1
  97   47   48 ar
  98   47  119 1
  99   48   49 ar
 100   48  120 1
 101   49   50 ar
 102   49  121 1
 103   50  122 1
 104   51   69 am
 105   51  123 1
 106   52   53 1
 107   52  124 1
 108   52  125 1
 109   53   54 ar
 110   53   58 ar
 111   54   55 ar
 112   54   75 1
 113   55   56 ar
 114   55  126 1
 115   56   57 ar
 116   56  127 1
 117   57   58 ar
 118   57  128 1
 119   58  129 1
 120   59   60 2
 121   59   67 am
 122   61   62 1
 123   61  130 1
 124   61  131 1
 125   62   63 1
 126   62  132 1
 127   62  133 1
 128   63   64 1
 129   63  134 1
 130   64   65 1
 131   64   66 2
 132   65  135 1
 133   65  136 1
 134   66  137 1
 135   67   68 1
 136   67   74 1
 137   68   69 1
 138   68   73 1
 139   68  138 1
 140   69   70 2
 141   72   73 1
 142   72   74 1
 143   72  139 1
 144   72  140 1
 145   73  141 1
 146   73  142 1
 147   74  143 1
 148   74  144 1

#	End of record

