#	Name: ASD01840547
#	Creating user name:	WinNT
#	Creation time:	15. 06. 2019 19:37

#	Modifying user name:	WinNT
#	Modification time:	15. 06. 2019 19:37

#	Program:	/corina/corina34_cracker 3.40 0067  02.08.2006

@<TRIPOS>MOLECULE
ASD01840547
  49   52    0    0    0
SMALL
NO_CHARGES


@<TRIPOS>ATOM
   1 C1            -0.0178     1.4608     0.0101 C.3     
   2 N2             0.0021    -0.0041     0.0020 N.pl3   
   3 C3             0.6034    -0.6852    -1.0500 C.ar    
   4 N4             1.1615    -0.0053    -2.0397 N.ar    
   5 C5             1.7427    -0.6129    -3.0570 C.ar    
   6 C6             2.3637     0.2080    -4.1577 C.3     
   7 C7             1.7894    -1.9913    -3.1254 C.ar    
   8 C8             2.4559    -2.6751    -4.2912 C.3     
   9 C9             1.2152    -2.7391    -2.1066 C.ar    
  10 C10            1.0959    -4.2226    -1.8835 C.3     
  11 N11            0.3788    -4.4259    -0.6196 N.am    
  12 C12            0.0697    -3.0941    -0.0876 C.3     
  13 C13            0.6194    -2.0770    -1.0526 C.ar    
  14 C14            0.0644    -5.6090    -0.0558 C.2     
  15 O15            0.3805    -6.6444    -0.6026 O.2     
  16 C16           -0.6797    -5.6453     1.2542 C.3     
  17 C17           -0.9088    -7.0997     1.6704 C.3     
  18 H18           -0.9958    -7.8147     0.8523 H       
  19 C19           -0.2390    -7.5794     2.9597 C.3     
  20 C20           -1.7523    -7.3519     2.9218 C.3     
  21 H21           -2.1440    -6.4817     3.4485 H       
  22 C22           -2.6394    -8.5701     2.9291 C.ar    
  23 C23           -4.0129    -8.4371     3.0696 C.ar    
  24 C24           -4.7904    -9.5838     3.0705 C.ar    
  25 C25           -4.1743   -10.8166     2.9319 C.ar    
  26 F26           -4.9226   -11.9415     2.9310 F       
  27 N27           -2.8632   -10.9041     2.8004 N.ar    
  28 C28           -2.0947    -9.8320     2.7902 C.ar    
  29 H29            1.0048     1.8381     0.0023 H       
  30 H30           -0.5450     1.8219    -0.8730 H       
  31 H31           -0.5280     1.8123     0.9069 H       
  32 H32           -0.4044    -0.4986     0.7308 H       
  33 H33            3.4069     0.4106    -3.9155 H       
  34 H34            2.3091    -0.3428    -5.0967 H       
  35 H35            1.8241     1.1499    -4.2571 H       
  36 H36            3.5100    -2.8349    -4.0645 H       
  37 H37            1.9737    -3.6356    -4.4731 H       
  38 H38            2.3661    -2.0495    -5.1792 H       
  39 H39            0.5374    -4.6758    -2.7024 H       
  40 H40            2.0888    -4.6679    -1.8208 H       
  41 H41           -1.0098    -2.9747     0.0052 H       
  42 H42            0.5415    -2.9667     0.8867 H       
  43 H43           -0.0935    -5.1365     2.0193 H       
  44 H44           -1.6410    -5.1444     1.1399 H       
  45 H45            0.1142    -8.6101     2.9899 H       
  46 H46            0.3648    -6.8589     3.5113 H       
  47 H47           -4.4656    -7.4624     3.1761 H       
  48 H48           -5.8630    -9.5173     3.1781 H       
  49 H49           -1.0265    -9.9424     2.6763 H       
@<TRIPOS>BOND
   1    1    2 1
   2    1   29 1
   3    1   30 1
   4    1   31 1
   5    2    3 1
   6    2   32 1
   7    3   13 ar
   8    3    4 ar
   9    4    5 ar
  10    5    6 1
  11    5    7 ar
  12    6   33 1
  13    6   34 1
  14    6   35 1
  15    7    8 1
  16    7    9 ar
  17    8   36 1
  18    8   37 1
  19    8   38 1
  20    9   13 ar
  21    9   10 1
  22   10   11 1
  23   10   39 1
  24   10   40 1
  25   11   12 1
  26   11   14 am
  27   12   13 1
  28   12   41 1
  29   12   42 1
  30   14   15 2
  31   14   16 1
  32   16   17 1
  33   16   43 1
  34   16   44 1
  35   17   18 1
  36   17   20 1
  37   17   19 1
  38   19   20 1
  39   19   45 1
  40   19   46 1
  41   20   21 1
  42   20   22 1
  43   22   28 ar
  44   22   23 ar
  45   23   24 ar
  46   23   47 1
  47   24   25 ar
  48   24   48 1
  49   25   26 1
  50   25   27 ar
  51   27   28 ar
  52   28   49 1

#	End of record

