#	Name: ASD00731032
#	Creating user name:	WinNT
#	Creation time:	15. 06. 2019 18:37

#	Modifying user name:	WinNT
#	Modification time:	15. 06. 2019 18:37

#	Program:	/corina/corina34_cracker 3.40 0067  02.08.2006

@<TRIPOS>MOLECULE
ASD00731032
 254  256    0    0    0
SMALL
NO_CHARGES


@<TRIPOS>ATOM
   1 C1            -1.5756     1.4370     2.9847 C.2     
   2 O2            -0.7135     0.8850     2.3343 O.2     
   3 N3             0.1426     1.6867     4.6802 N.am    
   4 C4            -1.2602     1.9634     4.3611 C.3     
   5 C5            -1.5032     3.4736     4.3975 C.3     
   6 O6            -0.7483     4.1027     3.3601 O.3     
   7 C7            -4.2752     1.8526     0.5551 C.2     
   8 O8            -4.7933     2.7401     1.1990 O.2     
   9 N9            -2.8142     1.5845     2.4742 N.am    
  10 C10           -3.1191     1.0781     1.1337 C.3     
  11 C11           -3.4904    -0.4036     1.2206 C.3     
  12 C12           -2.3674    -1.1706     1.9216 C.3     
  13 O13           -4.7022    -0.5482     1.9641 O.3     
  14 C14           -7.1577     1.4894    -0.7571 C.2     
  15 O15           -7.0520     0.4910    -0.0766 O.2     
  16 N16           -4.7332     1.5589    -0.6779 N.am    
  17 C17           -5.9244     2.2353    -1.1972 C.3     
  18 C18           -5.8666     2.2683    -2.7257 C.3     
  19 C19           -4.7109     3.1292    -3.1663 C.2     
  20 O20           -3.9571     3.5951    -2.3449 O.2     
  21 O21           -4.5188     3.3784    -4.4712 O.3     
  22 C22          -10.7002     1.4781    -1.6591 C.2     
  23 O23          -10.5173     2.2056    -2.6121 O.2     
  24 N24           -8.3781     1.9318    -1.1196 N.am    
  25 C25           -9.5770     1.2066    -0.6917 C.3     
  26 C26           -9.9842     1.6747     0.7069 C.3     
  27 C27           -8.8968     1.2871     1.7110 C.3     
  28 C28           -9.3040     1.7552     3.1096 C.3     
  29 N29           -8.2628     1.3841     4.0711 N.pl3   
  30 C30           -8.4095     1.7029     5.4004 C.2     
  31 N31           -7.4832     1.3727     6.2559 N.2     
  32 N32           -9.5333     2.3699     5.8274 N.pl3   
  33 C33          -14.3216     0.9818    -1.7081 C.2     
  34 O34          -14.3487     0.6550    -0.5405 O.2     
  35 N35          -11.9080     0.9123    -1.4652 N.am    
  36 C36          -12.9999     1.1762    -2.4056 C.3     
  37 C37          -12.8999     0.2096    -3.5874 C.3     
  38 C38          -11.6154     0.4913    -4.3693 C.3     
  39 C39          -11.4521    -0.5533    -5.4753 C.3     
  40 C40          -11.6934     1.8863    -4.9929 C.3     
  41 C41          -17.8178     0.6438    -2.7206 C.2     
  42 O42          -17.5283     0.5679    -3.8959 O.2     
  43 N43          -15.4734     1.1711    -2.3819 N.am    
  44 C44          -16.7582     0.9821    -1.7038 C.3     
  45 C45          -17.1442     2.2704    -0.9744 C.3     
  46 C46          -16.1345     2.5468     0.1414 C.3     
  47 C47          -16.5205     3.8352     0.8709 C.3     
  48 N48          -15.5537     4.0998     1.9393 N.pl3   
  49 C49          -15.6965     5.2113     2.7357 C.2     
  50 N50          -16.6920     6.0296     2.5402 N.2     
  51 N51          -14.7891     5.4597     3.7383 N.pl3   
  52 C52          -21.4698     0.4939    -2.7795 C.2     
  53 O53          -21.5640     1.0019    -1.6822 O.2     
  54 N54          -19.0872     0.4254    -2.3239 N.am    
  55 C55          -20.1173     0.0965    -3.3123 C.3     
  56 C56          -20.0992    -1.4086    -3.5862 C.3     
  57 C57          -18.7713    -1.7916    -4.2427 C.3     
  58 C58          -18.7532    -3.2968    -4.5166 C.3     
  59 C59          -17.4253    -3.6797    -5.1731 C.3     
  60 N60          -17.4079    -5.1249    -5.4361 N.3     
  61 C61          -24.9549    -0.1670    -3.6630 C.2     
  62 O62          -24.6462    -1.0046    -4.4840 O.2     
  63 N63          -22.5747     0.2849    -3.5225 N.am    
  64 C64          -23.8895     0.6712    -3.0046 C.3     
  65 C65          -24.1432     2.1491    -3.3083 C.3     
  66 C66          -23.1522     2.9949    -2.5509 C.2     
  67 C67          -23.3459     3.5742    -1.3556 C.2     
  68 N68          -22.2234     4.2624    -0.9833 N.pl3   
  69 C69          -21.2553     4.1397    -1.9547 C.ar    
  70 C70          -19.9583     4.6259    -2.0808 C.ar    
  71 C71          -19.2192     4.3205    -3.2029 C.ar    
  72 C72          -19.7557     3.5315    -4.2108 C.ar    
  73 C73          -21.0281     3.0438    -4.1077 C.ar    
  74 C74          -21.7925     3.3355    -2.9766 C.ar    
  75 C75          -28.5972    -0.0578    -3.9540 C.2     
  76 O76          -28.6602     1.0438    -3.4506 O.2     
  77 N77          -26.2506     0.0142    -3.3395 N.am    
  78 C78          -27.2863    -0.8007    -3.9796 C.3     
  79 C79          -27.4345    -2.1228    -3.2240 C.3     
  80 C80          -26.1432    -2.9329    -3.3556 C.3     
  81 S81          -26.3189    -4.5005    -2.4597 S.3     
  82 C82          -24.7157    -5.3057    -2.7280 C.3     
  83 C83          -32.1116    -0.8816    -4.5314 C.2     
  84 O84          -31.8806    -2.0706    -4.5931 O.2     
  85 N85          -29.6996    -0.6176    -4.4904 N.am    
  86 C86          -30.9740     0.1046    -4.4655 C.3     
  87 C87          -31.0482     1.0497    -5.6664 C.3     
  88 C88          -29.9860     2.1109    -5.5369 C.ar    
  89 C89          -28.7296     1.9004    -6.0737 C.ar    
  90 C90          -27.7553     2.8737    -5.9548 C.ar    
  91 C91          -28.0374     4.0578    -5.2996 C.ar    
  92 C92          -29.2941     4.2686    -4.7636 C.ar    
  93 C93          -30.2697     3.2970    -4.8862 C.ar    
  94 C94          -34.7740    -1.7467    -6.0251 C.2     
  95 O95          -34.1187    -1.2439    -6.9070 O.2     
  96 N96          -33.3857    -0.4422    -4.5217 N.am    
  97 C97          -34.4916    -1.4009    -4.5858 C.3     
  98 C98          -35.7407    -0.7815    -3.9556 C.3     
  99 C99          -36.8592    -1.8244    -3.9094 C.3     
 100 C100         -38.0659    -1.2455    -3.1679 C.3     
 101 C101         -36.1941     0.4160    -4.7930 C.3     
 102 O102         -35.7535    -2.6132    -6.3275 O.3     
 103 C103           0.5344     1.5883     5.9660 C.2     
 104 O104          -0.2743     1.7288     6.8588 O.2     
 105 C105          13.4587    -1.1439    19.2583 C.3     
 106 C106          11.9936    -0.8549    18.9250 C.3     
 107 C107          11.8185    -0.7943    17.4063 C.3     
 108 C108          10.3535    -0.5053    17.0730 C.3     
 109 C109          10.1783    -0.4446    15.5543 C.3     
 110 C110           8.7133    -0.1556    15.2210 C.3     
 111 C111           8.5381    -0.0950    13.7023 C.3     
 112 C112           7.0731     0.1940    13.3690 C.3     
 113 C113           6.8979     0.2547    11.8503 C.3     
 114 C114           5.4329     0.5437    11.5170 C.3     
 115 C115           5.2578     0.6043     9.9983 C.3     
 116 C116           3.7927     0.8933     9.6650 C.3     
 117 C117           3.6176     0.9540     8.1462 C.3     
 118 C118           2.1526     1.2430     7.8130 C.3     
 119 C119           1.9774     1.3036     6.2942 C.3     
 120 H120           0.7893     1.5743     3.9661 H       
 121 H121          -1.9027     1.4743     5.0932 H       
 122 H122          -2.5640     3.6746     4.2480 H       
 123 H123          -1.1914     3.8685     5.3644 H       
 124 H124          -0.8543     5.0632     3.3236 H       
 125 H125          -3.5037     2.0260     2.9943 H       
 126 H126          -2.2453     1.1967     0.4930 H       
 127 H127          -3.6307    -0.8025     0.2160 H       
 128 H128          -2.6319    -2.2262     1.9835 H       
 129 H129          -1.4431    -1.0603     1.3545 H       
 130 H130          -2.2270    -0.7717     2.9263 H       
 131 H131          -4.9982    -1.4638     2.0594 H       
 132 H132          -4.2742     0.8996    -1.2215 H       
 133 H133          -5.9599     3.2547    -0.8129 H       
 134 H134          -5.7312     1.2558    -3.1061 H       
 135 H135          -6.7968     2.6815    -3.1157 H       
 136 H136          -3.7642     3.9359    -4.7052 H       
 137 H137          -8.4626     2.7303    -1.6638 H       
 138 H138          -9.3665     0.1374    -0.6701 H       
 139 H139         -10.1084     2.7576     0.7058 H       
 140 H140         -10.9246     1.2013     0.9890 H       
 141 H141          -8.7725     0.2042     1.7121 H       
 142 H142          -7.9563     1.7605     1.4290 H       
 143 H143          -9.4282     2.8380     3.1085 H       
 144 H144         -10.2444     1.2818     3.3917 H       
 145 H145          -7.4699     0.9134     3.7699 H       
 146 H146          -7.5867     1.5977     7.1937 H       
 147 H147         -10.2227     2.6156     5.1907 H       
 148 H148          -9.6368     2.5949     6.7652 H       
 149 H149         -12.0543     0.3305    -0.7030 H       
 150 H150         -12.9276     2.2017    -2.7678 H       
 151 H151         -12.8829    -0.8157    -3.2178 H       
 152 H152         -13.7609     0.3456    -4.2419 H       
 153 H153         -10.7609     0.4423    -3.6943 H       
 154 H154         -12.3065    -0.5043    -6.1503 H       
 155 H155         -10.5370    -0.3526    -6.0324 H       
 156 H156         -11.3965    -1.5471    -5.0311 H       
 157 H157         -11.8097     2.6304    -4.2050 H       
 158 H158         -10.7782     2.0869    -5.5500 H       
 159 H159         -12.5478     1.9353    -5.6679 H       
 160 H160         -15.4516     1.4324    -3.3158 H       
 161 H161         -16.6727     0.1684    -0.9836 H       
 162 H162         -17.1430     3.1016    -1.6795 H       
 163 H163         -18.1397     2.1602    -0.5444 H       
 164 H164         -16.1357     1.7157     0.8466 H       
 165 H165         -15.1390     2.6571    -0.2886 H       
 166 H166         -16.5193     4.6663     0.1657 H       
 167 H167         -17.5160     3.7249     1.3009 H       
 168 H168         -14.8128     3.4909     2.0848 H       
 169 H169         -16.7927     6.8139     3.1022 H       
 170 H170         -14.0483     4.8508     3.8838 H       
 171 H171         -14.8899     6.2439     4.3003 H       
 172 H172         -19.3188     0.4861    -1.3839 H       
 173 H173         -19.9183     0.6367    -4.2379 H       
 174 H174         -20.2096    -1.9502    -2.6468 H       
 175 H175         -20.9219    -1.6665    -4.2531 H       
 176 H176         -18.6609    -1.2500    -5.1821 H       
 177 H177         -17.9486    -1.5337    -3.5758 H       
 178 H178         -18.8636    -3.8384    -3.5772 H       
 179 H179         -19.5759    -3.5546    -5.1835 H       
 180 H180         -17.3149    -3.1381    -6.1125 H       
 181 H181         -16.6026    -3.4219    -4.5062 H       
 182 H182         -18.1984    -5.3993    -5.9999 H       
 183 H183         -16.5404    -5.4030    -5.8699 H       
 184 H184         -22.4994    -0.1214    -4.4001 H       
 185 H185         -23.9166     0.5120    -1.9266 H       
 186 H186         -24.0285     2.3251    -4.3779 H       
 187 H187         -25.1554     2.4143    -3.0029 H       
 188 H188         -24.2534     3.5072    -0.7740 H       
 189 H189         -22.1244     4.7623    -0.1579 H       
 190 H190         -19.5321     5.2409    -1.3021 H       
 191 H191         -18.2123     4.6992    -3.2992 H       
 192 H192         -19.1630     3.3015    -5.0839 H       
 193 H193         -21.4391     2.4308    -4.8962 H       
 194 H194         -26.4975     0.6841    -2.6828 H       
 195 H195         -27.0031    -1.0023    -5.0126 H       
 196 H196         -27.6303    -1.9196    -2.1712 H       
 197 H197         -28.2642    -2.6908    -3.6448 H       
 198 H198         -25.9474    -3.1361    -4.4084 H       
 199 H199         -25.3135    -2.3649    -2.9347 H       
 200 H200         -24.7065    -6.2731    -2.2258 H       
 201 H201         -24.5557    -5.4495    -3.7966 H       
 202 H202         -23.9217    -4.6784    -2.3229 H       
 203 H203         -29.6492    -1.4986    -4.8930 H       
 204 H204         -31.0465     0.6819    -3.5438 H       
 205 H205         -30.8869     0.4843    -6.5842 H       
 206 H206         -32.0305     1.5209    -5.6978 H       
 207 H207         -28.5092     0.9753    -6.5856 H       
 208 H208         -26.7735     2.7090    -6.3736 H       
 209 H209         -27.2760     4.8179    -5.2061 H       
 210 H210         -29.5144     5.1936    -4.2514 H       
 211 H211         -31.2526     3.4633    -4.4707 H       
 212 H212         -33.5705     0.5087    -4.4724 H       
 213 H213         -34.2204    -2.3054    -4.0413 H       
 214 H214         -35.5106    -0.4504    -2.9429 H       
 215 H215         -37.1505    -2.0900    -4.9256 H       
 216 H216         -36.5053    -2.7140    -3.3886 H       
 217 H217         -38.4198    -0.3558    -3.6887 H       
 218 H218         -38.8628    -1.9884    -3.1350 H       
 219 H219         -37.7746    -0.9798    -2.1517 H       
 220 H220         -36.4241     0.0849    -5.8057 H       
 221 H221         -37.0839     0.8573    -4.3441 H       
 222 H222         -35.3972     1.1589    -4.8259 H       
 223 H223         -35.8972    -2.8038    -7.2646 H       
 224 H224          13.5835    -1.1871    20.3403 H       
 225 H225          13.7493    -2.0990    18.8206 H       
 226 H226          14.0870    -0.3516    18.8515 H       
 227 H227          11.3653    -1.6472    19.3319 H       
 228 H228          11.7030     0.1001    19.3627 H       
 229 H229          12.4468    -0.0019    16.9994 H       
 230 H230          12.1091    -1.7493    16.9686 H       
 231 H231           9.7252    -1.2976    17.4799 H       
 232 H232          10.0629     0.4498    17.5107 H       
 233 H233          10.8066     0.3477    15.1474 H       
 234 H234          10.4689    -1.3997    15.1166 H       
 235 H235           8.0850    -0.9479    15.6279 H       
 236 H236           8.4227     0.7994    15.6587 H       
 237 H237           9.1664     0.6974    13.2954 H       
 238 H238           8.8287    -1.0500    13.2646 H       
 239 H239           6.4448    -0.5983    13.7759 H       
 240 H240           6.7825     1.1491    13.8067 H       
 241 H241           7.5263     1.0470    11.4434 H       
 242 H242           7.1886    -0.7004    11.4126 H       
 243 H243           4.8046    -0.2486    11.9238 H       
 244 H244           5.1423     1.4987    11.9547 H       
 245 H245           5.8861     1.3966     9.5914 H       
 246 H246           5.5484    -0.3507     9.5606 H       
 247 H247           3.1644     0.1010    10.0718 H       
 248 H248           3.5021     1.8484    10.1026 H       
 249 H249           4.2459     1.7463     7.7394 H       
 250 H250           3.9082    -0.0011     7.7086 H       
 251 H251           1.5242     0.4507     8.2198 H       
 252 H252           1.8620     2.1980     8.2506 H       
 253 H253           2.2680     0.3486     5.8566 H       
 254 H254           2.6057     2.0959     5.8874 H       
@<TRIPOS>BOND
   1    1    2 2
   2    1    4 1
   3    1    9 am
   4    3  103 am
   5    3    4 1
   6    3  120 1
   7    4    5 1
   8    4  121 1
   9    5    6 1
  10    5  122 1
  11    5  123 1
  12    6  124 1
  13    7    8 2
  14    7   10 1
  15    7   16 am
  16    9   10 1
  17    9  125 1
  18   10   11 1
  19   10  126 1
  20   11   12 1
  21   11   13 1
  22   11  127 1
  23   12  128 1
  24   12  129 1
  25   12  130 1
  26   13  131 1
  27   14   15 2
  28   14   17 1
  29   14   24 am
  30   16   17 1
  31   16  132 1
  32   17   18 1
  33   17  133 1
  34   18   19 1
  35   18  134 1
  36   18  135 1
  37   19   20 2
  38   19   21 1
  39   21  136 1
  40   22   23 2
  41   22   25 1
  42   22   35 am
  43   24   25 1
  44   24  137 1
  45   25   26 1
  46   25  138 1
  47   26   27 1
  48   26  139 1
  49   26  140 1
  50   27   28 1
  51   27  141 1
  52   27  142 1
  53   28   29 1
  54   28  143 1
  55   28  144 1
  56   29   30 1
  57   29  145 1
  58   30   31 2
  59   30   32 1
  60   31  146 1
  61   32  147 1
  62   32  148 1
  63   33   34 2
  64   33   36 1
  65   33   43 am
  66   35   36 1
  67   35  149 1
  68   36   37 1
  69   36  150 1
  70   37   38 1
  71   37  151 1
  72   37  152 1
  73   38   39 1
  74   38   40 1
  75   38  153 1
  76   39  154 1
  77   39  155 1
  78   39  156 1
  79   40  157 1
  80   40  158 1
  81   40  159 1
  82   41   42 2
  83   41   44 1
  84   41   54 am
  85   43   44 1
  86   43  160 1
  87   44   45 1
  88   44  161 1
  89   45   46 1
  90   45  162 1
  91   45  163 1
  92   46   47 1
  93   46  164 1
  94   46  165 1
  95   47   48 1
  96   47  166 1
  97   47  167 1
  98   48   49 1
  99   48  168 1
 100   49   50 2
 101   49   51 1
 102   50  169 1
 103   51  170 1
 104   51  171 1
 105   52   53 2
 106   52   55 1
 107   52   63 am
 108   54   55 1
 109   54  172 1
 110   55   56 1
 111   55  173 1
 112   56   57 1
 113   56  174 1
 114   56  175 1
 115   57   58 1
 116   57  176 1
 117   57  177 1
 118   58   59 1
 119   58  178 1
 120   58  179 1
 121   59   60 1
 122   59  180 1
 123   59  181 1
 124   60  182 1
 125   60  183 1
 126   61   62 2
 127   61   64 1
 128   61   77 am
 129   63   64 1
 130   63  184 1
 131   64   65 1
 132   64  185 1
 133   65   66 1
 134   65  186 1
 135   65  187 1
 136   66   67 2
 137   66   74 1
 138   67   68 1
 139   67  188 1
 140   68   69 1
 141   68  189 1
 142   69   70 ar
 143   69   74 ar
 144   70   71 ar
 145   70  190 1
 146   71   72 ar
 147   71  191 1
 148   72   73 ar
 149   72  192 1
 150   73   74 ar
 151   73  193 1
 152   75   76 2
 153   75   78 1
 154   75   85 am
 155   77   78 1
 156   77  194 1
 157   78   79 1
 158   78  195 1
 159   79   80 1
 160   79  196 1
 161   79  197 1
 162   80   81 1
 163   80  198 1
 164   80  199 1
 165   81   82 1
 166   82  200 1
 167   82  201 1
 168   82  202 1
 169   83   84 2
 170   83   86 1
 171   83   96 am
 172   85   86 1
 173   85  203 1
 174   86   87 1
 175   86  204 1
 176   87   88 1
 177   87  205 1
 178   87  206 1
 179   88   89 ar
 180   88   93 ar
 181   89   90 ar
 182   89  207 1
 183   90   91 ar
 184   90  208 1
 185   91   92 ar
 186   91  209 1
 187   92   93 ar
 188   92  210 1
 189   93  211 1
 190   94   95 2
 191   94   97 1
 192   94  102 1
 193   96   97 1
 194   96  212 1
 195   97   98 1
 196   97  213 1
 197   98   99 1
 198   98  101 1
 199   98  214 1
 200   99  100 1
 201   99  215 1
 202   99  216 1
 203  100  217 1
 204  100  218 1
 205  100  219 1
 206  101  220 1
 207  101  221 1
 208  101  222 1
 209  102  223 1
 210  103  104 2
 211  103  119 1
 212  105  106 1
 213  105  224 1
 214  105  225 1
 215  105  226 1
 216  106  107 1
 217  106  227 1
 218  106  228 1
 219  107  108 1
 220  107  229 1
 221  107  230 1
 222  108  109 1
 223  108  231 1
 224  108  232 1
 225  109  110 1
 226  109  233 1
 227  109  234 1
 228  110  111 1
 229  110  235 1
 230  110  236 1
 231  111  112 1
 232  111  237 1
 233  111  238 1
 234  112  113 1
 235  112  239 1
 236  112  240 1
 237  113  114 1
 238  113  241 1
 239  113  242 1
 240  114  115 1
 241  114  243 1
 242  114  244 1
 243  115  116 1
 244  115  245 1
 245  115  246 1
 246  116  117 1
 247  116  247 1
 248  116  248 1
 249  117  118 1
 250  117  249 1
 251  117  250 1
 252  118  119 1
 253  118  251 1
 254  118  252 1
 255  119  253 1
 256  119  254 1

#	End of record

