#	Name: ASD03730865
#	Creating user name:	WinNT
#	Creation time:	15. 06. 2019 20:44

#	Modifying user name:	WinNT
#	Modification time:	15. 06. 2019 20:44

#	Program:	/corina/corina34_cracker 3.40 0067  02.08.2006

@<TRIPOS>MOLECULE
ASD03730865
  55   61    0    0    0
SMALL
NO_CHARGES


@<TRIPOS>ATOM
   1 C1             1.5105    -1.0518    -2.6030 C.2     
   2 C2             0.7588    -1.2369    -1.3440 C.ar    
   3 C3             1.2900    -0.7797    -0.1365 C.ar    
   4 C4             0.5833    -0.9558     1.0349 C.ar    
   5 C5            -0.6494    -1.5844     1.0151 C.ar    
   6 C6            -1.1813    -2.0402    -0.1779 C.ar    
   7 C7            -0.4878    -1.8646    -1.3577 C.ar    
   8 O8             2.5470    -0.4167    -2.6043 O.2     
   9 N9             1.0496    -1.5917    -3.7486 N.am    
  10 S10            1.1594    -1.8501    -6.4861 S.3     
  11 C11            1.7020    -1.3370    -4.9481 C.2     
  12 N12            2.8107    -0.6753    -5.0645 N.2     
  13 C13            3.2925    -0.5265    -6.2843 C.2     
  14 C14            2.5558    -1.0892    -7.2442 C.2     
  15 C15            2.6327    -0.0958    -0.1129 C.3     
  16 O16            0.7673    -2.4160     6.4314 O.3     
  17 C17            0.8239    -2.3652     7.8692 C.3     
  18 O18            2.2056    -2.0709     8.1472 O.3     
  19 C19            2.6625    -1.3930     7.0534 C.ar    
  20 C20            1.7782    -1.6064     5.9984 C.ar    
  21 C21            3.7790    -0.5973     6.8698 C.ar    
  22 C22            4.0288    -0.0070     5.6345 C.ar    
  23 C23            3.1426    -0.2343     4.5859 C.ar    
  24 C24            2.0252    -1.0222     4.7675 C.ar    
  25 O25            5.0475     0.8148     5.2510 O.3     
  26 C26            3.6910     0.5030     3.3936 C.3     
  27 C27            5.1309     0.8289     3.8129 C.3     
  28 N28            2.9196     0.3701     1.2461 N.am    
  29 C29            3.6461    -0.3265     2.1427 C.2     
  30 C30            2.9062     1.7416     3.0778 C.ar    
  31 C31            2.5838     2.8722     3.7947 C.ar    
  32 C32            1.8239     3.8700     3.2106 C.ar    
  33 C33            1.3885     3.7286     1.9055 C.ar    
  34 C34            1.7079     2.5976     1.1836 C.ar    
  35 C35            2.4728     1.5884     1.7634 C.ar    
  36 O36            4.1628    -1.4106     1.9724 O.2     
  37 H37            0.9931    -0.6026     1.9696 H       
  38 H38           -1.1985    -1.7201     1.9351 H       
  39 H39           -2.1435    -2.5306    -0.1863 H       
  40 H40           -0.9065    -2.2163    -2.2891 H       
  41 H41            0.2624    -2.1583    -3.7355 H       
  42 H42            4.2084     0.0080    -6.4889 H       
  43 H43            2.7771    -1.0797    -8.3013 H       
  44 H44            3.4042    -0.7991    -0.4263 H       
  45 H45            2.6188     0.7555    -0.7935 H       
  46 H46            0.1794    -1.5728     8.2501 H       
  47 H47            0.5435    -3.3274     8.2978 H       
  48 H48            4.4615    -0.4330     7.6905 H       
  49 H49            1.3413    -1.1841     3.9474 H       
  50 H50            5.4257     1.8142     3.4518 H       
  51 H51            5.8203     0.0630     3.4576 H       
  52 H52            2.9247     2.9804     4.8138 H       
  53 H53            1.5716     4.7573     3.7723 H       
  54 H54            0.7952     4.5074     1.4496 H       
  55 H55            1.3638     2.4942     0.1651 H       
@<TRIPOS>BOND
   1    1    2 1
   2    1    8 2
   3    1    9 am
   4    2    3 ar
   5    2    7 ar
   6    3    4 ar
   7    3   15 1
   8    4    5 ar
   9    4   37 1
  10    5    6 ar
  11    5   38 1
  12    6    7 ar
  13    6   39 1
  14    7   40 1
  15    9   11 1
  16    9   41 1
  17   10   11 1
  18   10   14 1
  19   11   12 2
  20   12   13 1
  21   13   14 2
  22   13   42 1
  23   14   43 1
  24   15   28 1
  25   15   44 1
  26   15   45 1
  27   16   17 1
  28   16   20 1
  29   17   18 1
  30   17   46 1
  31   17   47 1
  32   18   19 1
  33   19   20 ar
  34   19   21 ar
  35   20   24 ar
  36   21   22 ar
  37   21   48 1
  38   22   23 ar
  39   22   25 1
  40   23   24 ar
  41   23   26 1
  42   24   49 1
  43   25   27 1
  44   26   27 1
  45   26   29 1
  46   26   30 1
  47   27   50 1
  48   27   51 1
  49   28   29 am
  50   28   35 1
  51   29   36 2
  52   30   31 ar
  53   30   35 ar
  54   31   32 ar
  55   31   52 1
  56   32   33 ar
  57   32   53 1
  58   33   34 ar
  59   33   54 1
  60   34   35 ar
  61   34   55 1

#	End of record

