#	Name: ASD08150544
#	Creating user name:	WinNT
#	Creation time:	15. 06. 2019 21:16

#	Modifying user name:	WinNT
#	Modification time:	15. 06. 2019 21:16

#	Program:	/corina/corina34_cracker 3.40 0067  02.08.2006

@<TRIPOS>MOLECULE
ASD08150544
  33   35    0    0    0
SMALL
NO_CHARGES


@<TRIPOS>ATOM
   1 N1            -0.0155     1.2942     0.0092 N.2     
   2 C2             0.0021    -0.0041     0.0020 C.2     
   3 N3             1.1487    -0.7361    -0.0129 N.am    
   4 C4             2.3560    -0.1245    -0.0206 C.2     
   5 C5             2.3702     1.3455    -0.0129 C.ar    
   6 C6             3.5601     2.0709    -0.0203 C.ar    
   7 C7             3.5158     3.4477    -0.0130 C.ar    
   8 C8             2.2978     4.1151     0.0021 C.ar    
   9 C9             1.1111     3.4174     0.0097 C.ar    
  10 C10            1.1297     2.0210     0.0021 C.ar    
  11 O11            3.3901    -0.7667    -0.0331 O.2     
  12 C12           -0.2018     4.1569     0.0266 C.3     
  13 F13            0.0392     5.5350     0.0321 F       
  14 F14           -0.9429     3.8176    -1.1105 F       
  15 F15           -0.9207     3.8047     1.1740 F       
  16 C16            1.0791    -2.1353    -0.0197 C.ar    
  17 C17            1.0560    -2.8374     1.1796 C.ar    
  18 C18            0.9874    -4.2176     1.1688 C.ar    
  19 C19            0.9422    -4.8995    -0.0336 C.ar    
  20 C20            0.9656    -4.2034    -1.2279 C.ar    
  21 C21            1.0274    -2.8232    -1.2242 C.ar    
  22 Cl22           1.1138    -1.9818     2.6890 Cl      
  23 C23           -1.3145    -0.7373     0.0112 C.3     
  24 Cl24          -2.6665     0.4554     0.0310 Cl      
  25 H25            4.5102     1.5573    -0.0314 H       
  26 H26            4.4360     4.0130    -0.0188 H       
  27 H27            2.2815     5.1950     0.0084 H       
  28 H28            0.9694    -4.7642     2.1001 H       
  29 H29            0.8890    -5.9781    -0.0395 H       
  30 H30            0.9309    -4.7391    -2.1650 H       
  31 H31            1.0403    -2.2803    -2.1577 H       
  32 H32           -1.3908    -1.3582    -0.8815 H       
  33 H33           -1.3731    -1.3677     0.8984 H       
@<TRIPOS>BOND
   1    1    2 2
   2    1   10 1
   3    2    3 1
   4    2   23 1
   5    3    4 am
   6    3   16 1
   7    4    5 1
   8    4   11 2
   9    5    6 ar
  10    5   10 ar
  11    6    7 ar
  12    6   25 1
  13    7    8 ar
  14    7   26 1
  15    8    9 ar
  16    8   27 1
  17    9   10 ar
  18    9   12 1
  19   12   13 1
  20   12   14 1
  21   12   15 1
  22   16   17 ar
  23   16   21 ar
  24   17   18 ar
  25   17   22 1
  26   18   19 ar
  27   18   28 1
  28   19   20 ar
  29   19   29 1
  30   20   21 ar
  31   20   30 1
  32   21   31 1
  33   23   24 1
  34   23   32 1
  35   23   33 1

#	End of record

