#	Name: ASD01000050
#	Creating user name:	WinNT
#	Creation time:	15. 06. 2019 18:54

#	Modifying user name:	WinNT
#	Modification time:	15. 06. 2019 18:54

#	Program:	/corina/corina34_cracker 3.40 0067  02.08.2006

@<TRIPOS>MOLECULE
ASD01000050
  31   33    0    0    0
SMALL
NO_CHARGES


@<TRIPOS>ATOM
   1 C1            -0.0183     1.5011     0.0103 C.3     
   2 C2             0.0021    -0.0041     0.0020 C.2     
   3 C3             1.1221    -0.7245    -0.2544 C.2     
   4 N4             2.3344    -0.1185    -0.5170 N.pl3   
   5 N5             1.3507     2.0088    -0.0000 N.pl3   
   6 N6             1.8223     3.3014     0.2269 N.2     
   7 C7             2.4386     1.2405    -0.2528 C.2     
   8 N8             3.4948     2.0050    -0.1924 N.2     
   9 C9             3.1253     3.2560     0.0998 C.2     
  10 C10           -0.7479     1.9999    -1.2103 C.ar    
  11 C11           -1.8813     2.7784    -1.0681 C.ar    
  12 C12           -2.5505     3.2359    -2.1878 C.ar    
  13 C13           -2.0861     2.9153    -3.4497 C.ar    
  14 C14           -0.9522     2.1375    -3.5919 C.ar    
  15 C15           -0.2805     1.6836    -2.4723 C.ar    
  16 C16           -2.8163     3.4132    -4.6704 C.3     
  17 N17            1.0483    -2.0965    -0.2523 N.pl3   
  18 C18           -1.2151    -0.7064     0.2776 C.1     
  19 N19           -2.1806    -1.2635     0.4962 N.1     
  20 H20           -0.5290     1.8523     0.9069 H       
  21 H21            3.0836    -0.6222    -0.8718 H       
  22 H22            3.7947     4.0960     0.2125 H       
  23 H23           -2.2441     3.0289    -0.0822 H       
  24 H24           -3.4364     3.8436    -2.0767 H       
  25 H25           -0.5896     1.8867    -4.5778 H       
  26 H26            0.6075     1.0790    -2.5834 H       
  27 H27           -2.4115     4.3810    -4.9663 H       
  28 H28           -2.6886     2.7012    -5.4858 H       
  29 H29           -3.8770     3.5176    -4.4419 H       
  30 H30            0.2035    -2.5365    -0.0692 H       
  31 H31            1.8411    -2.6251    -0.4340 H       
@<TRIPOS>BOND
   1    1    2 1
   2    1    5 1
   3    1   10 1
   4    1   20 1
   5    2    3 2
   6    2   18 1
   7    3    4 1
   8    3   17 1
   9    4    7 1
  10    4   21 1
  11    5    7 1
  12    5    6 1
  13    6    9 2
  14    7    8 2
  15    8    9 1
  16    9   22 1
  17   10   11 ar
  18   10   15 ar
  19   11   12 ar
  20   11   23 1
  21   12   13 ar
  22   12   24 1
  23   13   14 ar
  24   13   16 1
  25   14   15 ar
  26   14   25 1
  27   15   26 1
  28   16   27 1
  29   16   28 1
  30   16   29 1
  31   17   30 1
  32   17   31 1
  33   18   19 3

#	End of record

