#	Name: ASD03331913
#	Creating user name:	WinNT
#	Creation time:	15. 06. 2019 20:40

#	Modifying user name:	WinNT
#	Modification time:	15. 06. 2019 20:40

#	Program:	/corina/corina34_cracker 3.40 0067  02.08.2006

@<TRIPOS>MOLECULE
ASD03331913
  60   62    0    0    0
SMALL
NO_CHARGES


@<TRIPOS>ATOM
   1 C1            -0.0624     2.0062     1.7855 C.2     
   2 N2            -0.1519     0.7149     2.2016 N.pl3   
   3 C3             1.0647     0.1329     1.9952 C.2     
   4 N4             1.8782     1.0312     1.4912 N.2     
   5 C5             1.2139     2.1997     1.3521 C.2     
   6 C6             1.7710     3.4582     0.8256 C.2     
   7 O7             1.0693     4.4485     0.7483 O.2     
   8 N8             3.0582     3.5118     0.4298 N.am    
   9 C9             3.6121     4.7630    -0.0937 C.3     
  10 C10            3.3011     4.8728    -1.5877 C.3     
  11 C11            4.0062     3.7424    -2.3399 C.3     
  12 C12            5.1051     4.7758     0.1109 C.2     
  13 C13            1.7902     4.7642    -1.8034 C.3     
  14 C14            3.7957     6.2217    -2.1138 C.3     
  15 O15            5.6876     3.7495     0.3909 O.2     
  16 N16            5.7930     5.9276    -0.0174 N.am    
  17 C17            7.2526     5.9270     0.1082 C.3     
  18 C18           -1.3439     0.0887     2.7801 C.3     
  19 C19           -2.5609     0.4318     1.9153 C.3     
  20 C20           -3.1679     1.7518     2.3795 C.3     
  21 N21           -2.1322     2.6671     2.8628 N.3     
  22 C22           -1.1832     3.0132     1.7941 C.3     
  23 C23           -2.7287     3.8749     3.4486 C.3     
  24 C24            1.4093    -1.2745     2.2905 C.ar    
  25 C25            2.0951    -2.0421     1.3455 C.ar    
  26 C26            1.0562    -1.8400     3.5164 C.ar    
  27 C27            1.3800    -3.1530     3.7865 C.ar    
  28 C28            2.0552    -3.9117     2.8445 C.ar    
  29 C29            2.4138    -3.3570     1.6285 C.ar    
  30 F30            2.4452    -1.5007     0.1583 F       
  31 Cl31           2.4597    -5.5634     3.1938 Cl      
  32 H32            3.6179     2.7219     0.4914 H       
  33 H33            3.1660     5.6063     0.4333 H       
  34 H34            3.6538     2.7814    -1.9651 H       
  35 H35            3.7846     3.8207    -3.4042 H       
  36 H36            5.0825     3.8198    -2.1862 H       
  37 H37            1.2879     5.5695    -1.2675 H       
  38 H38            1.5686     4.8424    -2.8677 H       
  39 H39            1.4379     3.8032    -1.4286 H       
  40 H40            4.8402     6.3598    -1.8344 H       
  41 H41            3.7040     6.2439    -3.1997 H       
  42 H42            3.1952     7.0224    -1.6820 H       
  43 H43            5.3217     6.7570    -0.1930 H       
  44 H44            7.6291     6.9413    -0.0245 H       
  45 H45            7.5321     5.5621     1.0966 H       
  46 H46            7.6826     5.2772    -0.6540 H       
  47 H47           -1.2100    -0.9927     2.8081 H       
  48 H48           -1.4982     0.4641     3.7917 H       
  49 H49           -2.2518     0.5213     0.8739 H       
  50 H50           -3.3042    -0.3604     2.0050 H       
  51 H51           -3.6947     2.2160     1.5458 H       
  52 H52           -3.8762     1.5562     3.1846 H       
  53 H53           -0.7776     4.0086     1.9752 H       
  54 H54           -1.6956     2.9966     0.8322 H       
  55 H55           -3.3667     3.5951     4.2870 H       
  56 H56           -1.9374     4.5374     3.7995 H       
  57 H57           -3.3246     4.3885     2.6942 H       
  58 H58            0.5303    -1.2502     4.2526 H       
  59 H59            1.1067    -3.5909     4.7352 H       
  60 H60            2.9398    -3.9536     0.8979 H       
@<TRIPOS>BOND
   1    1    2 1
   2    1    5 2
   3    1   22 1
   4    2    3 1
   5    2   18 1
   6    3    4 2
   7    3   24 1
   8    4    5 1
   9    5    6 1
  10    6    7 2
  11    6    8 am
  12    8    9 1
  13    8   32 1
  14    9   10 1
  15    9   12 1
  16    9   33 1
  17   10   11 1
  18   10   13 1
  19   10   14 1
  20   11   34 1
  21   11   35 1
  22   11   36 1
  23   12   15 2
  24   12   16 am
  25   13   37 1
  26   13   38 1
  27   13   39 1
  28   14   40 1
  29   14   41 1
  30   14   42 1
  31   16   17 1
  32   16   43 1
  33   17   44 1
  34   17   45 1
  35   17   46 1
  36   18   19 1
  37   18   47 1
  38   18   48 1
  39   19   20 1
  40   19   49 1
  41   19   50 1
  42   20   21 1
  43   20   51 1
  44   20   52 1
  45   21   22 1
  46   21   23 1
  47   22   53 1
  48   22   54 1
  49   23   55 1
  50   23   56 1
  51   23   57 1
  52   24   25 ar
  53   24   26 ar
  54   25   30 1
  55   25   29 ar
  56   26   27 ar
  57   26   58 1
  58   27   28 ar
  59   27   59 1
  60   28   29 ar
  61   28   31 1
  62   29   60 1

#	End of record

