#	Name: ASD06352005
#	Creating user name:	WinNT
#	Creation time:	15. 06. 2019 21:06

#	Modifying user name:	WinNT
#	Modification time:	15. 06. 2019 21:06

#	Program:	/corina/corina34_cracker 3.40 0067  02.08.2006

@<TRIPOS>MOLECULE
ASD06352005
  89   89    0    0    0
SMALL
NO_CHARGES


@<TRIPOS>ATOM
   1 C1            -0.1642     1.7760     0.6565 C.2     
   2 O2             0.0664     0.6088     0.4209 O.2     
   3 N3             2.1462     1.9507     1.3889 N.3     
   4 C4             0.9689     2.7204     0.9654 C.3     
   5 C5             1.3126     3.5311    -0.2858 C.3     
   6 C6             0.0863     4.3328    -0.7269 C.3     
   7 C7             2.4629     4.4899     0.0278 C.3     
   8 C8            -3.6976     2.0930    -0.2254 C.2     
   9 O9            -3.8214     3.2696     0.0412 O.2     
  10 N10           -1.4331     2.2297     0.6364 N.am    
  11 C11           -2.5340     1.3129     0.3302 C.3     
  12 C12           -2.9673     0.5914     1.6079 C.3     
  13 C13           -1.8336    -0.3153     2.0911 C.3     
  14 C14           -3.2924     1.6225     2.6906 C.3     
  15 C15           -7.0183     1.3559    -1.1851 C.2     
  16 O16           -6.8955     0.2582    -0.6841 O.2     
  17 N17           -4.6006     1.4831    -1.0185 N.am    
  18 C18           -5.8008     2.2034    -1.4507 C.3     
  19 C19           -5.7045     2.5027    -2.9480 C.3     
  20 C20           -4.5284     3.4094    -3.2045 C.2     
  21 O21           -3.8074     3.7413    -2.2875 O.2     
  22 N22           -4.2778     3.8513    -4.4528 N.am    
  23 C23          -10.6617     1.7348    -1.6906 C.2     
  24 O24          -10.5627     2.8421    -2.1754 O.2     
  25 N25           -8.2435     1.8177    -1.5043 N.am    
  26 C26           -9.4271     0.9938    -1.2461 C.3     
  27 C27          -14.2685     1.3861    -1.2084 C.2     
  28 O28          -14.1295     0.5131    -0.3781 O.2     
  29 N29          -11.8758     1.1670    -1.5495 N.am    
  30 C30          -13.0761     1.8873    -1.9817 C.3     
  31 C31          -13.3018     1.6516    -3.4765 C.3     
  32 C32          -13.4847     0.1547    -3.7349 C.3     
  33 C33          -13.8337    -0.0697    -5.2075 C.3     
  34 C34          -12.0912     2.1605    -4.2616 C.3     
  35 C35          -17.0278     0.0617    -1.0344 C.2     
  36 O36          -16.2797    -0.5868    -1.7270 O.2     
  37 N37          -15.4894     1.9079    -1.4396 N.am    
  38 C38          -16.7324     1.5138    -0.7604 C.3     
  39 C39          -17.8643     2.3959    -1.3282 C.3     
  40 C40          -17.0999     3.6251    -1.8869 C.3     
  41 C41          -15.7988     2.9730    -2.4109 C.3     
  42 O42          -18.1220    -0.5114    -0.5089 O.3     
  43 H43            2.4432     1.3156     0.6633 H       
  44 H44            2.8993     2.5636     1.6634 H       
  45 H45            0.6699     3.3970     1.7659 H       
  46 H46            1.6116     2.8545    -1.0864 H       
  47 H47            0.3312     4.9104    -1.6183 H       
  48 H48           -0.7332     3.6497    -0.9503 H       
  49 H49           -0.2126     5.0094     0.0737 H       
  50 H50            3.3365     3.9188     0.3420 H       
  51 H51            2.7078     5.0675    -0.8636 H       
  52 H52            2.1639     5.1665     0.8284 H       
  53 H53           -1.6175     3.1632     0.8248 H       
  54 H54           -2.2029     0.5806    -0.4061 H       
  55 H55           -3.8521    -0.0112     1.4027 H       
  56 H56           -0.9883     0.2965     2.4063 H       
  57 H57           -2.1814    -0.9153     2.9320 H       
  58 H58           -1.5232    -0.9730     1.2792 H       
  59 H59           -4.1001     2.2684     2.3464 H       
  60 H60           -3.6010     1.1085     3.6009 H       
  61 H61           -2.4076     2.2251     2.8958 H       
  62 H62           -4.4558     0.5671    -1.3031 H       
  63 H63           -5.8818     3.1392    -0.8976 H       
  64 H64           -5.5712     1.5705    -3.4970 H       
  65 H65           -6.6199     2.9923    -3.2803 H       
  66 H66           -4.8545     3.5858    -5.1862 H       
  67 H67           -3.5208     4.4349    -4.6178 H       
  68 H68           -8.3418     2.6956    -1.9049 H       
  69 H69           -9.4957     0.7806    -0.1793 H       
  70 H70           -9.3460     0.0580    -1.7991 H       
  71 H71          -11.9550     0.2814    -1.1618 H       
  72 H72          -12.9458     2.9538    -1.7976 H       
  73 H73          -14.1948     2.1876    -3.7980 H       
  74 H74          -12.5599    -0.3707    -3.4965 H       
  75 H75          -14.2910    -0.2263    -3.1082 H       
  76 H76          -13.9640    -1.1361    -5.3916 H       
  77 H77          -14.7585     0.4558    -5.4459 H       
  78 H78          -13.0274     0.3113    -5.8342 H       
  79 H79          -11.1982     1.6246    -3.9400 H       
  80 H80          -12.2520     1.9926    -5.3265 H       
  81 H81          -11.9609     3.2269    -4.0775 H       
  82 H82          -16.6357     1.6762     0.3131 H       
  83 H83          -18.3947     1.8762    -2.1261 H       
  84 H84          -18.5524     2.6961    -0.5380 H       
  85 H85          -17.6567     4.0962    -2.6970 H       
  86 H86          -16.8823     4.3425    -1.0957 H       
  87 H87          -14.9921     3.7054    -2.4404 H       
  88 H88          -15.9625     2.5476    -3.4010 H       
  89 H89          -18.2694    -1.4451    -0.7126 H       
@<TRIPOS>BOND
   1    1    2 2
   2    1    4 1
   3    1   10 am
   4    3    4 1
   5    3   43 1
   6    3   44 1
   7    4    5 1
   8    4   45 1
   9    5    6 1
  10    5    7 1
  11    5   46 1
  12    6   47 1
  13    6   48 1
  14    6   49 1
  15    7   50 1
  16    7   51 1
  17    7   52 1
  18    8    9 2
  19    8   11 1
  20    8   17 am
  21   10   11 1
  22   10   53 1
  23   11   12 1
  24   11   54 1
  25   12   13 1
  26   12   14 1
  27   12   55 1
  28   13   56 1
  29   13   57 1
  30   13   58 1
  31   14   59 1
  32   14   60 1
  33   14   61 1
  34   15   16 2
  35   15   18 1
  36   15   25 am
  37   17   18 1
  38   17   62 1
  39   18   19 1
  40   18   63 1
  41   19   20 1
  42   19   64 1
  43   19   65 1
  44   20   21 2
  45   20   22 am
  46   22   66 1
  47   22   67 1
  48   23   24 2
  49   23   26 1
  50   23   29 am
  51   25   26 1
  52   25   68 1
  53   26   69 1
  54   26   70 1
  55   27   28 2
  56   27   30 1
  57   27   37 am
  58   29   30 1
  59   29   71 1
  60   30   31 1
  61   30   72 1
  62   31   32 1
  63   31   34 1
  64   31   73 1
  65   32   33 1
  66   32   74 1
  67   32   75 1
  68   33   76 1
  69   33   77 1
  70   33   78 1
  71   34   79 1
  72   34   80 1
  73   34   81 1
  74   35   36 2
  75   35   42 1
  76   35   38 1
  77   37   38 1
  78   37   41 1
  79   38   39 1
  80   38   82 1
  81   39   40 1
  82   39   83 1
  83   39   84 1
  84   40   41 1
  85   40   85 1
  86   40   86 1
  87   41   87 1
  88   41   88 1
  89   42   89 1

#	End of record

