#	Name: ASD01884104
#	Creating user name:	WinNT
#	Creation time:	15. 06. 2019 19:47

#	Modifying user name:	WinNT
#	Modification time:	15. 06. 2019 19:47

#	Program:	/corina/corina34_cracker 3.40 0067  02.08.2006

@<TRIPOS>MOLECULE
ASD01884104
  63   66    0    0    0
SMALL
NO_CHARGES


@<TRIPOS>ATOM
   1 C1            -0.0168     1.3884     0.0097 C.2     
   2 C2             0.0021    -0.0041     0.0020 C.2     
   3 C3            -1.2095    -0.6965     0.0104 C.2     
   4 C4            -2.3831    -0.0157     0.0252 C.2     
   5 N5            -2.4093     1.3392     0.0327 N.am    
   6 C6            -1.2693     2.0558     0.0312 C.2     
   7 O7            -1.3129     3.2741     0.0380 O.2     
   8 C8            -3.6983     2.0352     0.0483 C.3     
   9 C9            -4.1273     2.2662     1.4744 C.ar    
  10 C10            1.2059     2.1337     0.0020 C.1     
  11 N11            2.1759     2.7249    -0.0041 N.1     
  12 C12            1.3105    -0.7515    -0.0155 C.3     
  13 N13            1.6901    -1.1066     1.3585 N.3     
  14 C14            2.8290    -2.0352     1.3670 C.3     
  15 C15            3.2431    -2.3172     2.8131 C.3     
  16 N16            2.1012    -2.8822     3.5456 N.3     
  17 C17            0.9623    -1.9536     3.5371 C.3     
  18 C18            0.5482    -1.6716     2.0910 C.3     
  19 C19            2.4808    -3.2373     4.9196 C.3     
  20 C20           -3.7545     3.4263     2.1279 C.ar    
  21 C21           -4.1464     3.6404     3.4352 C.ar    
  22 C22           -4.9147     2.6903     4.0923 C.ar    
  23 C23           -5.2875     1.5272     3.4343 C.ar    
  24 C24           -4.8977     1.3204     2.1252 C.ar    
  25 C25            1.2251    -3.5842     5.7220 C.3     
  26 C26            1.6145    -3.9485     7.1316 C.ar    
  27 C27            1.6847    -2.9688     8.1043 C.ar    
  28 C28            2.0419    -3.3029     9.3972 C.ar    
  29 C29            2.3284    -4.6168     9.7175 C.ar    
  30 C30            2.2573    -5.5966     8.7450 C.ar    
  31 C31            1.8959    -5.2631     7.4531 C.ar    
  32 O32           -5.3012     2.8985     5.3784 O.3     
  33 C33           -6.0908     1.8776     5.9919 C.3     
  34 F34           -5.3726     0.6771     6.0047 F       
  35 F35           -6.3981     2.2513     7.3045 F       
  36 F36           -7.2748     1.7050     5.2669 F       
  37 H37           -1.2130    -1.7765     0.0046 H       
  38 H38           -3.3137    -0.5638     0.0308 H       
  39 H39           -3.5999     2.9937    -0.4613 H       
  40 H40           -4.4456     1.4275    -0.4619 H       
  41 H41            1.2023    -1.6595    -0.6087 H       
  42 H42            2.0835    -0.1207    -0.4544 H       
  43 H43            2.5411    -2.9683     0.8826 H       
  44 H44            3.6659    -1.5892     0.8295 H       
  45 H45            4.0692    -3.0283     2.8228 H       
  46 H46            3.5569    -1.3883     3.2893 H       
  47 H47            0.1254    -2.3996     4.0746 H       
  48 H48            1.2502    -1.0205     4.0215 H       
  49 H49           -0.2779    -0.9605     2.0813 H       
  50 H50            0.2344    -2.6005     1.6148 H       
  51 H51            3.1494    -4.0979     4.9010 H       
  52 H52            2.9883    -2.3929     5.3861 H       
  53 H53           -3.1561     4.1654     1.6161 H       
  54 H54           -3.8547     4.5465     3.9453 H       
  55 H55           -5.8856     0.7861     3.9437 H       
  56 H56           -5.1876     0.4151     1.6125 H       
  57 H57            0.5565    -2.7236     5.7407 H       
  58 H58            0.7176    -4.4285     5.2556 H       
  59 H59            1.4609    -1.9423     7.8541 H       
  60 H60            2.0975    -2.5374    10.1571 H       
  61 H61            2.6082    -4.8777    10.7275 H       
  62 H62            2.4814    -6.6230     8.9952 H       
  63 H63            1.8403    -6.0286     6.6932 H       
@<TRIPOS>BOND
   1    1    2 2
   2    1   10 1
   3    1    6 1
   4    2    3 1
   5    2   12 1
   6    3    4 2
   7    3   37 1
   8    4    5 1
   9    4   38 1
  10    5    6 am
  11    5    8 1
  12    6    7 2
  13    8    9 1
  14    8   39 1
  15    8   40 1
  16    9   20 ar
  17    9   24 ar
  18   10   11 3
  19   12   13 1
  20   12   41 1
  21   12   42 1
  22   13   14 1
  23   13   18 1
  24   14   15 1
  25   14   43 1
  26   14   44 1
  27   15   16 1
  28   15   45 1
  29   15   46 1
  30   16   17 1
  31   16   19 1
  32   17   18 1
  33   17   47 1
  34   17   48 1
  35   18   49 1
  36   18   50 1
  37   19   25 1
  38   19   51 1
  39   19   52 1
  40   20   21 ar
  41   20   53 1
  42   21   22 ar
  43   21   54 1
  44   22   32 1
  45   22   23 ar
  46   23   24 ar
  47   23   55 1
  48   24   56 1
  49   25   26 1
  50   25   57 1
  51   25   58 1
  52   26   27 ar
  53   26   31 ar
  54   27   28 ar
  55   27   59 1
  56   28   29 ar
  57   28   60 1
  58   29   30 ar
  59   29   61 1
  60   30   31 ar
  61   30   62 1
  62   31   63 1
  63   32   33 1
  64   33   34 1
  65   33   35 1
  66   33   36 1

#	End of record

