#	Name: ASD01260009
#	Creating user name:	WinNT
#	Creation time:	15. 06. 2019 19:15

#	Modifying user name:	WinNT
#	Modification time:	15. 06. 2019 19:15

#	Program:	/corina/corina34_cracker 3.40 0067  02.08.2006

@<TRIPOS>MOLECULE
ASD01260009
  30   29    0    0    0
SMALL
NO_CHARGES


@<TRIPOS>ATOM
   1 O1            -0.0173     1.4248     0.0099 O.3     
   2 C2             0.0021    -0.0041     0.0020 C.3     
   3 C3            -1.4333    -0.5336     0.0129 C.3     
   4 C4            -1.4133    -2.0590     0.1302 C.3     
   5 C5            -2.8486    -2.5886     0.1411 C.3     
   6 C6            -2.8331    -4.0992     0.3833 C.3     
   7 C7            -4.2478    -4.6012     0.5164 C.2     
   8 O8            -4.6287    -5.0631     1.5659 O.2     
   9 O9            -5.0846    -4.5353    -0.5310 O.3     
  10 P10           -6.5790    -5.0918    -0.3088 P.3     
  11 O11           -6.5180    -6.4869     0.1815 O.2     
  12 O12           -7.3376    -4.1747     0.7754 O.3     
  13 O13           -7.3810    -5.0479    -1.7041 O.3     
  14 O14           -2.1125    -4.3816     1.5846 O.3     
  15 O15           -3.5854    -1.9465     1.1837 O.3     
  16 O16           -0.7577    -2.4349     1.3431 O.3     
  17 O17           -2.0889    -0.1578    -1.2000 O.3     
  18 H18            0.8606     1.8301     0.0037 H       
  19 H19            0.5123    -0.3556    -0.8948 H       
  20 H20            0.5293    -0.3651     0.8851 H       
  21 H21           -1.9701    -0.1109     0.8621 H       
  22 H22           -0.8764    -2.4817    -0.7190 H       
  23 H23           -3.3204    -2.3794    -0.8190 H       
  24 H24           -2.3485    -4.5969    -0.4566 H       
  25 H25           -7.4143    -3.2453     0.5195 H       
  26 H26           -8.2910    -5.3696    -1.6450 H       
  27 H27           -2.4882    -3.9698     2.3747 H       
  28 H28           -3.2216    -2.0900     2.0681 H       
  29 H29           -1.1820    -2.0928     2.1418 H       
  30 H30           -1.6646    -0.4999    -1.9987 H       
@<TRIPOS>BOND
   1    1    2 1
   2    1   18 1
   3    2    3 1
   4    2   19 1
   5    2   20 1
   6    3    4 1
   7    3   17 1
   8    3   21 1
   9    4    5 1
  10    4   16 1
  11    4   22 1
  12    5    6 1
  13    5   15 1
  14    5   23 1
  15    6    7 1
  16    6   14 1
  17    6   24 1
  18    7    8 2
  19    7    9 1
  20    9   10 1
  21   10   11 2
  22   10   12 1
  23   10   13 1
  24   12   25 1
  25   13   26 1
  26   14   27 1
  27   15   28 1
  28   16   29 1
  29   17   30 1

#	End of record

