#	Name: ASD01911852
#	Creating user name:	WinNT
#	Creation time:	15. 06. 2019 19:58

#	Modifying user name:	WinNT
#	Modification time:	15. 06. 2019 19:58

#	Program:	/corina/corina34_cracker 3.40 0067  02.08.2006

@<TRIPOS>MOLECULE
ASD01911852
  35   37    0    0    0
SMALL
NO_CHARGES


@<TRIPOS>ATOM
   1 C1            -1.0605    -0.5026    -2.0836 C.ar    
   2 C2            -1.0562     0.0558    -0.8089 C.ar    
   3 C3            -1.0050     1.4360    -0.6783 C.ar    
   4 N4            -0.9610     2.2113    -1.7436 N.ar    
   5 C5            -0.9637     1.7144    -2.9649 C.ar    
   6 C6            -1.0132     0.3488    -3.1754 C.ar    
   7 O7            -1.1019    -0.7395     0.2920 O.3     
   8 C8            -1.1523    -2.0846     0.1058 C.ar    
   9 C9            -0.0017    -2.7820    -0.2368 C.ar    
  10 C10           -0.0515    -4.1497    -0.4266 C.ar    
  11 C11           -1.2459    -4.8277    -0.2767 C.ar    
  12 C12           -2.4004    -4.1352     0.0660 C.ar    
  13 C13           -2.3512    -2.7620     0.2631 C.ar    
  14 N14           -3.6093    -4.8213     0.2173 N.am    
  15 C15           -4.7715    -4.2166    -0.0993 C.2     
  16 C16           -6.0502    -4.8996     0.1569 C.2     
  17 O17           -4.7638    -3.1066    -0.5965 O.2     
  18 S18           -6.2312    -6.5003     0.8681 S.3     
  19 C19           -7.9327    -6.3726     0.7449 C.2     
  20 C20           -8.2457    -5.1862     0.2006 C.2     
  21 N21           -7.2347    -4.4146    -0.1011 N.2     
  22 C22           -9.6730    -4.7679    -0.0422 C.3     
  23 H23           -1.0953    -1.5736    -2.2184 H       
  24 H24           -1.0016     1.8798     0.3063 H       
  25 H25           -0.9270     2.3830    -3.8122 H       
  26 H26           -1.0147    -0.0495    -4.1793 H       
  27 H27            0.9333    -2.2547    -0.3554 H       
  28 H28            0.8451    -4.6897    -0.6930 H       
  29 H29           -1.2821    -5.8967    -0.4263 H       
  30 H30           -3.2472    -2.2212     0.5299 H       
  31 H31           -3.6115    -5.7324     0.5500 H       
  32 H32           -8.6416    -7.1260     1.0552 H       
  33 H33          -10.0533    -4.2466     0.8363 H       
  34 H34           -9.7151    -4.1036    -0.9054 H       
  35 H35          -10.2829    -5.6509    -0.2332 H       
@<TRIPOS>BOND
   1    1    2 ar
   2    1    6 ar
   3    1   23 1
   4    2    3 ar
   5    2    7 1
   6    3    4 ar
   7    3   24 1
   8    4    5 ar
   9    5    6 ar
  10    5   25 1
  11    6   26 1
  12    7    8 1
  13    8    9 ar
  14    8   13 ar
  15    9   10 ar
  16    9   27 1
  17   10   11 ar
  18   10   28 1
  19   11   12 ar
  20   11   29 1
  21   12   13 ar
  22   12   14 1
  23   13   30 1
  24   14   15 am
  25   14   31 1
  26   15   16 1
  27   15   17 2
  28   16   18 1
  29   16   21 2
  30   18   19 1
  31   19   20 2
  32   19   32 1
  33   20   21 1
  34   20   22 1
  35   22   33 1
  36   22   34 1
  37   22   35 1

#	End of record

