#	Name: ASD06590056
#	Creating user name:	WinNT
#	Creation time:	15. 06. 2019 21:06

#	Modifying user name:	WinNT
#	Modification time:	15. 06. 2019 21:06

#	Program:	/corina/corina34_cracker 3.40 0067  02.08.2006

@<TRIPOS>MOLECULE
ASD06590056
 267  271    0    0    0
SMALL
NO_CHARGES


@<TRIPOS>ATOM
   1 C1             0.1877     5.7094    -6.0527 C.2     
   2 O2             0.3456     4.5097    -5.9699 O.2     
   3 N3             2.5760     5.7940    -6.4745 N.am    
   4 C4             1.3644     6.6063    -6.3390 C.3     
   5 C5            -3.4525     6.0423    -6.0814 C.2     
   6 O6            -3.4037     7.1438    -6.5868 O.2     
   7 N7            -1.0411     6.2398    -5.8942 N.am    
   8 C8            -2.1860     5.3673    -5.6218 C.3     
   9 C9            -2.2713     5.0919    -4.1192 C.3     
  10 O10           -2.5512     6.3102    -3.4268 O.3     
  11 C11           -7.0404     5.5372    -5.5965 C.2     
  12 O12           -6.8630     4.6872    -4.7498 O.2     
  13 N13           -4.6396     5.4220    -5.9309 N.am    
  14 C14           -5.8708     6.0782    -6.3778 C.3     
  15 C15           -6.0826     5.8045    -7.8681 C.3     
  16 C16           -4.9590     6.4617    -8.6721 C.3     
  17 C17           -5.1676     6.1922   -10.1400 C.2     
  18 O18           -6.1176     5.5412   -10.5057 O.2     
  19 O19           -4.2982     6.6752   -11.0413 O.3     
  20 C20          -10.6832     5.6387    -5.8849 C.2     
  21 O21          -10.6377     6.1467    -6.9852 O.2     
  22 N22           -8.2836     5.9980    -5.8387 N.am    
  23 C23           -9.4206     5.4720    -5.0791 C.3     
  24 C24           -9.5518     6.2382    -3.7613 C.3     
  25 C25           -8.3234     5.9683    -2.8900 C.3     
  26 C26           -8.4546     6.7345    -1.5722 C.3     
  27 C27           -7.2262     6.4646    -0.7009 C.3     
  28 N28           -7.3521     7.2002     0.5644 N.3     
  29 C29          -14.2754     5.4409    -5.2369 C.2     
  30 O30          -14.1110     5.3539    -4.0384 O.2     
  31 N31          -11.8628     5.2231    -5.3827 N.am    
  32 C32          -13.0902     5.3851    -6.1660 C.3     
  33 C33          -13.2460     4.1997    -7.1208 C.3     
  34 C34          -12.1081     4.2156    -8.1435 C.3     
  35 C35          -12.2640     3.0303    -9.0982 C.3     
  36 C36          -11.1261     3.0462   -10.1209 C.3     
  37 N37          -11.2757     1.9081   -11.0376 N.3     
  38 C38          -17.9074     5.1976    -5.5713 C.2     
  39 O39          -17.8341     4.8682    -6.7363 O.2     
  40 N40          -15.5180     5.5874    -5.7377 N.am    
  41 C41          -16.6701     5.6416    -4.8345 C.3     
  42 C42          -16.8604     7.0756    -4.3361 C.3     
  43 C43          -15.6756     7.4766    -3.4955 C.ar    
  44 C44          -14.5789     8.0739    -4.0890 C.ar    
  45 C45          -13.4914     8.4420    -3.3207 C.ar    
  46 C46          -13.5005     8.2124    -1.9526 C.ar    
  47 O47          -12.4321     8.5740    -1.1946 O.3     
  48 C48          -14.6024     7.6134    -1.3595 C.ar    
  49 C49          -15.6895     7.2519    -2.1314 C.ar    
  50 C50          -21.5153     5.3388    -5.0000 C.2     
  51 O51          -21.3902     6.0589    -4.0322 O.2     
  52 N52          -19.0955     5.1665    -4.9358 N.am    
  53 C53          -20.2984     4.7348    -5.6521 C.3     
  54 C54          -20.3994     3.2088    -5.6059 C.3     
  55 C55          -19.2279     2.5966    -6.3763 C.3     
  56 C56          -19.2585     1.0743    -6.2259 C.3     
  57 C57          -19.3428     2.9652    -7.8568 C.3     
  58 C58          -25.1287     4.8046    -5.1446 C.2     
  59 O59          -25.0096     3.7992    -5.8125 O.2     
  60 N60          -22.7427     5.0787    -5.4923 N.am    
  61 C61          -23.9257     5.6659    -4.8583 C.3     
  62 C62          -24.1596     7.0707    -5.4174 C.3     
  63 C63          -23.0118     7.9650    -5.0251 C.2     
  64 C64          -22.9639     8.7823    -3.9613 C.2     
  65 N65          -21.7623     9.4361    -3.9291 N.pl3   
  66 C66          -20.9880     9.0456    -4.9985 C.ar    
  67 C67          -19.7124     9.3894    -5.4334 C.ar    
  68 C68          -19.1984     8.8094    -6.5727 C.ar    
  69 C69          -19.9409     7.8840    -7.2928 C.ar    
  70 C70          -21.1965     7.5321    -6.8837 C.ar    
  71 C71          -21.7344     8.1025    -5.7288 C.ar    
  72 C72          -28.7234     4.9181    -4.2848 C.2     
  73 O73          -28.6236     5.9467    -3.6500 O.2     
  74 N74          -26.3370     5.1514    -4.6586 N.am    
  75 C75          -27.5064     4.3141    -4.9369 C.3     
  76 C76          -32.1249     3.8229    -3.5144 C.2     
  77 O77          -31.8866     2.6761    -3.8287 O.2     
  78 N78          -29.9226     4.3153    -4.4070 N.am    
  79 C79          -31.1056     4.9024    -3.7730 C.3     
  80 C80          -31.7078     5.9612    -4.6989 C.3     
  81 C81          -30.7345     7.1005    -4.8591 C.ar    
  82 C82          -29.8006     7.0737    -5.8780 C.ar    
  83 C83          -28.9078     8.1187    -6.0249 C.ar    
  84 C84          -28.9491     9.1909    -5.1533 C.ar    
  85 C85          -29.8836     9.2182    -4.1350 C.ar    
  86 C86          -30.7793     8.1751    -3.9907 C.ar    
  87 C87          -35.6681     3.6945    -2.6245 C.2     
  88 O88          -35.7938     4.8908    -2.4698 O.2     
  89 N89          -33.3013     4.1320    -2.9339 N.am    
  90 C90          -34.2921     3.0826    -2.6825 C.3     
  91 C91          -33.9822     2.3971    -1.3503 C.3     
  92 C92          -32.5969     1.7512    -1.4192 C.3     
  93 O93          -34.0045     3.3656    -0.2997 O.3     
  94 C94          -39.0599     2.4145    -2.1551 C.2     
  95 O95          -38.7729     1.2462    -2.3085 O.2     
  96 N96          -36.7591     2.9122    -2.7445 N.am    
  97 C97          -38.0958     3.4900    -2.5850 C.3     
  98 C98          -38.5565     4.0851    -3.9171 C.3     
  99 C99          -37.6278     5.2358    -4.3100 C.3     
 100 C100         -38.5159     3.0046    -4.9996 C.3     
 101 C101         -42.0514     1.4210    -2.5184 C.2     
 102 O102         -41.8369     2.0191    -3.5461 O.2     
 103 N103         -40.2411     2.7509    -1.6000 N.am    
 104 C104         -41.2273     1.7127    -1.2908 C.3     
 105 C105         -42.1430     2.1981    -0.1653 C.3     
 106 C106         -41.3385     2.3723     1.0970 C.ar    
 107 C107         -40.7401     3.5875     1.3730 C.ar    
 108 C108         -40.0020     3.7473     2.5308 C.ar    
 109 C109         -39.8628     2.6921     3.4129 C.ar    
 110 C110         -40.4619     1.4772     3.1374 C.ar    
 111 C111         -41.2036     1.3187     1.9816 C.ar    
 112 O112         -43.0237     0.4969    -2.4700 O.3     
 113 C113           3.7587     6.3860    -6.7338 C.2     
 114 O114           3.8199     7.5912    -6.8551 O.2     
 115 C115          22.2253     5.9866    -9.8980 C.3     
 116 C116          20.9599     6.8349    -9.7566 C.3     
 117 C117          19.7653     5.9243    -9.4659 C.3     
 118 C118          18.4999     6.7726    -9.3245 C.3     
 119 C119          17.3053     5.8620    -9.0338 C.3     
 120 C120          16.0399     6.7103    -8.8923 C.3     
 121 C121          14.8452     5.7997    -8.6016 C.3     
 122 C122          13.5798     6.6480    -8.4602 C.3     
 123 C123          12.3852     5.7374    -8.1695 C.3     
 124 C124          11.1198     6.5857    -8.0281 C.3     
 125 C125           9.9252     5.6751    -7.7374 C.3     
 126 C126           8.6598     6.5234    -7.5960 C.3     
 127 C127           7.4651     5.6128    -7.3052 C.3     
 128 C128           6.1997     6.4611    -7.1638 C.3     
 129 C129           5.0051     5.5505    -6.8731 C.3     
 130 H130           2.5271     4.8301    -6.3774 H       
 131 H131           1.1878     7.1527    -7.2656 H       
 132 H132           1.4905     7.3131    -5.5189 H       
 133 H133          -1.1674     7.1993    -5.9604 H       
 134 H134          -2.0610     4.4261    -6.1572 H       
 135 H135          -3.0675     4.3731    -3.9262 H       
 136 H136          -1.3222     4.6853    -3.7699 H       
 137 H137          -2.6193     6.2106    -2.4673 H       
 138 H138          -4.6787     4.5411    -5.5268 H       
 139 H139          -5.7900     7.1528    -6.2136 H       
 140 H140          -6.0747     4.7290    -8.0447 H       
 141 H141          -7.0421     6.2169    -8.1805 H       
 142 H142          -4.9670     7.5373    -8.4955 H       
 143 H143          -3.9996     6.0494    -8.3597 H       
 144 H144          -4.4737     6.4762   -11.9712 H       
 145 H145          -8.4255     6.6778    -6.5158 H       
 146 H146          -9.2599     4.4144    -4.8701 H       
 147 H147          -9.6235     7.3061    -3.9674 H       
 148 H148         -10.4487     5.9083    -3.2370 H       
 149 H149          -8.2517     4.9004    -2.6839 H       
 150 H150          -7.4265     6.2982    -3.4143 H       
 151 H151          -8.5263     7.8024    -1.7783 H       
 152 H152          -9.3515     6.4046    -1.0479 H       
 153 H153          -7.1545     5.3967    -0.4947 H       
 154 H154          -6.3293     6.7944    -1.2252 H       
 155 H155          -6.5524     7.0382     1.1580 H       
 156 H156          -7.4849     8.1864     0.3977 H       
 157 H157         -11.8992     4.8168    -4.5027 H       
 158 H158         -13.0351     6.3097    -6.7406 H       
 159 H159         -13.2119     3.2695    -6.5537 H       
 160 H160         -14.2018     4.2742    -7.6395 H       
 161 H161         -12.1423     5.1459    -8.7105 H       
 162 H162         -11.1524     4.1411    -7.6248 H       
 163 H163         -12.2299     2.1000    -8.5312 H       
 164 H164         -13.2197     3.1048    -9.6169 H       
 165 H165         -11.1602     3.9764   -10.6880 H       
 166 H166         -10.1703     2.9717    -9.6022 H       
 167 H167         -12.1810     1.9191   -11.4830 H       
 168 H168         -10.5356     1.8963   -11.7233 H       
 169 H169         -15.6495     5.6569    -6.6963 H       
 170 H170         -16.4969     4.9816    -3.9845 H       
 171 H171         -16.9450     7.7486    -5.1894 H       
 172 H172         -17.7683     7.1342    -3.7358 H       
 173 H173         -14.5722     8.2524    -5.1541 H       
 174 H174         -12.6347     8.9078    -3.7849 H       
 175 H175         -12.4850     9.4738    -0.8442 H       
 176 H176         -14.6117     7.4333    -0.2946 H       
 177 H177         -16.5494     6.7895    -1.6694 H       
 178 H178         -19.1542     5.4299    -4.0041 H       
 179 H179         -20.2411     5.0639    -6.6897 H       
 180 H180         -20.3672     2.8738    -4.5691 H       
 181 H181         -21.3382     2.8929    -6.0608 H       
 182 H182         -18.2896     2.9823    -5.9776 H       
 183 H183         -20.1968     0.6886    -6.6246 H       
 184 H184         -18.4239     0.6381    -6.7748 H       
 185 H185         -19.1766     0.8117    -5.1712 H       
 186 H186         -19.3210     4.0497    -7.9640 H       
 187 H187         -18.5082     2.5290    -8.4057 H       
 188 H188         -20.2811     2.5795    -8.2555 H       
 189 H189         -22.8427     4.5028    -6.2663 H       
 190 H190         -23.7692     5.7249    -3.7812 H       
 191 H191         -24.2277     7.0226    -6.5042 H       
 192 H192         -25.0884     7.4729    -5.0127 H       
 193 H193         -23.7565     8.9059    -3.2382 H       
 194 H194         -21.4957    10.0790    -3.2534 H       
 195 H195         -19.1269    10.1088    -4.8802 H       
 196 H196         -18.2078     9.0780    -6.9090 H       
 197 H197         -19.5233     7.4387    -8.1837 H       
 198 H198         -21.7686     6.8115    -7.4493 H       
 199 H199         -26.4322     5.9555    -4.1244 H       
 200 H200         -27.3398     3.3133    -4.5386 H       
 201 H201         -27.6630     4.2551    -6.0140 H       
 202 H202         -30.0023     3.4926    -4.9146 H       
 203 H203         -30.8196     5.3658    -2.8288 H       
 204 H204         -31.9119     5.5179    -5.6735 H       
 205 H205         -32.6367     6.3348    -4.2679 H       
 206 H206         -29.7683     6.2360    -6.5589 H       
 207 H207         -28.1777     8.0974    -6.8205 H       
 208 H208         -28.2511    10.0070    -5.2677 H       
 209 H209         -29.9157    10.0557    -3.4539 H       
 210 H210         -31.5117     8.1982    -3.1974 H       
 211 H211         -33.4919     5.0493    -2.6825 H       
 212 H212         -34.2549     2.3477    -3.4866 H       
 213 H213         -34.7313     1.6302    -1.1533 H       
 214 H214         -31.8366     2.5289    -1.4916 H       
 215 H215         -32.4268     1.1595    -0.5197 H       
 216 H216         -32.5404     1.1052    -2.2952 H       
 217 H217         -34.8541     3.8160    -0.1980 H       
 218 H218         -36.6591     1.9667    -2.9365 H       
 219 H219         -38.0649     4.2739    -1.8282 H       
 220 H220         -39.5752     4.4591    -3.8150 H       
 221 H221         -36.6406     4.8404    -4.5492 H       
 222 H222         -38.0343     5.7496    -5.1811 H       
 223 H223         -37.5468     5.9371    -3.4795 H       
 224 H224         -39.1775     2.1848    -4.7196 H       
 225 H225         -38.8441     3.4286    -5.9486 H       
 226 H226         -37.4972     2.6306    -5.1016 H       
 227 H227         -40.4382     3.6805    -1.4053 H       
 228 H228         -40.7127     0.8053    -0.9747 H       
 229 H229         -42.5896     3.1519    -0.4461 H       
 230 H230         -42.9307     1.4640     0.0043 H       
 231 H231         -40.8489     4.4119     0.6838 H       
 232 H232         -39.5339     4.6965     2.7461 H       
 233 H233         -39.2856     2.8168     4.3172 H       
 234 H234         -40.3529     0.6527     3.8263 H       
 235 H235         -41.6748     0.3707     1.7681 H       
 236 H236         -43.5254     0.3446    -3.2825 H       
 237 H237          22.4019     5.4403    -8.9715 H       
 238 H238          22.0992     5.2798   -10.7182 H       
 239 H239          23.0764     6.6353   -10.1051 H       
 240 H240          21.0861     7.5417    -8.9364 H       
 241 H241          20.7834     7.3813   -10.6831 H       
 242 H242          19.6391     5.2175   -10.2860 H       
 243 H243          19.9419     5.3780    -8.5394 H       
 244 H244          18.6261     7.4794    -8.5043 H       
 245 H245          18.3233     7.3190   -10.2510 H       
 246 H246          17.1791     5.1552    -9.8539 H       
 247 H247          17.4819     5.3156    -8.1072 H       
 248 H248          16.1660     7.4171    -8.0722 H       
 249 H249          15.8633     7.2567    -9.8188 H       
 250 H250          14.7191     5.0929    -9.4218 H       
 251 H251          15.0218     5.2533    -7.6751 H       
 252 H252          13.7060     7.3548    -7.6400 H       
 253 H253          13.4032     7.1943    -9.3867 H       
 254 H254          12.2590     5.0306    -8.9897 H       
 255 H255          12.5618     5.1910    -7.2430 H       
 256 H256          11.2460     7.2925    -7.2079 H       
 257 H257          10.9432     7.1320    -8.9546 H       
 258 H258           9.7990     4.9683    -8.5575 H       
 259 H259          10.1017     5.1287    -6.8109 H       
 260 H260           8.7859     7.2302    -6.7758 H       
 261 H261           8.4832     7.0697    -8.5225 H       
 262 H262           7.3390     4.9060    -8.1254 H       
 263 H263           7.6417     5.0664    -6.3787 H       
 264 H264           6.3259     7.1679    -6.3437 H       
 265 H265           6.0231     7.0074    -8.0903 H       
 266 H266           5.1817     5.0041    -5.9466 H       
 267 H267           4.8789     4.8437    -7.6933 H       
@<TRIPOS>BOND
   1    1    2 2
   2    1    4 1
   3    1    7 am
   4    3    4 1
   5    3  113 am
   6    3  130 1
   7    4  131 1
   8    4  132 1
   9    5    6 2
  10    5    8 1
  11    5   13 am
  12    7    8 1
  13    7  133 1
  14    8    9 1
  15    8  134 1
  16    9   10 1
  17    9  135 1
  18    9  136 1
  19   10  137 1
  20   11   12 2
  21   11   14 1
  22   11   22 am
  23   13   14 1
  24   13  138 1
  25   14   15 1
  26   14  139 1
  27   15   16 1
  28   15  140 1
  29   15  141 1
  30   16   17 1
  31   16  142 1
  32   16  143 1
  33   17   18 2
  34   17   19 1
  35   19  144 1
  36   20   21 2
  37   20   23 1
  38   20   31 am
  39   22   23 1
  40   22  145 1
  41   23   24 1
  42   23  146 1
  43   24   25 1
  44   24  147 1
  45   24  148 1
  46   25   26 1
  47   25  149 1
  48   25  150 1
  49   26   27 1
  50   26  151 1
  51   26  152 1
  52   27   28 1
  53   27  153 1
  54   27  154 1
  55   28  155 1
  56   28  156 1
  57   29   30 2
  58   29   32 1
  59   29   40 am
  60   31   32 1
  61   31  157 1
  62   32   33 1
  63   32  158 1
  64   33   34 1
  65   33  159 1
  66   33  160 1
  67   34   35 1
  68   34  161 1
  69   34  162 1
  70   35   36 1
  71   35  163 1
  72   35  164 1
  73   36   37 1
  74   36  165 1
  75   36  166 1
  76   37  167 1
  77   37  168 1
  78   38   39 2
  79   38   41 1
  80   38   52 am
  81   40   41 1
  82   40  169 1
  83   41   42 1
  84   41  170 1
  85   42   43 1
  86   42  171 1
  87   42  172 1
  88   43   44 ar
  89   43   49 ar
  90   44   45 ar
  91   44  173 1
  92   45   46 ar
  93   45  174 1
  94   46   47 1
  95   46   48 ar
  96   47  175 1
  97   48   49 ar
  98   48  176 1
  99   49  177 1
 100   50   51 2
 101   50   53 1
 102   50   60 am
 103   52   53 1
 104   52  178 1
 105   53   54 1
 106   53  179 1
 107   54   55 1
 108   54  180 1
 109   54  181 1
 110   55   56 1
 111   55   57 1
 112   55  182 1
 113   56  183 1
 114   56  184 1
 115   56  185 1
 116   57  186 1
 117   57  187 1
 118   57  188 1
 119   58   59 2
 120   58   61 1
 121   58   74 am
 122   60   61 1
 123   60  189 1
 124   61   62 1
 125   61  190 1
 126   62   63 1
 127   62  191 1
 128   62  192 1
 129   63   64 2
 130   63   71 1
 131   64   65 1
 132   64  193 1
 133   65   66 1
 134   65  194 1
 135   66   67 ar
 136   66   71 ar
 137   67   68 ar
 138   67  195 1
 139   68   69 ar
 140   68  196 1
 141   69   70 ar
 142   69  197 1
 143   70   71 ar
 144   70  198 1
 145   72   73 2
 146   72   75 1
 147   72   78 am
 148   74   75 1
 149   74  199 1
 150   75  200 1
 151   75  201 1
 152   76   77 2
 153   76   79 1
 154   76   89 am
 155   78   79 1
 156   78  202 1
 157   79   80 1
 158   79  203 1
 159   80   81 1
 160   80  204 1
 161   80  205 1
 162   81   82 ar
 163   81   86 ar
 164   82   83 ar
 165   82  206 1
 166   83   84 ar
 167   83  207 1
 168   84   85 ar
 169   84  208 1
 170   85   86 ar
 171   85  209 1
 172   86  210 1
 173   87   88 2
 174   87   90 1
 175   87   96 am
 176   89   90 1
 177   89  211 1
 178   90   91 1
 179   90  212 1
 180   91   92 1
 181   91   93 1
 182   91  213 1
 183   92  214 1
 184   92  215 1
 185   92  216 1
 186   93  217 1
 187   94   95 2
 188   94   97 1
 189   94  103 am
 190   96   97 1
 191   96  218 1
 192   97   98 1
 193   97  219 1
 194   98   99 1
 195   98  100 1
 196   98  220 1
 197   99  221 1
 198   99  222 1
 199   99  223 1
 200  100  224 1
 201  100  225 1
 202  100  226 1
 203  101  102 2
 204  101  104 1
 205  101  112 1
 206  103  104 1
 207  103  227 1
 208  104  105 1
 209  104  228 1
 210  105  106 1
 211  105  229 1
 212  105  230 1
 213  106  107 ar
 214  106  111 ar
 215  107  108 ar
 216  107  231 1
 217  108  109 ar
 218  108  232 1
 219  109  110 ar
 220  109  233 1
 221  110  111 ar
 222  110  234 1
 223  111  235 1
 224  112  236 1
 225  113  114 2
 226  113  129 1
 227  115  116 1
 228  115  237 1
 229  115  238 1
 230  115  239 1
 231  116  117 1
 232  116  240 1
 233  116  241 1
 234  117  118 1
 235  117  242 1
 236  117  243 1
 237  118  119 1
 238  118  244 1
 239  118  245 1
 240  119  120 1
 241  119  246 1
 242  119  247 1
 243  120  121 1
 244  120  248 1
 245  120  249 1
 246  121  122 1
 247  121  250 1
 248  121  251 1
 249  122  123 1
 250  122  252 1
 251  122  253 1
 252  123  124 1
 253  123  254 1
 254  123  255 1
 255  124  125 1
 256  124  256 1
 257  124  257 1
 258  125  126 1
 259  125  258 1
 260  125  259 1
 261  126  127 1
 262  126  260 1
 263  126  261 1
 264  127  128 1
 265  127  262 1
 266  127  263 1
 267  128  129 1
 268  128  264 1
 269  128  265 1
 270  129  266 1
 271  129  267 1

#	End of record

