#	Name: ASD05430248
#	Creating user name:	WinNT
#	Creation time:	15. 06. 2019 21:00

#	Modifying user name:	WinNT
#	Modification time:	15. 06. 2019 21:00

#	Program:	/corina/corina34_cracker 3.40 0067  02.08.2006

@<TRIPOS>MOLECULE
ASD05430248
  65   70    0    0    0
SMALL
NO_CHARGES


@<TRIPOS>ATOM
   1 C1            -0.0393     1.8559     0.2728 C.ar    
   2 C2            -0.2129     0.9392     1.3094 C.ar    
   3 C3             0.8604     0.5902     2.1195 C.ar    
   4 C4             2.1014     1.1478     1.9024 C.ar    
   5 C5             2.2831     2.0675     0.8644 C.ar    
   6 C6             1.2030     2.4192     0.0493 C.ar    
   7 C7             4.6326     0.4238     1.0037 C.3     
   8 C8             4.7182     1.9179     0.7785 C.2     
   9 C9             3.6083     2.6647     0.6312 C.2     
  10 C10            5.4884    -0.3032    -0.0278 C.3     
  11 S11            7.2281     0.2033    -0.0177 S.o2    
  12 N12            7.1765     1.8293     0.2601 N.am    
  13 C13            6.0616     2.5276     0.7266 C.2     
  14 N14            6.4019     3.7248     1.0860 N.2     
  15 N15           -1.4726     0.3693     1.5345 N.pl3   
  16 N16           -2.6501     0.6155     0.8097 N.2     
  17 C17           -3.5872    -0.1196     1.3495 C.2     
  18 N18           -3.0674    -0.8082     2.3650 N.2     
  19 C19           -1.7946    -0.5288     2.4859 C.2     
  20 C20           -5.0232    -0.1785     0.8963 C.3     
  21 C21            8.2388     2.8222     0.0783 C.3     
  22 O22            7.7962     3.9230     0.9003 O.3     
  23 C23            9.5590     2.2869     0.5700 C.ar    
  24 C24           -0.8406     3.1364    -1.5635 C.3     
  25 O25           -1.0904     2.1913    -0.5212 O.3     
  26 C26            8.3376     3.2471    -1.3882 C.3     
  27 C27           10.2256     1.3186    -0.1574 C.ar    
  28 C28           11.4361     0.8266     0.2927 C.ar    
  29 C29           11.3154     2.2780     2.1972 C.ar    
  30 C30           10.1051     2.7685     1.7451 C.ar    
  31 O31            7.8956    -0.3262     1.1195 O.2     
  32 O32            7.7894     0.0869    -1.3180 O.2     
  33 C33           11.9813     1.3041     1.4724 C.ar    
  34 F34           13.1645     0.8238     1.9134 F       
  35 C35            5.2989    -1.8270    -0.0209 C.3     
  36 N36            5.3116    -1.7332    -1.4985 N.3     
  37 C37            4.8703    -0.3217    -1.4338 C.3     
  38 C38            9.5318     4.1864    -1.5677 C.3     
  39 H39            0.7216    -0.1195     2.9216 H       
  40 H40            2.9340     0.8749     2.5339 H       
  41 H41            1.3391     3.1287    -0.7534 H       
  42 H42            4.9925     0.1870     2.0050 H       
  43 H43            3.5959     0.1015     0.9065 H       
  44 H44            3.6899     3.7020     0.3420 H       
  45 H45           -1.1218    -0.9408     3.2234 H       
  46 H46           -5.1357    -0.9613     0.1462 H       
  47 H47           -5.6648    -0.3982     1.7497 H       
  48 H48           -5.3079     0.7814     0.4653 H       
  49 H49           -1.7605     3.3149    -2.1203 H       
  50 H50           -0.4915     4.0730    -1.1287 H       
  51 H51           -0.0792     2.7422    -2.2366 H       
  52 H52            8.4721     2.3647    -2.0138 H       
  53 H53            7.4226     3.7629    -1.6794 H       
  54 H54            9.8002     0.9463    -1.0776 H       
  55 H55           11.9564     0.0696    -0.2754 H       
  56 H56           11.7419     2.6544     3.1153 H       
  57 H57            9.5855     3.5281     2.3103 H       
  58 H58            6.1468    -2.3735     0.3921 H       
  59 H59            4.3423    -2.1490     0.3907 H       
  60 H60            6.2522    -1.8019    -1.8571 H       
  61 H61            3.7872    -0.1992    -1.4393 H       
  62 H62            5.3771     0.3303    -2.1453 H       
  63 H63            9.3973     5.0688    -0.9421 H       
  64 H64           10.4468     3.6706    -1.2765 H       
  65 H65            9.6022     4.4891    -2.6125 H       
@<TRIPOS>BOND
   1    1    2 ar
   2    1    6 ar
   3    1   25 1
   4    2    3 ar
   5    2   15 1
   6    3    4 ar
   7    3   39 1
   8    4    5 ar
   9    4   40 1
  10    5    6 ar
  11    5    9 1
  12    6   41 1
  13    7    8 1
  14    7   10 1
  15    7   42 1
  16    7   43 1
  17    8    9 2
  18    8   13 1
  19    9   44 1
  20   10   11 1
  21   10   35 1
  22   10   37 1
  23   11   12 am
  24   11   31 2
  25   11   32 2
  26   12   13 1
  27   12   21 1
  28   13   14 2
  29   14   22 1
  30   15   16 1
  31   15   19 1
  32   16   17 2
  33   17   18 1
  34   17   20 1
  35   18   19 2
  36   19   45 1
  37   20   46 1
  38   20   47 1
  39   20   48 1
  40   21   22 1
  41   21   23 1
  42   21   26 1
  43   23   27 ar
  44   23   30 ar
  45   24   25 1
  46   24   49 1
  47   24   50 1
  48   24   51 1
  49   26   38 1
  50   26   52 1
  51   26   53 1
  52   27   28 ar
  53   27   54 1
  54   28   33 ar
  55   28   55 1
  56   29   30 ar
  57   29   33 ar
  58   29   56 1
  59   30   57 1
  60   33   34 1
  61   35   36 1
  62   35   58 1
  63   35   59 1
  64   36   37 1
  65   36   60 1
  66   37   61 1
  67   37   62 1
  68   38   63 1
  69   38   64 1
  70   38   65 1

#	End of record

