#	Name: ASD01911786
#	Creating user name:	WinNT
#	Creation time:	15. 06. 2019 19:58

#	Modifying user name:	WinNT
#	Modification time:	15. 06. 2019 19:58

#	Program:	/corina/corina34_cracker 3.40 0067  02.08.2006

@<TRIPOS>MOLECULE
ASD01911786
  40   42    0    0    0
SMALL
NO_CHARGES


@<TRIPOS>ATOM
   1 C1            -0.0184     1.5028     0.0103 C.3     
   2 C2             0.0021    -0.0041     0.0020 C.2     
   3 C3            -1.0531    -0.7212    -0.6032 C.2     
   4 C4            -1.1602    -2.0892    -0.6817 C.2     
   5 S5            -2.4689    -0.0198    -1.3846 S.3     
   6 C6            -3.0662    -1.6359    -1.7496 C.2     
   7 N7            -2.2239    -2.5280    -1.2881 N.2     
   8 C8            -4.2861    -1.9300    -2.4395 C.1     
   9 C9            -5.2863    -2.1711    -3.0051 C.1     
  10 C10           -6.5062    -2.4653    -3.6949 C.ar    
  11 C11           -6.8705    -3.7947    -3.9239 C.ar    
  12 C12           -8.0527    -4.0616    -4.5916 C.ar    
  13 C13           -8.8339    -2.9935    -5.0096 C.ar    
  14 C14           -8.4134    -1.7004    -4.7498 C.ar    
  15 N15           -7.2872    -1.4711    -4.1084 N.ar    
  16 C16           -0.7345     1.9962     1.2691 C.3     
  17 C17            1.4170     2.0324    -0.0006 C.3     
  18 C18            1.3963     3.5622     0.0079 C.3     
  19 C19            0.6801     4.0556     1.2667 C.3     
  20 C20           -0.7552     3.5260     1.2775 C.3     
  21 O21            0.9261    -0.6017     0.5159 O.2     
  22 C22           -9.2600    -0.5389    -5.2028 C.3     
  23 H23           -0.5455     1.8639    -0.8728 H       
  24 H24           -0.4142    -2.7526    -0.2696 H       
  25 H25           -6.2383    -4.6021    -3.5850 H       
  26 H26           -8.3606    -5.0789    -4.7835 H       
  27 H27           -9.7618    -3.1695    -5.5334 H       
  28 H28           -1.7571     1.6189     1.2768 H       
  29 H29           -0.2073     1.6351     2.1522 H       
  30 H30            1.9442     1.6713     0.8825 H       
  31 H31            1.9272     1.6808    -0.8974 H       
  32 H32            2.4189     3.9395     0.0001 H       
  33 H33            0.8691     3.9233    -0.8752 H       
  34 H34            1.2073     3.6945     2.1497 H       
  35 H35            0.6654     5.1455     1.2727 H       
  36 H36           -1.2824     3.8871     0.3945 H       
  37 H37           -1.2654     3.8775     2.1743 H       
  38 H38           -9.9665    -0.2755    -4.4157 H       
  39 H39           -8.6190     0.3164    -5.4166 H       
  40 H40           -9.8068    -0.8173    -6.1036 H       
@<TRIPOS>BOND
   1    1    2 1
   2    1   17 1
   3    1   16 1
   4    1   23 1
   5    2    3 1
   6    2   21 2
   7    3    4 2
   8    3    5 1
   9    4    7 1
  10    4   24 1
  11    5    6 1
  12    6    7 2
  13    6    8 1
  14    8    9 3
  15    9   10 1
  16   10   11 ar
  17   10   15 ar
  18   11   12 ar
  19   11   25 1
  20   12   13 ar
  21   12   26 1
  22   13   14 ar
  23   13   27 1
  24   14   15 ar
  25   14   22 1
  26   16   20 1
  27   16   28 1
  28   16   29 1
  29   17   18 1
  30   17   30 1
  31   17   31 1
  32   18   19 1
  33   18   32 1
  34   18   33 1
  35   19   20 1
  36   19   34 1
  37   19   35 1
  38   20   36 1
  39   20   37 1
  40   22   38 1
  41   22   39 1
  42   22   40 1

#	End of record

