#	Name: ASD01911936
#	Creating user name:	WinNT
#	Creation time:	15. 06. 2019 19:58

#	Modifying user name:	WinNT
#	Modification time:	15. 06. 2019 19:58

#	Program:	/corina/corina34_cracker 3.40 0067  02.08.2006

@<TRIPOS>MOLECULE
ASD01911936
  34   36    0    0    0
SMALL
NO_CHARGES


@<TRIPOS>ATOM
   1 C1             0.4118     0.1147    -1.8765 C.ar    
   2 C2            -0.0795     0.0133    -0.5788 C.ar    
   3 C3             0.6069     0.6680     0.4389 C.ar    
   4 N4             1.6945     1.3586     0.1387 N.ar    
   5 C5             2.1285     1.4307    -1.1035 C.ar    
   6 N6             1.5063     0.8248    -2.0948 N.ar    
   7 O7            -1.2012    -0.7062    -0.3124 O.3     
   8 C8            -1.0956    -2.0608    -0.2713 C.ar    
   9 C9            -2.2179    -2.8378    -0.0122 C.ar    
  10 C10           -2.1107    -4.2182     0.0292 C.ar    
  11 C11           -0.8858    -4.8253    -0.1868 C.ar    
  12 C12            0.2374    -4.0512    -0.4459 C.ar    
  13 C13            0.1304    -2.6677    -0.4935 C.ar    
  14 N14            1.4756    -4.6653    -0.6638 N.am    
  15 C15            1.5335    -5.8719    -1.2614 C.2     
  16 C16            2.8333    -6.5688    -1.3986 C.ar    
  17 O17            0.5192    -6.3881    -1.6878 O.2     
  18 C18            2.8863    -7.8154    -2.0171 C.ar    
  19 F19           -3.2027    -4.9727     0.2812 F       
  20 C20            4.1099    -8.4562    -2.1385 C.ar    
  21 C21            5.2380    -7.8278    -1.6370 C.ar    
  22 C22            5.1121    -6.5851    -1.0324 C.ar    
  23 N23            3.9387    -5.9972    -0.9355 N.ar    
  24 F24           -3.4141    -2.2467     0.1997 F       
  25 Cl25           6.5220    -5.7925    -0.4020 Cl      
  26 H26           -0.0905    -0.3828    -2.6929 H       
  27 H27            0.2567     0.6134     1.4591 H       
  28 H28            3.0195     2.0031    -1.3154 H       
  29 H29           -0.8035    -5.9016    -0.1535 H       
  30 H30            1.0034    -2.0647    -0.6949 H       
  31 H31            2.2923    -4.2226    -0.3848 H       
  32 H32            1.9866    -8.2768    -2.3966 H       
  33 H33            4.1817    -9.4237    -2.6131 H       
  34 H34            6.2058    -8.3006    -1.7155 H       
@<TRIPOS>BOND
   1    1    2 ar
   2    1    6 ar
   3    1   26 1
   4    2    3 ar
   5    2    7 1
   6    3    4 ar
   7    3   27 1
   8    4    5 ar
   9    5    6 ar
  10    5   28 1
  11    7    8 1
  12    8    9 ar
  13    8   13 ar
  14    9   10 ar
  15    9   24 1
  16   10   11 ar
  17   10   19 1
  18   11   12 ar
  19   11   29 1
  20   12   13 ar
  21   12   14 1
  22   13   30 1
  23   14   15 am
  24   14   31 1
  25   15   16 1
  26   15   17 2
  27   16   18 ar
  28   16   23 ar
  29   18   20 ar
  30   18   32 1
  31   20   21 ar
  32   20   33 1
  33   21   22 ar
  34   21   34 1
  35   22   23 ar
  36   22   25 1

#	End of record

