#	Name: ASD02030300
#	Creating user name:	WinNT
#	Creation time:	15. 06. 2019 20:15

#	Modifying user name:	WinNT
#	Modification time:	15. 06. 2019 20:15

#	Program:	/corina/corina34_cracker 3.40 0067  02.08.2006

@<TRIPOS>MOLECULE
ASD02030300
  55   58    0    0    0
SMALL
NO_CHARGES


@<TRIPOS>ATOM
   1 N1            -0.2122     1.4225    -0.1395 N.am    
   2 C2            -0.0218    -0.0110     0.1222 C.3     
   3 C3            -0.9187    -0.4180     1.2979 C.3     
   4 N4            -2.2778     0.0817     1.0466 N.am    
   5 C5            -2.4682     1.5152     0.7848 C.3     
   6 C6            -1.5720     1.9231    -0.3853 C.3     
   7 C7             0.8405     2.2640    -0.1485 C.2     
   8 C8             2.1830     1.7723     0.2276 C.2     
   9 N9             3.2615     2.5096     0.3829 N.2     
  10 N10            2.5159     0.4926     0.4772 N.2     
  11 C11            3.7902     0.4731     0.7747 C.2     
  12 N12            4.2430     1.7421     0.7117 N.pl3   
  13 O13            0.6862     3.4272    -0.4659 O.2     
  14 C14           -3.3305    -0.7598     1.0556 C.2     
  15 C15           -4.7027    -0.2286     0.9115 C.ar    
  16 O16           -3.1518    -1.9554     1.1821 O.2     
  17 C17           -1.5456     3.4482    -0.5046 C.3     
  18 C18           -2.1096     1.3124    -1.6810 C.3     
  19 C19            5.5585     2.1558     0.9610 C.ar    
  20 C20            5.8958     3.4986     0.8615 C.ar    
  21 C21            7.1944     3.9036     1.1086 C.ar    
  22 C22            8.1568     2.9714     1.4543 C.ar    
  23 C23            7.8227     1.6332     1.5539 C.ar    
  24 C24            6.5258     1.2239     1.3138 C.ar    
  25 C25           -5.6738    -0.9699     0.2369 C.ar    
  26 C26           -6.9530    -0.4692     0.1060 C.ar    
  27 C27           -7.2744     0.7649     0.6415 C.ar    
  28 C28           -6.3158     1.5061     1.3122 C.ar    
  29 C29           -5.0339     1.0139     1.4546 C.ar    
  30 F30           -7.3910    -2.0523    -1.6074 F       
  31 Cl31           7.6179     5.5826     0.9846 Cl      
  32 F32           -8.6705    -2.0977     0.2848 F       
  33 Cl33          -6.7288     3.0540     1.9809 Cl      
  34 C34           -8.0022    -1.2687    -0.6226 C.3     
  35 F35           -8.9191    -0.3984    -1.2218 F       
  36 H36           -0.2967    -0.5843    -0.7632 H       
  37 H37            1.0213    -0.2013     0.3749 H       
  38 H38           -0.9384    -1.5044     1.3840 H       
  39 H39           -0.5334     0.0176     2.2198 H       
  40 H40           -3.5113     1.7055     0.5321 H       
  41 H41           -2.1933     2.0885     1.6702 H       
  42 H42            4.3728    -0.4003     1.0279 H       
  43 H43           -1.0497     3.8724     0.3685 H       
  44 H44           -1.0018     3.7328    -1.4054 H       
  45 H45           -2.5665     3.8259    -0.5619 H       
  46 H46           -3.1232     1.6717    -1.8589 H       
  47 H47           -1.4693     1.6044    -2.5134 H       
  48 H48           -2.1193     0.2259    -1.5940 H       
  49 H49            5.1448     4.2261     0.5910 H       
  50 H50            9.1709     3.2895     1.6463 H       
  51 H51            8.5761     0.9079     1.8236 H       
  52 H52            6.2659     0.1786     1.3922 H       
  53 H53           -5.4246    -1.9335    -0.1821 H       
  54 H54           -8.2769     1.1523     0.5359 H       
  55 H55           -4.2869     1.5922     1.9780 H       
@<TRIPOS>BOND
   1    1    2 1
   2    1    7 am
   3    1    6 1
   4    2    3 1
   5    2   36 1
   6    2   37 1
   7    3    4 1
   8    3   38 1
   9    3   39 1
  10    4    5 1
  11    4   14 am
  12    5    6 1
  13    5   40 1
  14    5   41 1
  15    6   17 1
  16    6   18 1
  17    7    8 1
  18    7   13 2
  19    8    9 2
  20    8   10 1
  21    9   12 1
  22   10   11 2
  23   11   12 1
  24   11   42 1
  25   12   19 1
  26   14   15 1
  27   14   16 2
  28   15   25 ar
  29   15   29 ar
  30   17   43 1
  31   17   44 1
  32   17   45 1
  33   18   46 1
  34   18   47 1
  35   18   48 1
  36   19   20 ar
  37   19   24 ar
  38   20   21 ar
  39   20   49 1
  40   21   22 ar
  41   21   31 1
  42   22   23 ar
  43   22   50 1
  44   23   24 ar
  45   23   51 1
  46   24   52 1
  47   25   26 ar
  48   25   53 1
  49   26   27 ar
  50   26   34 1
  51   27   28 ar
  52   27   54 1
  53   28   29 ar
  54   28   33 1
  55   29   55 1
  56   30   34 1
  57   32   34 1
  58   34   35 1

#	End of record

