#	Name: ASD04590174
#	Creating user name:	WinNT
#	Creation time:	15. 06. 2019 20:50

#	Modifying user name:	WinNT
#	Modification time:	15. 06. 2019 20:50

#	Program:	/corina/corina34_cracker 3.40 0067  02.08.2006

@<TRIPOS>MOLECULE
ASD04590174
  56   59    0    0    0
SMALL
NO_CHARGES


@<TRIPOS>ATOM
   1 N1            -0.0420     1.2752    -0.0906 N.pl3   
   2 N2             0.0160    -0.0001     0.0507 N.2     
   3 C3             1.0965    -0.4762    -0.5374 C.2     
   4 C4             1.7824     0.6288    -1.1052 C.2     
   5 C5             1.0282     1.7180    -0.7994 C.2     
   6 C6             1.5131    -1.8898    -0.5941 C.2     
   7 N7             0.7579    -2.8390    -0.0065 N.am    
   8 O8             2.5380    -2.1990    -1.1710 O.2     
   9 N9             2.9842     0.6028    -1.8284 N.am    
  10 C10            3.5090     1.7493    -2.3046 C.2     
  11 C11            1.1105    -4.1890    -0.1278 C.ar    
  12 O12            2.9407     2.8062    -2.1073 O.2     
  13 C13            4.7728     1.7220    -3.0651 C.ar    
  14 C14            5.9970     1.8513    -2.4001 C.ar    
  15 C15            7.1763     1.8242    -3.1205 C.ar    
  16 C16            7.1486     1.6698    -4.4946 C.ar    
  17 C17            5.9429     1.5412    -5.1600 C.ar    
  18 C18            4.7543     1.5608    -4.4547 C.ar    
  19 F19            6.0262     2.0027    -1.0580 F       
  20 F20            3.5776     1.4351    -5.1066 F       
  21 C21            2.4316    -4.5446    -0.3578 C.ar    
  22 C22            0.1364    -5.1780    -0.0121 C.ar    
  23 C23            0.4896    -6.5120    -0.1324 C.ar    
  24 C24            1.8067    -6.8608    -0.3668 C.ar    
  25 C25            2.7773    -5.8792    -0.4769 C.ar    
  26 F26            4.0630    -6.2249    -0.7064 F       
  27 O27           -1.1593    -4.8344     0.2190 O.3     
  28 C28           -2.1197    -5.8925     0.2254 C.3     
  29 C29           -3.3339    -5.4763     1.0604 C.3     
  30 C30           -2.5715    -6.1821    -1.2087 C.3     
  31 C31           -3.6441    -7.2735    -1.1899 C.3     
  32 N32           -4.7843    -6.8271    -0.3792 N.3     
  33 C33           -4.3844    -6.5882     1.0134 C.3     
  34 C34           -5.8908    -7.7905    -0.4513 C.3     
  35 H35           -0.7504     1.8402     0.2557 H       
  36 H36            1.2402     2.7419    -1.0696 H       
  37 H37           -0.0298    -2.5871     0.5005 H       
  38 H38            3.4374    -0.2402    -1.9858 H       
  39 H39            8.1221     1.9242    -2.6089 H       
  40 H40            8.0738     1.6498    -5.0514 H       
  41 H41            5.9303     1.4214    -6.2332 H       
  42 H42            3.1897    -3.7803    -0.4443 H       
  43 H43           -0.2643    -7.2801    -0.0426 H       
  44 H44            2.0800    -7.9015    -0.4599 H       
  45 H45           -1.6719    -6.7884     0.6551 H       
  46 H46           -3.0259    -5.3100     2.0926 H       
  47 H47           -3.7576    -4.5580     0.6540 H       
  48 H48           -2.9832    -5.2748    -1.6508 H       
  49 H49           -1.7188    -6.5200    -1.7976 H       
  50 H50           -3.9782    -7.4720    -2.2083 H       
  51 H51           -3.2277    -8.1846    -0.7603 H       
  52 H52           -3.9645    -7.5025     1.4327 H       
  53 H53           -5.2562    -6.2889     1.5954 H       
  54 H54           -5.5549    -8.7583    -0.0789 H       
  55 H55           -6.7220    -7.4355     0.1579 H       
  56 H56           -6.2167    -7.8927    -1.4864 H       
@<TRIPOS>BOND
   1    1    2 1
   2    1    5 1
   3    1   35 1
   4    2    3 2
   5    3    4 1
   6    3    6 1
   7    4    5 2
   8    4    9 1
   9    5   36 1
  10    6    7 am
  11    6    8 2
  12    7   11 1
  13    7   37 1
  14    9   10 am
  15    9   38 1
  16   10   12 2
  17   10   13 1
  18   11   21 ar
  19   11   22 ar
  20   13   14 ar
  21   13   18 ar
  22   14   15 ar
  23   14   19 1
  24   15   16 ar
  25   15   39 1
  26   16   17 ar
  27   16   40 1
  28   17   18 ar
  29   17   41 1
  30   18   20 1
  31   21   25 ar
  32   21   42 1
  33   22   23 ar
  34   22   27 1
  35   23   24 ar
  36   23   43 1
  37   24   25 ar
  38   24   44 1
  39   25   26 1
  40   27   28 1
  41   28   29 1
  42   28   30 1
  43   28   45 1
  44   29   33 1
  45   29   46 1
  46   29   47 1
  47   30   31 1
  48   30   48 1
  49   30   49 1
  50   31   32 1
  51   31   50 1
  52   31   51 1
  53   32   33 1
  54   32   34 1
  55   33   52 1
  56   33   53 1
  57   34   54 1
  58   34   55 1
  59   34   56 1

#	End of record

