#	Name: ASD07930409
#	Creating user name:	WinNT
#	Creation time:	15. 06. 2019 21:12

#	Modifying user name:	WinNT
#	Modification time:	15. 06. 2019 21:12

#	Program:	/corina/corina34_cracker 3.40 0067  02.08.2006

@<TRIPOS>MOLECULE
ASD07930409
  45   47    0    0    0
SMALL
NO_CHARGES


@<TRIPOS>ATOM
   1 N1             1.9372    -2.8818    -0.4249 N.2     
   2 N2            -0.3255    -2.8524    -1.0084 N.pl3   
   3 C3            -1.3635    -1.8168    -0.9739 C.3     
   4 C4            -1.3744    -1.0664    -2.3129 C.3     
   5 S5             0.2941    -0.4004    -2.6079 S.o2    
   6 N6             1.2693    -1.7272    -2.3521 N.am    
   7 C7             0.9895    -2.5006    -1.2345 C.2     
   8 C8             2.3674    -2.0609    -3.2625 C.3     
   9 C9            -1.0670    -0.8338     0.1603 C.3     
  10 C10           -2.7077    -2.4590    -0.7461 C.ar    
  11 C11           -3.1981    -3.3782    -1.6578 C.ar    
  12 C12           -4.4331    -3.9703    -1.4515 C.ar    
  13 C13           -5.1787    -3.6441    -0.3339 C.ar    
  14 C14           -4.6868    -2.7207     0.5828 C.ar    
  15 C15           -3.4465    -2.1338     0.3754 C.ar    
  16 O16            0.4750    -0.0832    -3.9811 O.2     
  17 O17            0.6601     0.5148    -1.5843 O.2     
  18 F18           -2.4711    -3.6978    -2.7507 F       
  19 F19           -6.3836    -4.2211    -0.1325 F       
  20 N20           -5.4396    -2.3880     1.7160 N.am    
  21 C21           -4.8184    -2.0977     2.8763 C.2     
  22 O22           -3.6115    -2.2118     2.9646 O.2     
  23 C23           -5.6058    -1.6398     4.0430 C.ar    
  24 N24           -6.9237    -1.5173     3.9397 N.ar    
  25 C25           -7.6606    -1.1140     4.9510 C.ar    
  26 C26           -7.0816    -0.7989     6.1732 C.ar    
  27 C27           -5.7054    -0.9136     6.3233 C.ar    
  28 C28           -4.9574    -1.3467     5.2417 C.ar    
  29 F29           -7.8486    -0.3846     7.2054 F       
  30 H30            2.8562    -2.6250    -0.5991 H       
  31 H31           -0.5624    -3.7826    -0.8686 H       
  32 H32           -1.6437    -1.7521    -3.1163 H       
  33 H33           -2.0940    -0.2489    -2.2701 H       
  34 H34            3.2793    -1.5658    -2.9287 H       
  35 H35            2.5207    -3.1401    -3.2668 H       
  36 H36            2.1194    -1.7252    -4.2694 H       
  37 H37           -0.0956    -0.3686    -0.0067 H       
  38 H38           -1.8388    -0.0645     0.1854 H       
  39 H39           -1.0555    -1.3680     1.1104 H       
  40 H40           -4.8139    -4.6869    -2.1642 H       
  41 H41           -3.0627    -1.4166     1.0859 H       
  42 H42           -6.4081    -2.3665     1.6658 H       
  43 H43           -8.7302    -1.0264     4.8295 H       
  44 H44           -5.2304    -0.6744     7.2632 H       
  45 H45           -3.8852    -1.4475     5.3228 H       
@<TRIPOS>BOND
   1    1    7 2
   2    1   30 1
   3    2    3 1
   4    2    7 1
   5    2   31 1
   6    3    4 1
   7    3    9 1
   8    3   10 1
   9    4    5 1
  10    4   32 1
  11    4   33 1
  12    5    6 am
  13    5   16 2
  14    5   17 2
  15    6    7 1
  16    6    8 1
  17    8   34 1
  18    8   35 1
  19    8   36 1
  20    9   37 1
  21    9   38 1
  22    9   39 1
  23   10   11 ar
  24   10   15 ar
  25   11   12 ar
  26   11   18 1
  27   12   13 ar
  28   12   40 1
  29   13   14 ar
  30   13   19 1
  31   14   15 ar
  32   14   20 1
  33   15   41 1
  34   20   21 am
  35   20   42 1
  36   21   22 2
  37   21   23 1
  38   23   24 ar
  39   23   28 ar
  40   24   25 ar
  41   25   26 ar
  42   25   43 1
  43   26   27 ar
  44   26   29 1
  45   27   28 ar
  46   27   44 1
  47   28   45 1

#	End of record

