#	Name: ASD07300675
#	Creating user name:	WinNT
#	Creation time:	15. 06. 2019 21:10

#	Modifying user name:	WinNT
#	Modification time:	15. 06. 2019 21:10

#	Program:	/corina/corina34_cracker 3.40 0067  02.08.2006

@<TRIPOS>MOLECULE
ASD07300675
  21   21    0    0    0
SMALL
NO_CHARGES


@<TRIPOS>ATOM
   1 C1            -0.0167     1.3781     0.0096 C.ar    
   2 C2             0.0021    -0.0041     0.0020 C.ar    
   3 C3             1.2214    -0.6632    -0.0131 C.ar    
   4 C4             2.3825     0.0965    -0.0201 C.ar    
   5 C5             2.2848     1.4758    -0.0118 C.ar    
   6 N6             1.1068     2.0683     0.0026 N.ar    
   7 C7            -1.3369     2.1047     0.0198 C.3     
   8 C8            -1.3791     3.0691     1.2069 C.3     
   9 O9            -2.6310     3.7581     1.2165 O.3     
  10 C10           -2.7741     4.6885     2.2916 C.3     
  11 Br11           4.0765    -0.7436    -0.0402 Br      
  12 H12           -0.9218    -0.5634     0.0082 H       
  13 H13            1.2666    -1.7422    -0.0190 H       
  14 H14            3.1836     2.0747    -0.0168 H       
  15 H15           -1.4501     2.6655    -0.9080 H       
  16 H16           -2.1484     1.3826     0.1092 H       
  17 H17           -1.2659     2.5083     2.1347 H       
  18 H18           -0.5676     3.7912     1.1174 H       
  19 H19           -3.7501     5.1696     2.2283 H       
  20 H20           -2.6898     4.1614     3.2420 H       
  21 H21           -1.9915     5.4443     2.2247 H       
@<TRIPOS>BOND
   1    1    2 ar
   2    1    6 ar
   3    1    7 1
   4    2    3 ar
   5    2   12 1
   6    3    4 ar
   7    3   13 1
   8    4    5 ar
   9    4   11 1
  10    5    6 ar
  11    5   14 1
  12    7    8 1
  13    7   15 1
  14    7   16 1
  15    8    9 1
  16    8   17 1
  17    8   18 1
  18    9   10 1
  19   10   19 1
  20   10   20 1
  21   10   21 1

#	End of record

