#	Name: ASD02400001
#	Creating user name:	WinNT
#	Creation time:	15. 06. 2019 20:20

#	Modifying user name:	WinNT
#	Modification time:	15. 06. 2019 20:20

#	Program:	/corina/corina34_cracker 3.40 0067  02.08.2006

@<TRIPOS>MOLECULE
ASD02400001
  43   42    0    0    0
SMALL
NO_CHARGES


@<TRIPOS>ATOM
   1 C1            -0.0143     1.2034     0.0087 C.2     
   2 O2             0.0021    -0.0041     0.0020 O.2     
   3 C3             1.2804     1.9746     0.0004 C.3     
   4 C4             1.2839     2.9527    -1.1760 C.3     
   5 C5             2.5984     3.7357    -1.1844 C.3     
   6 C6             2.6019     4.7139    -2.3609 C.3     
   7 C7             3.9164     5.4968    -2.3692 C.3     
   8 C8             3.9199     6.4750    -3.5457 C.3     
   9 C9             5.2344     7.2579    -3.5540 C.3     
  10 C10            5.2379     8.2361    -4.7305 C.3     
  11 C11            6.5523     9.0190    -4.7389 C.3     
  12 C12            6.5559     9.9972    -5.9153 C.3     
  13 C13            7.8703    10.7801    -5.9237 C.3     
  14 C14            7.8738    11.7583    -7.1002 C.3     
  15 C15            9.1883    12.5413    -7.1085 C.3     
  16 H16           -0.9568     1.7306     0.0160 H       
  17 H17            1.3792     2.5286     0.9339 H       
  18 H18            2.1155     1.2815    -0.1008 H       
  19 H19            1.1851     2.3987    -2.1095 H       
  20 H20            0.4488     3.6459    -1.0748 H       
  21 H21            2.6972     4.2898    -0.2509 H       
  22 H22            3.4335     3.0426    -1.2857 H       
  23 H23            2.5031     4.1598    -3.2943 H       
  24 H24            1.7668     5.4070    -2.2596 H       
  25 H25            4.0152     6.0509    -1.4357 H       
  26 H26            4.7515     4.8037    -2.4705 H       
  27 H27            3.8211     5.9209    -4.4791 H       
  28 H28            3.0848     7.1681    -3.4444 H       
  29 H29            5.3332     7.8120    -2.6206 H       
  30 H30            6.0695     6.5648    -3.6553 H       
  31 H31            5.1391     7.6820    -5.6640 H       
  32 H32            4.4028     8.9292    -4.6292 H       
  33 H33            6.6512     9.5731    -3.8054 H       
  34 H34            7.3875     8.3259    -4.8401 H       
  35 H35            6.4570     9.4431    -6.8488 H       
  36 H36            5.7207    10.6903    -5.8141 H       
  37 H37            7.9691    11.3342    -4.9902 H       
  38 H38            8.7054    10.0870    -6.0249 H       
  39 H39            7.7750    11.2042    -8.0336 H       
  40 H40            7.0387    12.4514    -6.9989 H       
  41 H41            9.2871    13.0953    -6.1750 H       
  42 H42           10.0234    11.8481    -7.2098 H       
  43 H43            9.1908    13.2381    -7.9466 H       
@<TRIPOS>BOND
   1    1    2 2
   2    1    3 1
   3    1   16 1
   4    3    4 1
   5    3   17 1
   6    3   18 1
   7    4    5 1
   8    4   19 1
   9    4   20 1
  10    5    6 1
  11    5   21 1
  12    5   22 1
  13    6    7 1
  14    6   23 1
  15    6   24 1
  16    7    8 1
  17    7   25 1
  18    7   26 1
  19    8    9 1
  20    8   27 1
  21    8   28 1
  22    9   10 1
  23    9   29 1
  24    9   30 1
  25   10   11 1
  26   10   31 1
  27   10   32 1
  28   11   12 1
  29   11   33 1
  30   11   34 1
  31   12   13 1
  32   12   35 1
  33   12   36 1
  34   13   14 1
  35   13   37 1
  36   13   38 1
  37   14   15 1
  38   14   39 1
  39   14   40 1
  40   15   41 1
  41   15   42 1
  42   15   43 1

#	End of record

