#	Name: ASD01230335
#	Creating user name:	WinNT
#	Creation time:	15. 06. 2019 19:14

#	Modifying user name:	WinNT
#	Modification time:	15. 06. 2019 19:14

#	Program:	/corina/corina34_cracker 3.40 0067  02.08.2006

@<TRIPOS>MOLECULE
ASD01230335
  33   35    0    0    0
SMALL
NO_CHARGES


@<TRIPOS>ATOM
   1 C1            -0.1351     1.4693    -0.4080 C.ar    
   2 C2            -0.1932     0.1141    -0.6472 C.ar    
   3 C3             0.9690    -0.6347    -0.7124 C.ar    
   4 C4             2.1921    -0.0159    -0.5225 C.ar    
   5 C5             2.2504     1.3389    -0.2694 C.ar    
   6 C6             1.0965     2.1068    -0.2280 C.ar    
   7 N7             1.0895     3.4843    -0.0546 N.3     
   8 S8             3.8185     2.0999     0.0368 S.o2    
   9 N9             3.4653     3.7314     0.1119 N.am    
  10 C10            2.1684     4.0553     0.7412 C.3     
  11 Cl11           0.8927    -2.3397    -1.0299 Cl      
  12 O12            4.2226     1.7040     1.3403 O.2     
  13 O13            4.6087     1.9012    -1.1274 O.2     
  14 C14            4.3700     4.7603    -0.4069 C.3     
  15 C15           -0.2197     3.9481     0.4237 C.3     
  16 C16           -0.1578     5.4513     0.7020 C.3     
  17 C17           -1.4596     6.1505     1.0990 C.3     
  18 C18           -0.3694     5.9118     2.1456 C.3     
  19 H19           -1.0478     2.0450    -0.3636 H       
  20 H20           -1.1505    -0.3667    -0.7842 H       
  21 H21            3.1025    -0.5947    -0.5722 H       
  22 H22            2.0489     5.1375     0.7928 H       
  23 H23            2.1388     3.6372     1.7474 H       
  24 H24            5.2586     4.2862    -0.8235 H       
  25 H25            3.8634     5.3304    -1.1856 H       
  26 H26            4.6610     5.4299     0.4025 H       
  27 H27           -0.9752     3.7502    -0.3367 H       
  28 H28           -0.4798     3.4192     1.3406 H       
  29 H29            0.5498     6.0135     0.0927 H       
  30 H30           -1.6081     7.1727     0.7511 H       
  31 H31           -2.3601     5.5395     1.1618 H       
  32 H32           -0.5527     5.1438     2.8971 H       
  33 H33            0.1992     6.7770     2.4864 H       
@<TRIPOS>BOND
   1    1    2 ar
   2    1    6 ar
   3    1   19 1
   4    2    3 ar
   5    2   20 1
   6    3    4 ar
   7    3   11 1
   8    4    5 ar
   9    4   21 1
  10    5    6 ar
  11    5    8 1
  12    6    7 1
  13    7   10 1
  14    7   15 1
  15    8    9 am
  16    8   12 2
  17    8   13 2
  18    9   10 1
  19    9   14 1
  20   10   22 1
  21   10   23 1
  22   14   24 1
  23   14   25 1
  24   14   26 1
  25   15   16 1
  26   15   27 1
  27   15   28 1
  28   16   17 1
  29   16   18 1
  30   16   29 1
  31   17   18 1
  32   17   30 1
  33   17   31 1
  34   18   32 1
  35   18   33 1

#	End of record

