#	Name: ASD07930293
#	Creating user name:	WinNT
#	Creation time:	15. 06. 2019 21:12

#	Modifying user name:	WinNT
#	Modification time:	15. 06. 2019 21:12

#	Program:	/corina/corina34_cracker 3.40 0067  02.08.2006

@<TRIPOS>MOLECULE
ASD07930293
  60   65    0    0    0
SMALL
NO_CHARGES


@<TRIPOS>ATOM
   1 C1            -0.2428     1.1164     0.0569 C.2     
   2 C2            -0.1699    -0.2471     0.1408 C.2     
   3 C3             1.1475    -0.8789     0.2479 C.2     
   4 N4             2.2482    -0.1072     0.2628 N.am    
   5 C5             2.1487     1.2629     0.1751 C.2     
   6 C6             0.9359     1.8722     0.0747 C.2     
   7 C7             3.5842    -0.7079     0.3754 C.3     
   8 C8             4.5297     0.0551    -0.5644 C.3     
   9 N9             4.5556     1.4665    -0.1549 N.am    
  10 C10            3.3913     2.0662     0.1905 C.2     
  11 C11            5.8171     2.2107    -0.1211 C.3     
  12 O12            3.3676     3.2399     0.5065 O.2     
  13 O13            1.2446    -2.0920     0.3231 O.2     
  14 N14           -1.3319    -1.0237     0.1252 N.pl3   
  15 C15           -1.6959    -1.9141    -0.8349 C.2     
  16 N16           -2.8414    -2.4418    -0.4992 N.2     
  17 C17           -3.2471    -1.9188     0.6676 C.2     
  18 C18           -2.3175    -1.0357     1.0788 C.2     
  19 C19           -4.5205    -2.2644     1.3956 C.3     
  20 C20            6.1252     2.7559    -1.5170 C.3     
  21 O21            5.1314     3.7151    -1.8838 O.3     
  22 C22            5.2998     4.9830    -1.4268 C.ar    
  23 C23            6.4274     5.3139    -0.6941 C.ar    
  24 C24            6.5976     6.6047    -0.2289 C.ar    
  25 C25            5.6454     7.5739    -0.4914 C.ar    
  26 C26            4.5164     7.2602    -1.2199 C.ar    
  27 C27            4.3363     5.9625    -1.6996 C.ar    
  28 C28            3.1299     5.6203    -2.4806 C.2     
  29 C29            1.8554     5.8680    -2.0936 C.2     
  30 C30            0.9991     5.3635    -3.1696 C.ar    
  31 C31            1.8745     4.8406    -4.1379 C.ar    
  32 O32            3.1329     5.0202    -3.6873 O.3     
  33 C33           -0.3806     5.3180    -3.3753 C.ar    
  34 C34           -0.8768     4.7630    -4.5220 C.ar    
  35 C35           -0.0177     4.2451    -5.4806 C.ar    
  36 C36            1.3483     4.2814    -5.2954 C.ar    
  37 H37           -1.2019     1.6058    -0.0271 H       
  38 H38            0.8820     2.9488     0.0080 H       
  39 H39            3.9399    -0.6250     1.4024 H       
  40 H40            3.5421    -1.7571     0.0831 H       
  41 H41            5.5331    -0.3650    -0.4944 H       
  42 H42            4.1679    -0.0222    -1.5896 H       
  43 H43            5.7314     3.0393     0.5819 H       
  44 H44            6.6219     1.5473     0.1956 H       
  45 H45           -1.1321    -2.1456    -1.7265 H       
  46 H46           -2.3460    -0.4450     1.9824 H       
  47 H47           -4.3354    -3.0945     2.0774 H       
  48 H48           -4.8617    -1.3981     1.9623 H       
  49 H49           -5.2854    -2.5507     0.6738 H       
  50 H50            7.1056     3.2321    -1.5129 H       
  51 H51            6.1222     1.9366    -2.2359 H       
  52 H52            7.1747     4.5626    -0.4855 H       
  53 H53            7.4783     6.8579     0.3427 H       
  54 H54            5.7863     8.5797    -0.1242 H       
  55 H55            3.7751     8.0192    -1.4221 H       
  56 H56            1.5356     6.3414    -1.1771 H       
  57 H57           -1.0533     5.7192    -2.6318 H       
  58 H58           -1.9442     4.7271    -4.6825 H       
  59 H59           -0.4232     3.8088    -6.3815 H       
  60 H60            2.0075     3.8755    -6.0485 H       
@<TRIPOS>BOND
   1    1    2 2
   2    1    6 1
   3    1   37 1
   4    2    3 1
   5    2   14 1
   6    3    4 am
   7    3   13 2
   8    4    5 1
   9    4    7 1
  10    5    6 2
  11    5   10 1
  12    6   38 1
  13    7    8 1
  14    7   39 1
  15    7   40 1
  16    8    9 1
  17    8   41 1
  18    8   42 1
  19    9   10 am
  20    9   11 1
  21   10   12 2
  22   11   20 1
  23   11   43 1
  24   11   44 1
  25   14   15 1
  26   14   18 1
  27   15   16 2
  28   15   45 1
  29   16   17 1
  30   17   18 2
  31   17   19 1
  32   18   46 1
  33   19   47 1
  34   19   48 1
  35   19   49 1
  36   20   21 1
  37   20   50 1
  38   20   51 1
  39   21   22 1
  40   22   23 ar
  41   22   27 ar
  42   23   24 ar
  43   23   52 1
  44   24   25 ar
  45   24   53 1
  46   25   26 ar
  47   25   54 1
  48   26   27 ar
  49   26   55 1
  50   27   28 1
  51   28   29 2
  52   28   32 1
  53   29   30 1
  54   29   56 1
  55   30   31 ar
  56   30   33 ar
  57   31   32 1
  58   31   36 ar
  59   33   34 ar
  60   33   57 1
  61   34   35 ar
  62   34   58 1
  63   35   36 ar
  64   35   59 1
  65   36   60 1

#	End of record

