#	Name: ASD01816542
#	Creating user name:	WinNT
#	Creation time:	15. 06. 2019 19:35

#	Modifying user name:	WinNT
#	Modification time:	15. 06. 2019 19:35

#	Program:	/corina/corina34_cracker 3.40 0067  02.08.2006

@<TRIPOS>MOLECULE
ASD01816542
  59   63    0    0    0
SMALL
NO_CHARGES


@<TRIPOS>ATOM
   1 C1            -0.0062     1.4019    -0.0170 C.ar    
   2 C2             0.0092     0.0165    -0.0192 C.ar    
   3 C3             1.2039    -0.6733    -0.0302 C.ar    
   4 C4             2.4087     0.0206    -0.0392 C.ar    
   5 C5             2.3896     1.4253    -0.0370 C.ar    
   6 C6             1.1786     2.1094    -0.0258 C.ar    
   7 N7             3.6108    -0.6655    -0.0498 N.pl3   
   8 C8             4.8041    -0.0498    -0.0584 C.2     
   9 C9             4.9104     1.3188    -0.0572 C.2     
  10 C10            3.6794     2.1417    -0.0467 C.2     
  11 C11            6.0099     2.2788    -0.0645 C.2     
  12 N12            5.4403     3.5033    -0.0586 N.am    
  13 N13            4.0477     3.3905    -0.0480 N.2     
  14 C14            6.1446     4.7129    -0.0629 C.ar    
  15 O15            7.2035     2.0258    -0.0735 O.2     
  16 C16            3.5799    -2.1302    -0.0512 C.3     
  17 C17            3.5573    -2.6384    -1.4942 C.3     
  18 C18            3.6508    -4.1659    -1.4982 C.3     
  19 C19            3.6628    -4.6690    -2.9451 C.3     
  20 N20            2.4845    -4.1347    -3.6414 N.am    
  21 C21            2.2498    -2.6844    -3.6221 C.3     
  22 C22            2.2536    -2.2036    -2.1675 C.3     
  23 C23            7.0826     4.9685    -1.0546 C.ar    
  24 C24            7.7756     6.1633    -1.0562 C.ar    
  25 C25            7.5366     7.1042    -0.0716 C.ar    
  26 C26            6.6034     6.8526     0.9177 C.ar    
  27 C27            5.9027     5.6627     0.9216 C.ar    
  28 C28            1.6352    -4.9592    -4.2858 C.2     
  29 O29            1.8895    -6.1448    -4.3756 O.2     
  30 C30            4.8858     5.3896     1.9996 C.3     
  31 N31            0.5040    -4.4695    -4.8309 N.am    
  32 C32           -0.3628    -5.3419    -5.6270 C.3     
  33 H33           -0.9484     1.9298    -0.0128 H       
  34 H34           -0.9230    -0.5286    -0.0119 H       
  35 H35            1.2032    -1.7533    -0.0314 H       
  36 H36            1.1655     3.1893    -0.0245 H       
  37 H37            5.7039    -0.6471    -0.0661 H       
  38 H38            4.4661    -2.5128     0.4550 H       
  39 H39            2.6866    -2.4752     0.4695 H       
  40 H40            4.4041    -2.2213    -2.0393 H       
  41 H41            4.5683    -4.4756    -0.9977 H       
  42 H42            2.7912    -4.5844    -0.9747 H       
  43 H43            4.5690    -4.3253    -3.4440 H       
  44 H44            3.6294    -5.7584    -2.9535 H       
  45 H45            3.0408    -2.1789    -4.1761 H       
  46 H46            1.2841    -2.4644    -4.0771 H       
  47 H47            1.4072    -2.6406    -1.6377 H       
  48 H48            2.1766    -1.1166    -2.1435 H       
  49 H49            7.2703     4.2337    -1.8235 H       
  50 H50            8.5052     6.3627    -1.8272 H       
  51 H51            8.0800     8.0375    -0.0749 H       
  52 H52            6.4193     7.5894     1.6856 H       
  53 H53            3.9094     5.7524     1.6784 H       
  54 H54            4.8318     4.3168     2.1848 H       
  55 H55            5.1805     5.9021     2.9154 H       
  56 H56            0.2638    -3.5395    -4.6960 H       
  57 H57           -1.2227    -4.7739    -5.9819 H       
  58 H58            0.1951    -5.7277    -6.4803 H       
  59 H59           -0.7057    -6.1734    -5.0112 H       
@<TRIPOS>BOND
   1    1    2 ar
   2    1    6 ar
   3    1   33 1
   4    2    3 ar
   5    2   34 1
   6    3    4 ar
   7    3   35 1
   8    4    5 ar
   9    4    7 1
  10    5    6 ar
  11    5   10 1
  12    6   36 1
  13    7    8 1
  14    7   16 1
  15    8    9 2
  16    8   37 1
  17    9   10 1
  18    9   11 1
  19   10   13 2
  20   11   12 am
  21   11   15 2
  22   12   13 1
  23   12   14 1
  24   14   23 ar
  25   14   27 ar
  26   16   17 1
  27   16   38 1
  28   16   39 1
  29   17   18 1
  30   17   22 1
  31   17   40 1
  32   18   19 1
  33   18   41 1
  34   18   42 1
  35   19   20 1
  36   19   43 1
  37   19   44 1
  38   20   21 1
  39   20   28 am
  40   21   22 1
  41   21   45 1
  42   21   46 1
  43   22   47 1
  44   22   48 1
  45   23   24 ar
  46   23   49 1
  47   24   25 ar
  48   24   50 1
  49   25   26 ar
  50   25   51 1
  51   26   27 ar
  52   26   52 1
  53   27   30 1
  54   28   29 2
  55   28   31 am
  56   30   53 1
  57   30   54 1
  58   30   55 1
  59   31   32 1
  60   31   56 1
  61   32   57 1
  62   32   58 1
  63   32   59 1

#	End of record

