#	Name: ASD01150345
#	Creating user name:	WinNT
#	Creation time:	15. 06. 2019 19:04

#	Modifying user name:	WinNT
#	Modification time:	15. 06. 2019 19:04

#	Program:	/corina/corina34_cracker 3.40 0067  02.08.2006

@<TRIPOS>MOLECULE
ASD01150345
  70   73    0    0    0
SMALL
NO_CHARGES


@<TRIPOS>ATOM
   1 N1            -0.0169     1.3927     0.0097 N.pl3   
   2 C2             0.0021    -0.0041     0.0020 C.2     
   3 C3            -1.3281    -0.4051     0.0126 C.2     
   4 N4            -2.0858     0.6950     0.0257 N.2     
   5 C5            -1.3234     1.7683     0.0301 C.2     
   6 C6             1.1389    -0.8368    -0.0140 C.2     
   7 C7             1.0964     2.2430     0.0036 C.ar    
   8 C8             1.3307     3.0747    -1.0833 C.ar    
   9 C9             2.4290     3.9122    -1.0861 C.ar    
  10 C10            3.2950     3.9227    -0.0081 C.ar    
  11 C11            3.0647     3.0953     1.0756 C.ar    
  12 C12            1.9648     2.2600     1.0870 C.ar    
  13 N13           -1.7777     3.0669     0.0439 N.3     
  14 C14           -3.2460     3.1108     0.0526 C.3     
  15 C15           -1.2221     3.8069     1.1847 C.3     
  16 O16            1.0069    -2.0474    -0.0191 O.2     
  17 O17            2.3747    -0.2923    -0.0236 O.3     
  18 C18            3.4817    -1.1958    -0.0397 C.3     
  19 C19            3.4080    -2.0704    -1.2930 C.3     
  20 C20            4.7889    -0.4008    -0.0487 C.3     
  21 C21            3.4334    -2.0838     1.2053 C.3     
  22 N22           -1.7882    -1.7165     0.0099 N.am    
  23 C23           -3.1126    -1.9660     0.0212 C.2     
  24 O24           -3.9050    -1.0437     0.0337 O.2     
  25 C25           -3.6005    -3.3565     0.0184 C.2     
  26 C26           -2.8051    -4.5247     0.0050 C.2     
  27 N27           -3.6028    -5.5573     0.0069 N.2     
  28 N28           -4.9277    -5.1073     0.0213 N.pl3   
  29 C29           -4.9207    -3.7623     0.0343 C.2     
  30 C30           -6.1303    -2.8637     0.0527 C.3     
  31 C31           -6.0699    -5.9212     0.0275 C.ar    
  32 C32           -6.0701    -7.1229    -0.6680 C.ar    
  33 C33           -7.1945    -7.9239    -0.6612 C.ar    
  34 C34           -8.3242    -7.5283     0.0405 C.ar    
  35 C35           -8.3247    -6.3273     0.7353 C.ar    
  36 C36           -7.1988    -5.5282     0.7338 C.ar    
  37 O37           -9.4311    -8.3173     0.0468 O.3     
  38 C38          -10.5580    -7.8482     0.7899 C.3     
  39 H39            0.6551     3.0664    -1.9258 H       
  40 H40            2.6117     4.5593    -1.9312 H       
  41 H41            4.1533     4.5782    -0.0128 H       
  42 H42            3.7431     3.1054     1.9159 H       
  43 H43            1.7854     1.6140     1.9337 H       
  44 H44           -3.6196     2.6004     0.9403 H       
  45 H45           -3.5784     4.1488     0.0634 H       
  46 H46           -3.6296     2.6157    -0.8395 H       
  47 H47           -0.1344     3.8180     1.1157 H       
  48 H48           -1.5974     4.8302     1.1716 H       
  49 H49           -1.5224     3.3218     2.1135 H       
  50 H50            3.4424    -1.4378    -2.1800 H       
  51 H51            4.2524    -2.7596    -1.3052 H       
  52 H52            2.4767    -2.6368    -1.2866 H       
  53 H53            4.8413     0.2222     0.8441 H       
  54 H54            5.6332    -1.0900    -0.0610 H       
  55 H55            4.8233     0.2318    -0.9357 H       
  56 H56            2.5021    -2.6502     1.2118 H       
  57 H57            4.2777    -2.7730     1.1931 H       
  58 H58            3.4859    -1.4607     2.0982 H       
  59 H59           -1.1561    -2.4522    -0.0001 H       
  60 H60           -1.7256    -4.5570    -0.0053 H       
  61 H61           -6.4138    -2.6570     1.0847 H       
  62 H62           -5.8953    -1.9277    -0.4540 H       
  63 H63           -6.9568    -3.3565    -0.4594 H       
  64 H64           -5.1909    -7.4308    -1.2145 H       
  65 H65           -7.1949    -8.8585    -1.2025 H       
  66 H66           -9.2045    -6.0194     1.2807 H       
  67 H67           -7.1992    -4.5936     1.2750 H       
  68 H68          -10.2784    -7.7274     1.8365 H       
  69 H69          -10.8844    -6.8890     0.3880 H       
  70 H70          -11.3707    -8.5703     0.7119 H       
@<TRIPOS>BOND
   1    1    2 1
   2    1    7 1
   3    1    5 1
   4    2    3 2
   5    2    6 1
   6    3    4 1
   7    3   22 1
   8    4    5 2
   9    5   13 1
  10    6   16 2
  11    6   17 1
  12    7    8 ar
  13    7   12 ar
  14    8    9 ar
  15    8   39 1
  16    9   10 ar
  17    9   40 1
  18   10   11 ar
  19   10   41 1
  20   11   12 ar
  21   11   42 1
  22   12   43 1
  23   13   14 1
  24   13   15 1
  25   14   44 1
  26   14   45 1
  27   14   46 1
  28   15   47 1
  29   15   48 1
  30   15   49 1
  31   17   18 1
  32   18   19 1
  33   18   20 1
  34   18   21 1
  35   19   50 1
  36   19   51 1
  37   19   52 1
  38   20   53 1
  39   20   54 1
  40   20   55 1
  41   21   56 1
  42   21   57 1
  43   21   58 1
  44   22   23 am
  45   22   59 1
  46   23   24 2
  47   23   25 1
  48   25   26 1
  49   25   29 2
  50   26   27 2
  51   26   60 1
  52   27   28 1
  53   28   29 1
  54   28   31 1
  55   29   30 1
  56   30   61 1
  57   30   62 1
  58   30   63 1
  59   31   32 ar
  60   31   36 ar
  61   32   33 ar
  62   32   64 1
  63   33   34 ar
  64   33   65 1
  65   34   35 ar
  66   34   37 1
  67   35   36 ar
  68   35   66 1
  69   36   67 1
  70   37   38 1
  71   38   68 1
  72   38   69 1
  73   38   70 1

#	End of record

