#	Name: ASD01910747
#	Creating user name:	WinNT
#	Creation time:	15. 06. 2019 19:56

#	Modifying user name:	WinNT
#	Modification time:	15. 06. 2019 19:56

#	Program:	/corina/corina34_cracker 3.40 0067  02.08.2006

@<TRIPOS>MOLECULE
ASD01910747
  50   53    0    0    0
SMALL
NO_CHARGES


@<TRIPOS>ATOM
   1 C1            12.4212    -2.2990     4.1746 C.ar    
   2 N2            12.9659    -2.4595     2.9803 N.ar    
   3 C3            12.2899    -2.1318     1.8955 C.ar    
   4 C4            11.0009    -1.6164     2.0100 C.ar    
   5 N5            10.4584    -1.4571     3.2103 N.ar    
   6 C6            11.1426    -1.7878     4.2923 C.ar    
   7 N7            10.2852    -1.2695     0.8700 N.3     
   8 C8             8.9566    -0.7499     1.2204 C.3     
   9 C9             8.2729    -0.2126    -0.0414 C.3     
  10 N10            8.2773    -1.2716    -1.0621 N.am    
  11 C11            9.5526    -1.9366    -1.3695 C.3     
  12 C12           10.1859    -2.4060    -0.0554 C.3     
  13 C13            7.1426    -1.6236    -1.6985 C.2     
  14 C14            7.1894    -2.6011    -2.8071 C.ar    
  15 O15            6.0808    -1.1376    -1.3613 O.2     
  16 C16            6.1831    -3.5608    -2.9367 C.ar    
  17 C17            6.2247    -4.4753    -3.9710 C.ar    
  18 C18            7.2596    -4.4482    -4.8837 C.ar    
  19 C19            8.2742    -3.4929    -4.7664 C.ar    
  20 C20            8.2343    -2.5628    -3.7276 C.ar    
  21 C21            9.3482    -3.4661    -5.7132 C.1     
  22 C22           10.2286    -3.4442    -6.4895 C.1     
  23 C23           11.3026    -3.4174    -7.4364 C.ar    
  24 C24            7.2967    -5.4504    -6.0085 C.3     
  25 N25           12.2637    -2.5063    -7.3187 N.ar    
  26 C26           13.2678    -2.4493    -8.1692 C.ar    
  27 C27           13.3590    -3.3411    -9.2222 C.ar    
  28 C28           12.3770    -4.3095    -9.3834 C.ar    
  29 C29           11.3359    -4.3526    -8.4741 C.ar    
  30 H30           12.9755    -2.5723     5.0603 H       
  31 H31           12.7354    -2.2628     0.9205 H       
  32 H32           10.7015    -1.6584     5.2696 H       
  33 H33            8.3537    -1.5512     1.6476 H       
  34 H34            9.0611     0.0548     1.9481 H       
  35 H35            7.2456     0.0684     0.1902 H       
  36 H36            8.8183     0.6553    -0.4120 H       
  37 H37            9.3713    -2.7954    -2.0158 H       
  38 H38           10.2210    -1.2344    -1.8677 H       
  39 H39           11.1819    -2.8024    -0.2528 H       
  40 H40            9.5659    -3.1843     0.3896 H       
  41 H41            5.3703    -3.5883    -2.2260 H       
  42 H42            5.4438    -5.2153    -4.0658 H       
  43 H43            9.0150    -1.8227    -3.6318 H       
  44 H44            6.7668    -5.0476    -6.8717 H       
  45 H45            8.3326    -5.6533    -6.2804 H       
  46 H46            6.8176    -6.3752    -5.6872 H       
  47 H47           14.0306    -1.6952    -8.0426 H       
  48 H48           14.1868    -3.2845    -9.9136 H       
  49 H49           12.4274    -5.0162   -10.1985 H       
  50 H50           10.5556    -5.0931    -8.5696 H       
@<TRIPOS>BOND
   1    1    2 ar
   2    1    6 ar
   3    1   30 1
   4    2    3 ar
   5    3    4 ar
   6    3   31 1
   7    4    5 ar
   8    4    7 1
   9    5    6 ar
  10    6   32 1
  11    7    8 1
  12    7   12 1
  13    8    9 1
  14    8   33 1
  15    8   34 1
  16    9   10 1
  17    9   35 1
  18    9   36 1
  19   10   11 1
  20   10   13 am
  21   11   12 1
  22   11   37 1
  23   11   38 1
  24   12   39 1
  25   12   40 1
  26   13   14 1
  27   13   15 2
  28   14   16 ar
  29   14   20 ar
  30   16   17 ar
  31   16   41 1
  32   17   18 ar
  33   17   42 1
  34   18   19 ar
  35   18   24 1
  36   19   20 ar
  37   19   21 1
  38   20   43 1
  39   21   22 3
  40   22   23 1
  41   23   25 ar
  42   23   29 ar
  43   24   44 1
  44   24   45 1
  45   24   46 1
  46   25   26 ar
  47   26   27 ar
  48   26   47 1
  49   27   28 ar
  50   27   48 1
  51   28   29 ar
  52   28   49 1
  53   29   50 1

#	End of record

