#	Name: ASD05740205
#	Creating user name:	WinNT
#	Creation time:	15. 06. 2019 21:03

#	Modifying user name:	WinNT
#	Modification time:	15. 06. 2019 21:03

#	Program:	/corina/corina34_cracker 3.40 0067  02.08.2006

@<TRIPOS>MOLECULE
ASD05740205
  58   62    0    0    0
SMALL
NO_CHARGES


@<TRIPOS>ATOM
   1 C1             0.6946    -1.2853    -1.7999 C.3     
   2 N2             0.1058    -0.4680    -0.7299 N.3     
   3 C3            -1.2227    -0.8408    -0.4868 C.ar    
   4 C4            -1.5181    -2.1367    -0.0883 C.ar    
   5 C5            -2.8281    -2.5046     0.1515 C.ar    
   6 C6            -3.8499    -1.5782    -0.0059 C.ar    
   7 C7            -3.5561    -0.2806    -0.4052 C.ar    
   8 C8            -2.2453     0.0897    -0.6392 C.ar    
   9 N9            -5.1776    -1.9522     0.2374 N.pl3   
  10 C10           -5.4675    -2.8573     1.2397 C.ar    
  11 N11           -4.4842    -3.2704     2.0318 N.ar    
  12 N12           -6.7168    -3.2764     1.3781 N.ar    
  13 C13           -7.0313    -4.1455     2.3299 C.ar    
  14 C14           -6.0104    -4.6113     3.1876 C.ar    
  15 C15           -4.7072    -4.1350     3.0053 C.ar    
  16 N16           -8.3147    -4.5974     2.4983 N.am    
  17 C17           -8.6160    -5.4779     3.4692 C.2     
  18 C18           -7.6360    -5.9743     4.3524 C.2     
  19 C19           -6.3445    -5.5680     4.2382 C.2     
  20 C20           -9.3731    -4.1138     1.6083 C.3     
  21 O21           -9.7682    -5.8569     3.5888 O.2     
  22 C22            0.9098    -0.5536     0.4973 C.3     
  23 C23            2.3307    -0.0638     0.2082 C.3     
  24 N24            2.9195    -0.8811    -0.8619 N.3     
  25 C25            2.1155    -0.7955    -2.0890 C.3     
  26 C26           -9.4145    -4.9672     0.3669 C.ar    
  27 C27          -10.2596    -4.6319    -0.6746 C.ar    
  28 C28           -8.6035    -6.0820     0.2674 C.ar    
  29 C29          -10.2976    -5.4147    -1.8131 C.ar    
  30 C30           -9.4902    -6.5327    -1.9106 C.ar    
  31 C31           -8.6415    -6.8650    -0.8715 C.ar    
  32 F32          -11.9560    -3.3273    -1.7013 F       
  33 F33          -11.9389    -3.5135     0.5756 F       
  34 C34          -11.1398    -3.4133    -0.5683 C.3     
  35 F35          -10.3415    -2.2677    -0.4806 F       
  36 F36           -1.9585     1.3517    -1.0271 F       
  37 H37            0.7265    -2.3284    -1.4852 H       
  38 H38            0.0886    -1.1955    -2.7015 H       
  39 H39           -0.7237    -2.8581     0.0341 H       
  40 H40           -3.0572    -3.5135     0.4612 H       
  41 H41           -4.3512     0.4398    -0.5283 H       
  42 H42           -5.8935    -1.5755    -0.2979 H       
  43 H43           -3.9021    -4.4699     3.6424 H       
  44 H44           -7.9124    -6.6805     5.1214 H       
  45 H45           -5.5850    -5.9414     4.9092 H       
  46 H46          -10.3333    -4.1712     2.1209 H       
  47 H47           -9.1704    -3.0792     1.3313 H       
  48 H48            0.4605     0.0696     1.2705 H       
  49 H49            0.9441    -1.5884     0.8381 H       
  50 H50            2.2988     0.9792    -0.1066 H       
  51 H51            2.9367    -0.1536     1.1097 H       
  52 H52            3.8763    -0.6126    -1.0370 H       
  53 H53            2.5647    -1.4187    -2.8623 H       
  54 H54            2.0812     0.2393    -2.4299 H       
  55 H55           -7.9398    -6.3412     1.0790 H       
  56 H56          -10.9583    -5.1532    -2.6264 H       
  57 H57           -9.5201    -7.1445    -2.8001 H       
  58 H58           -8.0108    -7.7383    -0.9476 H       
@<TRIPOS>BOND
   1    1    2 1
   2    1   25 1
   3    1   37 1
   4    1   38 1
   5    2    3 1
   6    2   22 1
   7    3    4 ar
   8    3    8 ar
   9    4    5 ar
  10    4   39 1
  11    5    6 ar
  12    5   40 1
  13    6    7 ar
  14    6    9 1
  15    7    8 ar
  16    7   41 1
  17    8   36 1
  18    9   10 1
  19    9   42 1
  20   10   11 ar
  21   10   12 ar
  22   11   15 ar
  23   12   13 ar
  24   13   14 ar
  25   13   16 1
  26   14   15 ar
  27   14   19 1
  28   15   43 1
  29   16   17 am
  30   16   20 1
  31   17   18 1
  32   17   21 2
  33   18   19 2
  34   18   44 1
  35   19   45 1
  36   20   26 1
  37   20   46 1
  38   20   47 1
  39   22   23 1
  40   22   48 1
  41   22   49 1
  42   23   24 1
  43   23   50 1
  44   23   51 1
  45   24   25 1
  46   24   52 1
  47   25   53 1
  48   25   54 1
  49   26   28 ar
  50   26   27 ar
  51   27   29 ar
  52   27   34 1
  53   28   31 ar
  54   28   55 1
  55   29   30 ar
  56   29   56 1
  57   30   31 ar
  58   30   57 1
  59   31   58 1
  60   32   34 1
  61   33   34 1
  62   34   35 1

#	End of record

