#	Name: ASD01209178
#	Creating user name:	WinNT
#	Creation time:	15. 06. 2019 19:11

#	Modifying user name:	WinNT
#	Modification time:	15. 06. 2019 19:11

#	Program:	/corina/corina34_cracker 3.40 0067  02.08.2006

@<TRIPOS>MOLECULE
ASD01209178
  79   81    0    0    0
SMALL
NO_CHARGES


@<TRIPOS>ATOM
   1 O1            -0.0372     1.4727     0.0332 O.3     
   2 O2             2.1215     2.1200     1.3872 O.3     
   3 C3             0.2779     6.2719    -9.5733 C.ar    
   4 C4             1.6488     6.4456    -9.6945 C.ar    
   5 C5             2.4739     6.2757    -8.5918 C.ar    
   6 C6             1.9313     5.9327    -7.3648 C.ar    
   7 C7             0.5526     5.7569    -7.2384 C.ar    
   8 C8            -0.2738     5.9339    -8.3485 C.ar    
   9 O9             3.8165     6.4462    -8.7163 O.3     
  10 C10           -0.0310     5.3897    -5.9308 C.2     
  11 N11            0.7686     5.2241    -4.8586 N.am    
  12 O12           -1.2321     5.2370    -5.8227 O.2     
  13 C13            0.2203     4.8791    -3.6300 C.2     
  14 P14            1.3060     2.3603     0.0200 P.3     
  15 O15            2.1470     1.9653    -1.1320 O.2     
  16 C16            0.8675     4.1239    -0.1241 C.3     
  17 N17            0.8973     4.6963    -2.5396 N.2     
  18 S18           -1.4466     4.6407    -3.3338 S.3     
  19 C19           -1.1052     4.2770    -1.6442 C.2     
  20 C20            0.2130     4.3713    -1.4588 C.2     
  21 C21           -0.0258     0.0437     0.0321 C.3     
  22 C22           -1.4641    -0.4778     0.0465 C.3     
  23 C23            2.6962     0.8600     1.7395 C.3     
  24 C24            3.3958     0.9796     3.0949 C.3     
  25 O25           -0.5256     6.4391   -10.6565 O.3     
  26 C26           -1.9108     6.1297   -10.4907 C.3     
  27 C27           -2.5188     5.7692   -11.8477 C.3     
  28 C28           -2.6390     7.3445    -9.9121 C.3     
  29 O29           -2.4869     6.9134   -12.7031 O.3     
  30 C30           -3.0344     6.6830   -14.0027 C.3     
  31 C31            4.3084     6.7996   -10.0106 C.3     
  32 C32            5.8302     6.9471    -9.9551 C.3     
  33 C33            6.3489     7.3197   -11.3200 C.ar    
  34 C34            6.4646     8.6505   -11.6759 C.ar    
  35 C35            6.7144     6.3309   -12.2142 C.ar    
  36 C36            7.1902     6.6727   -13.4662 C.ar    
  37 C37            7.3002     8.0033   -13.8243 C.ar    
  38 C38            6.9404     8.9923   -12.9279 C.ar    
  39 S39            7.9072     8.4391   -15.4200 S.o2    
  40 O40            8.4599     9.7361   -15.2425 O.2     
  41 O41            8.7249     7.3394   -15.7961 O.2     
  42 C42            6.4249     8.5160   -16.4627 C.3     
  43 H43            2.0753     6.7135   -10.6499 H       
  44 H44            2.5742     5.8003    -6.5072 H       
  45 H45           -1.3413     5.7988    -8.2550 H       
  46 H46            1.7271     5.3460    -4.9449 H       
  47 H47            0.1766     4.3929     0.6748 H       
  48 H48            1.7697     4.7303    -0.0439 H       
  49 H49           -1.8355     4.0252    -0.8895 H       
  50 H50            0.4817    -0.3149    -0.8634 H       
  51 H51            0.5000    -0.3161     0.9165 H       
  52 H52           -1.9900    -0.1179    -0.8378 H       
  53 H53           -1.4555    -1.5677     0.0457 H       
  54 H54           -1.9717    -0.1191     0.9420 H       
  55 H55            1.9106     0.1069     1.8012 H       
  56 H56            3.4217     0.5667     0.9807 H       
  57 H57            4.1814     1.7327     3.0331 H       
  58 H58            2.6702     1.2728     3.8536 H       
  59 H59            3.8341     0.0185     3.3636 H       
  60 H60           -2.0154     5.2850    -9.8098 H       
  61 H61           -1.9441     4.9611   -12.3002 H       
  62 H62           -3.5511     5.4477   -11.7094 H       
  63 H63           -3.6956     7.1084    -9.7856 H       
  64 H64           -2.2059     7.6013    -8.9454 H       
  65 H65           -2.5344     8.1892   -10.5930 H       
  66 H66           -2.9732     7.5990   -14.5904 H       
  67 H67           -2.4704     5.8939   -14.4999 H       
  68 H68           -4.0774     6.3805   -13.9091 H       
  69 H69            4.0447     6.0196   -10.7249 H       
  70 H70            3.8630     7.7441   -10.3232 H       
  71 H71            6.0938     7.7271    -9.2408 H       
  72 H72            6.2756     6.0026    -9.6425 H       
  73 H73            6.1829     9.4231   -10.9758 H       
  74 H74            6.6286     5.2913   -11.9344 H       
  75 H75            7.4765     5.9002   -14.1646 H       
  76 H76            7.0263    10.0319   -13.2076 H       
  77 H77            5.7416     9.2680   -16.0680 H       
  78 H78            6.7100     8.7826   -17.4804 H       
  79 H79            5.9323     7.5437   -16.4663 H       
@<TRIPOS>BOND
   1    1   21 1
   2    1   14 1
   3    2   23 1
   4    2   14 1
   5    3    4 ar
   6    3   25 1
   7    3    8 ar
   8    4    5 ar
   9    4   43 1
  10    5    6 ar
  11    5    9 1
  12    6    7 ar
  13    6   44 1
  14    7    8 ar
  15    7   10 1
  16    8   45 1
  17    9   31 1
  18   10   11 am
  19   10   12 2
  20   11   13 1
  21   11   46 1
  22   13   17 2
  23   13   18 1
  24   14   15 2
  25   14   16 1
  26   16   20 1
  27   16   47 1
  28   16   48 1
  29   17   20 1
  30   18   19 1
  31   19   20 2
  32   19   49 1
  33   21   22 1
  34   21   50 1
  35   21   51 1
  36   22   52 1
  37   22   53 1
  38   22   54 1
  39   23   24 1
  40   23   55 1
  41   23   56 1
  42   24   57 1
  43   24   58 1
  44   24   59 1
  45   25   26 1
  46   26   27 1
  47   26   28 1
  48   26   60 1
  49   27   29 1
  50   27   61 1
  51   27   62 1
  52   28   63 1
  53   28   64 1
  54   28   65 1
  55   29   30 1
  56   30   66 1
  57   30   67 1
  58   30   68 1
  59   31   32 1
  60   31   69 1
  61   31   70 1
  62   32   33 1
  63   32   71 1
  64   32   72 1
  65   33   34 ar
  66   33   35 ar
  67   34   38 ar
  68   34   73 1
  69   35   36 ar
  70   35   74 1
  71   36   37 ar
  72   36   75 1
  73   37   38 ar
  74   37   39 1
  75   38   76 1
  76   39   40 2
  77   39   41 2
  78   39   42 1
  79   42   77 1
  80   42   78 1
  81   42   79 1

#	End of record

