#	Name: ASD04591003
#	Creating user name:	WinNT
#	Creation time:	15. 06. 2019 20:51

#	Modifying user name:	WinNT
#	Modification time:	15. 06. 2019 20:51

#	Program:	/corina/corina34_cracker 3.40 0067  02.08.2006

@<TRIPOS>MOLECULE
ASD04591003
  61   67    0    0    0
SMALL
NO_CHARGES


@<TRIPOS>ATOM
   1 N1             0.3999     1.3550    -0.0444 N.ar    
   2 C2             0.4602     0.0295    -0.0411 C.ar    
   3 N3             1.6094    -0.6262    -0.0469 N.ar    
   4 C4             2.7645     0.0324    -0.0570 C.ar    
   5 C5             2.7343     1.4415    -0.0613 C.ar    
   6 C6             1.5018     2.0869    -0.0544 C.ar    
   7 N7             4.0760    -0.3734    -0.0648 N.pl3   
   8 C8             4.9214     0.7226    -0.0741 C.ar    
   9 C9             4.1334     1.8875    -0.0724 C.ar    
  10 C10            6.3035     0.8583    -0.0841 C.ar    
  11 N11            6.8597     2.0526    -0.0918 N.ar    
  12 C12            6.1482     3.1660    -0.0904 C.ar    
  13 C13            4.7701     3.1280    -0.0803 C.ar    
  14 N14           -0.7214    -0.6931    -0.0306 N.pl3   
  15 C15           -1.9430    -0.0306     0.0891 C.ar    
  16 N16           -1.9608     1.2766     0.2935 N.ar    
  17 C17           -3.0927     1.9444     0.4129 C.ar    
  18 C18           -4.3133     1.2919     0.3277 C.ar    
  19 C19           -4.3341    -0.0854     0.1129 C.ar    
  20 C20           -3.1283    -0.7506    -0.0133 C.ar    
  21 N21           -5.5098     2.0072     0.4563 N.3     
  22 C22           -5.2479     3.4364     0.6764 C.3     
  23 C23           -6.5770     4.1933     0.7320 C.3     
  24 N24           -7.4075     3.6407     1.8112 N.3     
  25 C25           -7.6694     2.2116     1.5911 C.3     
  26 C26           -6.3403     1.4547     1.5355 C.3     
  27 C27            3.4234    -2.6831    -0.6597 C.3     
  28 C28            4.0899    -3.3321    -1.9111 C.3     
  29 C29            4.2264    -2.1614    -2.9319 C.3     
  30 C30            5.3216    -1.2482    -2.3352 C.3     
  31 C31            4.5186    -1.7700    -0.0630 C.3     
  32 C32            5.7437    -1.9532    -1.0100 C.3     
  33 C33            5.5738    -3.4597    -1.4160 C.3     
  34 H34            1.4457     3.1654    -0.0577 H       
  35 H35            6.9279    -0.0229    -0.0853 H       
  36 H36            6.6539     4.1203    -0.0965 H       
  37 H37            4.1945     4.0419    -0.0796 H       
  38 H38           -0.6994    -1.6599    -0.1066 H       
  39 H39           -3.0681     3.0112     0.5791 H       
  40 H40           -5.2701    -0.6197     0.0423 H       
  41 H41           -3.1073    -1.8173    -0.1807 H       
  42 H42           -4.7149     3.5677     1.6181 H       
  43 H43           -4.6419     3.8253    -0.1420 H       
  44 H44           -6.3864     5.2491     0.9241 H       
  45 H45           -7.0975     4.0845    -0.2195 H       
  46 H46           -6.9799     3.7955     2.7119 H       
  47 H47           -8.2754     1.8227     2.4095 H       
  48 H48           -8.2024     2.0803     0.6494 H       
  49 H49           -6.5309     0.3988     1.3434 H       
  50 H50           -5.8198     1.5635     2.4870 H       
  51 H51            2.5556    -2.0930    -0.9544 H       
  52 H52            3.1357    -3.4508     0.0586 H       
  53 H53            3.6162    -4.2391    -2.2868 H       
  54 H54            4.5367    -2.5405    -3.9056 H       
  55 H55            3.2844    -1.6194    -3.0168 H       
  56 H56            6.1704    -1.1784    -3.0155 H       
  57 H57            4.9181    -0.2573    -2.1266 H       
  58 H58            4.7680    -2.0874     0.9495 H       
  59 H59            6.7104    -1.6593    -0.6009 H       
  60 H60            5.6627    -4.1267    -0.5585 H       
  61 H61            6.2504    -3.7448    -2.2216 H       
@<TRIPOS>BOND
   1    1    2 ar
   2    1    6 ar
   3    2    3 ar
   4    2   14 1
   5    3    4 ar
   6    4    5 ar
   7    4    7 1
   8    5    6 ar
   9    5    9 1
  10    6   34 1
  11    7    8 1
  12    7   31 1
  13    8    9 ar
  14    8   10 ar
  15    9   13 ar
  16   10   11 ar
  17   10   35 1
  18   11   12 ar
  19   12   13 ar
  20   12   36 1
  21   13   37 1
  22   14   15 1
  23   14   38 1
  24   15   16 ar
  25   15   20 ar
  26   16   17 ar
  27   17   18 ar
  28   17   39 1
  29   18   19 ar
  30   18   21 1
  31   19   20 ar
  32   19   40 1
  33   20   41 1
  34   21   22 1
  35   21   26 1
  36   22   23 1
  37   22   42 1
  38   22   43 1
  39   23   24 1
  40   23   44 1
  41   23   45 1
  42   24   25 1
  43   24   46 1
  44   25   26 1
  45   25   47 1
  46   25   48 1
  47   26   49 1
  48   26   50 1
  49   27   28 1
  50   27   31 1
  51   27   51 1
  52   27   52 1
  53   28   29 1
  54   28   33 1
  55   28   53 1
  56   29   30 1
  57   29   54 1
  58   29   55 1
  59   30   32 1
  60   30   56 1
  61   30   57 1
  62   31   32 1
  63   31   58 1
  64   32   33 1
  65   32   59 1
  66   33   60 1
  67   33   61 1

#	End of record

