#	Name: ASD07480027
#	Creating user name:	WinNT
#	Creation time:	15. 06. 2019 21:11

#	Modifying user name:	WinNT
#	Modification time:	15. 06. 2019 21:11

#	Program:	/corina/corina34_cracker 3.40 0067  02.08.2006

@<TRIPOS>MOLECULE
ASD07480027
  56   59    0    0    0
SMALL
NO_CHARGES


@<TRIPOS>ATOM
   1 N1            -0.0158     1.3169     0.0093 N.ar    
   2 C2             0.0021    -0.0041     0.0020 C.ar    
   3 C3             1.1758    -0.7037    -0.0125 C.ar    
   4 C4             2.3880     0.0025    -0.0203 C.ar    
   5 C5             2.3444     1.4118    -0.0128 C.ar    
   6 C6             1.0924     2.0422     0.0026 C.ar    
   7 C7             3.7511    -0.3686    -0.0356 C.2     
   8 C8             4.4889     0.7741    -0.0372 C.2     
   9 N9             3.6390     1.8613    -0.0234 N.pl3   
  10 C10            5.9582     0.8405    -0.0510 C.2     
  11 O11            6.5789     2.0373    -0.0512 O.3     
  12 O12            6.6127    -0.1836    -0.0622 O.2     
  13 C13            4.2901    -1.7759    -0.0476 C.3     
  14 C14            4.4581    -2.2454    -1.4940 C.3     
  15 O15            4.9693    -3.5798    -1.5053 O.3     
  16 C16            5.1780    -4.1506    -2.7218 C.ar    
  17 C17            5.6727    -5.4437    -2.8053 C.ar    
  18 C18            4.8908    -3.4419    -3.8789 C.ar    
  19 C19            5.1028    -4.0218    -5.1145 C.ar    
  20 C20            5.6033    -5.3126    -5.1982 C.ar    
  21 C21            5.8847    -6.0235    -4.0410 C.ar    
  22 C22            1.0087     3.5221     0.0104 C.ar    
  23 C23           -0.0233     4.1672    -0.6678 C.ar    
  24 C24           -0.0957     5.5505    -0.6566 C.ar    
  25 C25            0.8583     6.2902     0.0284 C.ar    
  26 C26            1.8828     5.6508     0.7016 C.ar    
  27 C27            1.9596     4.2728     0.7013 C.ar    
  28 O28            5.8112    -5.8837    -6.4146 O.3     
  29 C29            6.3285    -7.2158    -6.4260 C.3     
  30 F30            5.4411    -8.0664    -5.7580 F       
  31 F31            6.4803    -7.6458    -7.7485 F       
  32 F32            7.5705    -7.2392    -5.7825 F       
  33 O33           -1.1008     6.1835    -1.3169 O.3     
  34 C34           -2.3093     8.1407    -2.0582 C.3     
  35 C35           -1.1140     7.6115    -1.2632 C.3     
  36 H36           -0.9333    -0.5439     0.0080 H       
  37 H37            1.1704    -1.7837    -0.0175 H       
  38 H38            3.9131     2.7917    -0.0211 H       
  39 H39            7.5458     2.0303    -0.0606 H       
  40 H40            5.2563    -1.7991     0.4565 H       
  41 H41            3.5942    -2.4359     0.4702 H       
  42 H42            3.4920    -2.2221    -1.9981 H       
  43 H43            5.1541    -1.5853    -2.0118 H       
  44 H44            5.8925    -5.9971    -1.9043 H       
  45 H45            4.5011    -2.4368    -3.8138 H       
  46 H46            4.8785    -3.4701    -6.0155 H       
  47 H47            6.2748    -7.0285    -4.1061 H       
  48 H48           -0.7645     3.5904    -1.2009 H       
  49 H49            0.8004     7.3687     0.0353 H       
  50 H50            2.6226     6.2311     1.2331 H       
  51 H51            2.7610     3.7763     1.2281 H       
  52 H52           -2.2277     7.8169    -3.0957 H       
  53 H53           -3.2325     7.7524    -1.6279 H       
  54 H54           -2.3193     9.2299    -2.0172 H       
  55 H55           -1.1956     7.9353    -0.2256 H       
  56 H56           -0.1908     7.9997    -1.6934 H       
@<TRIPOS>BOND
   1    1    2 ar
   2    1    6 ar
   3    2    3 ar
   4    2   36 1
   5    3    4 ar
   6    3   37 1
   7    4    5 ar
   8    4    7 1
   9    5    6 ar
  10    5    9 1
  11    6   22 1
  12    7    8 2
  13    7   13 1
  14    8    9 1
  15    8   10 1
  16    9   38 1
  17   10   11 1
  18   10   12 2
  19   11   39 1
  20   13   14 1
  21   13   40 1
  22   13   41 1
  23   14   15 1
  24   14   42 1
  25   14   43 1
  26   15   16 1
  27   16   17 ar
  28   16   18 ar
  29   17   21 ar
  30   17   44 1
  31   18   19 ar
  32   18   45 1
  33   19   20 ar
  34   19   46 1
  35   20   21 ar
  36   20   28 1
  37   21   47 1
  38   22   23 ar
  39   22   27 ar
  40   23   24 ar
  41   23   48 1
  42   24   25 ar
  43   24   33 1
  44   25   26 ar
  45   25   49 1
  46   26   27 ar
  47   26   50 1
  48   27   51 1
  49   28   29 1
  50   29   30 1
  51   29   31 1
  52   29   32 1
  53   33   35 1
  54   34   35 1
  55   34   52 1
  56   34   53 1
  57   34   54 1
  58   35   55 1
  59   35   56 1

#	End of record

