#	Name: ASD01940476
#	Creating user name:	WinNT
#	Creation time:	15. 06. 2019 20:12

#	Modifying user name:	WinNT
#	Modification time:	15. 06. 2019 20:12

#	Program:	/corina/corina34_cracker 3.40 0067  02.08.2006

@<TRIPOS>MOLECULE
ASD01940476
  33   34    0    0    0
SMALL
NO_CHARGES


@<TRIPOS>ATOM
   1 C1             0.7245     0.6494     2.0721 C.2     
   2 C2             0.3040    -0.2765     1.0083 C.ar    
   3 C3             1.1077    -0.4532    -0.1301 C.ar    
   4 C4             0.6924    -1.3423    -1.1385 C.ar    
   5 C5            -0.5165    -2.0389    -0.9934 C.ar    
   6 C6            -1.2957    -1.8525     0.1348 C.ar    
   7 C7            -0.8934    -0.9869     1.1304 C.ar    
   8 O8             1.7289     1.3194     1.9326 O.2     
   9 O9            -0.0072     0.7584     3.1988 O.3     
  10 C10            1.5172    -1.5390    -2.3327 C.2     
  11 O11            1.1608    -2.3144    -3.1953 O.2     
  12 N12            2.2935     0.2392    -0.2586 N.pl3   
  13 C13            3.4964    -0.3486     0.1552 C.ar    
  14 C14            4.6729     0.3940     0.1457 C.ar    
  15 C15            5.8587    -0.1864     0.5539 C.ar    
  16 C16            5.8750    -1.5111     0.9735 C.ar    
  17 C17            4.6996    -2.2514     0.9825 C.ar    
  18 C18            3.5132    -1.6698     0.5800 C.ar    
  19 S19            7.3867    -2.2520     1.4935 S.3     
  20 C20            6.8852    -3.9400     1.9291 C.3     
  21 F21            4.6561     1.6816    -0.2628 F       
  22 F22           -0.9213    -2.8938    -1.9581 F       
  23 H23           -2.2251    -2.3928     0.2386 H       
  24 H24           -1.5092    -0.8544     2.0077 H       
  25 H25            0.3088     1.3796     3.8692 H       
  26 H26            2.4426    -0.9937    -2.4457 H       
  27 H27            2.2948     1.1330    -0.6354 H       
  28 H28            6.7725     0.3892     0.5464 H       
  29 H29            4.7127    -3.2810     1.3084 H       
  30 H30            2.5990    -2.2447     0.5916 H       
  31 H31            6.1409    -3.9041     2.7245 H       
  32 H32            6.4582    -4.4294     1.0537 H       
  33 H33            7.7553    -4.5008     2.2706 H       
@<TRIPOS>BOND
   1    1    2 1
   2    1    8 2
   3    1    9 1
   4    2    3 ar
   5    2    7 ar
   6    3    4 ar
   7    3   12 1
   8    4    5 ar
   9    4   10 1
  10    5    6 ar
  11    5   22 1
  12    6    7 ar
  13    6   23 1
  14    7   24 1
  15    9   25 1
  16   10   11 2
  17   10   26 1
  18   12   13 1
  19   12   27 1
  20   13   14 ar
  21   13   18 ar
  22   14   15 ar
  23   14   21 1
  24   15   16 ar
  25   15   28 1
  26   16   17 ar
  27   16   19 1
  28   17   18 ar
  29   17   29 1
  30   18   30 1
  31   19   20 1
  32   20   31 1
  33   20   32 1
  34   20   33 1

#	End of record

