#	Name: ASD03180107
#	Creating user name:	WinNT
#	Creation time:	15. 06. 2019 20:33

#	Modifying user name:	WinNT
#	Modification time:	15. 06. 2019 20:33

#	Program:	/corina/corina34_cracker 3.40 0067  02.08.2006

@<TRIPOS>MOLECULE
ASD03180107
  23   24    0    0    0
SMALL
NO_CHARGES


@<TRIPOS>ATOM
   1 N1            -0.0155     1.2928     0.0091 N.2     
   2 C2             1.1657     1.9111     0.0012 C.2     
   3 C3             0.0021    -0.0041     0.0020 C.2     
   4 S4             1.6697    -0.5688    -0.0169 S.3     
   5 C5             2.2384     1.0987    -0.0134 C.2     
   6 C6             1.2882     3.3847     0.0075 C.2     
   7 S7             2.8034     4.2779    -0.0035 S.3     
   8 C8             1.9376     5.8084     0.0132 C.2     
   9 C9             0.6217     5.5831     0.0255 C.2     
  10 C10            0.2562     4.2514     0.0166 C.2     
  11 N11           -1.1182    -0.8191     0.0088 N.pl3   
  12 C12           -1.1825     3.8029     0.0216 C.3     
  13 C13            2.5839     7.1698     0.0143 C.3     
  14 H14            3.2711     1.4148    -0.0216 H       
  15 H15           -0.1035     6.3833     0.0371 H       
  16 H16           -2.0045    -0.4251     0.0197 H       
  17 H17           -1.0162    -1.7837     0.0026 H       
  18 H18           -1.5243     3.6899     1.0504 H       
  19 H19           -1.7968     4.5468    -0.4857 H       
  20 H20           -1.2670     2.8475    -0.4963 H       
  21 H21            3.6680     7.0574     0.0028 H       
  22 H22            2.2666     7.7234    -0.8694 H       
  23 H23            2.2845     7.7134     0.9105 H       
@<TRIPOS>BOND
   1    1    3 2
   2    1    2 1
   3    2    5 2
   4    2    6 1
   5    3    4 1
   6    3   11 1
   7    4    5 1
   8    5   14 1
   9    6    7 1
  10    6   10 2
  11    7    8 1
  12    8    9 2
  13    8   13 1
  14    9   10 1
  15    9   15 1
  16   10   12 1
  17   11   16 1
  18   11   17 1
  19   12   18 1
  20   12   19 1
  21   12   20 1
  22   13   21 1
  23   13   22 1
  24   13   23 1

#	End of record

