#	Name: ASD01880218
#	Creating user name:	WinNT
#	Creation time:	15. 06. 2019 19:40

#	Modifying user name:	WinNT
#	Modification time:	15. 06. 2019 19:40

#	Program:	/corina/corina34_cracker 3.40 0067  02.08.2006

@<TRIPOS>MOLECULE
ASD01880218
  40   42    0    0    0
SMALL
NO_CHARGES


@<TRIPOS>ATOM
   1 C1            -0.0184     1.5028     0.0103 C.3     
   2 C2             0.0021    -0.0041     0.0020 C.ar    
   3 C3             0.0229    -0.7006     1.1962 C.ar    
   4 C4             0.0416    -2.0819     1.1913 C.ar    
   5 C5             0.0396    -2.7702    -0.0132 C.ar    
   6 C6             0.0187    -2.0690    -1.2101 C.ar    
   7 C7            -0.0057    -0.6878    -1.1997 C.ar    
   8 O8             0.0585    -4.1290    -0.0207 O.3     
   9 C9             0.0551    -4.7709    -1.2974 C.3     
  10 N10            1.3560     2.0099    -0.0001 N.am    
  11 C11            0.0778    -6.2658    -1.1082 C.ar    
  12 C12           -1.1031    -6.9764    -1.0088 C.ar    
  13 N13           -1.0913    -8.2848    -0.8432 N.ar    
  14 C14            0.0364    -8.9638    -0.7665 C.ar    
  15 C15            1.2565    -8.3207    -0.8581 C.ar    
  16 C16            1.2840    -6.9463    -1.0374 C.ar    
  17 C17            1.9981     2.2581    -1.2883 C.3     
  18 C18            3.1868     3.2058    -1.1046 C.3     
  19 C19            4.0322     2.6986     0.0718 C.3     
  20 O20            3.2062     2.7289     1.2683 O.3     
  21 C21            1.9644     2.2297     1.1704 C.2     
  22 O22            1.3681     1.9558     2.1930 O.2     
  23 H23           -0.5455     1.8639    -0.8728 H       
  24 H24           -0.5286     1.8543     0.9071 H       
  25 H25            0.0248    -0.1643     2.1337 H       
  26 H26            0.0582    -2.6255     2.1244 H       
  27 H27            0.0171    -2.6025    -2.1491 H       
  28 H28           -0.0220    -0.1414    -2.1312 H       
  29 H29           -0.8443    -4.4875    -1.8442 H       
  30 H30            0.9354    -4.4626    -1.8614 H       
  31 H31           -2.0468    -6.4543    -1.0672 H       
  32 H32            0.0064   -10.0347    -0.6302 H       
  33 H33            2.1768    -8.8823    -0.7942 H       
  34 H34            2.2225    -6.4172    -1.1123 H       
  35 H35            2.3487     1.3143    -1.7059 H       
  36 H36            1.2777     2.7091    -1.9709 H       
  37 H37            3.7904     3.2180    -2.0121 H       
  38 H38            2.8250     4.2114    -0.8901 H       
  39 H39            4.3597     1.6775    -0.1236 H       
  40 H40            4.8998     3.3445     0.2070 H       
@<TRIPOS>BOND
   1    1    2 1
   2    1   10 1
   3    1   23 1
   4    1   24 1
   5    2    3 ar
   6    2    7 ar
   7    3    4 ar
   8    3   25 1
   9    4    5 ar
  10    4   26 1
  11    5    6 ar
  12    5    8 1
  13    6    7 ar
  14    6   27 1
  15    7   28 1
  16    8    9 1
  17    9   11 1
  18    9   29 1
  19    9   30 1
  20   10   17 1
  21   10   21 am
  22   11   12 ar
  23   11   16 ar
  24   12   13 ar
  25   12   31 1
  26   13   14 ar
  27   14   15 ar
  28   14   32 1
  29   15   16 ar
  30   15   33 1
  31   16   34 1
  32   17   18 1
  33   17   35 1
  34   17   36 1
  35   18   19 1
  36   18   37 1
  37   18   38 1
  38   19   20 1
  39   19   39 1
  40   19   40 1
  41   20   21 1
  42   21   22 2

#	End of record

