#	Name: ASD02560226
#	Creating user name:	WinNT
#	Creation time:	15. 06. 2019 20:24

#	Modifying user name:	WinNT
#	Modification time:	15. 06. 2019 20:24

#	Program:	/corina/corina34_cracker 3.40 0067  02.08.2006

@<TRIPOS>MOLECULE
ASD02560226
  67   70    0    0    0
SMALL
NO_CHARGES


@<TRIPOS>ATOM
   1 Br1            1.7031     2.4558    -1.5620 Br      
   2 N2             0.0402     1.3272     0.4365 N.2     
   3 N3            -0.1973     0.1262     0.2748 N.2     
   4 C4             1.4594     1.6243     0.2027 C.3     
   5 N5             2.1353     0.3030     0.2496 N.3     
   6 C6             1.0174    -0.6102    -0.0980 C.3     
   7 S7             1.1400    -2.1496     0.8537 S.3     
   8 C8             1.0482    -1.5755     2.5720 C.3     
   9 C9             1.1380    -2.7578     3.5021 C.2     
  10 O10            1.2526    -3.8774     3.0504 O.2     
  11 N11            1.0909    -2.5709     4.8360 N.am    
  12 C12            3.1535     0.2292    -0.6984 C.ar    
  13 C13            1.1068    -3.6696     5.6952 C.ar    
  14 C14            0.4454    -3.6043     6.9189 C.ar    
  15 C15            0.4595    -4.6878     7.7693 C.ar    
  16 C16            1.1386    -5.8531     7.4024 C.ar    
  17 C17            1.8009    -5.9146     6.1737 C.ar    
  18 C18            1.7783    -4.8299     5.3255 C.ar    
  19 Cl19          -0.3970    -2.1560     7.3733 Cl      
  20 C20            1.1563    -7.0160     8.3111 C.2     
  21 C21            4.2380     1.1313    -0.6504 C.ar    
  22 C22            3.1139    -0.7293    -1.6888 C.ar    
  23 C23            4.1258    -0.8114    -2.6403 C.ar    
  24 C24            5.1809     0.0493    -2.6206 C.ar    
  25 C25            5.2620     1.0375    -1.6250 C.ar    
  26 C26            4.3207     2.1188     0.3436 C.ar    
  27 C27            6.3391     1.9396    -1.5805 C.ar    
  28 C28            6.3861     2.8849    -0.6025 C.ar    
  29 C29            5.3813     2.9725     0.3591 C.ar    
  30 C30            6.2638    -0.0617    -3.6627 C.3     
  31 N31            1.8115    -8.1389     7.9559 N.am    
  32 O32            0.5798    -6.9610     9.3802 O.2     
  33 C33            1.8291    -9.2932     8.8578 C.3     
  34 C34            2.6350   -10.4266     8.2200 C.3     
  35 C35            2.6534   -11.6321     9.1620 C.3     
  36 C36            3.4593   -12.7655     8.5242 C.3     
  37 O37            3.4764   -13.8914     9.4040 O.3     
  38 C38            7.4142    -0.9085    -3.1146 C.3     
  39 H39            1.8450     2.2759     0.9868 H       
  40 H40            1.0193    -0.8227    -1.1671 H       
  41 H41            1.8741    -0.8927     2.7715 H       
  42 H42            0.1023    -1.0582     2.7321 H       
  43 H43            1.0460    -1.6723     5.1986 H       
  44 H44           -0.0532    -4.6369     8.7185 H       
  45 H45            2.3265    -6.8136     5.8875 H       
  46 H46            2.2900    -4.8774     4.3756 H       
  47 H47            2.2882    -1.4245    -1.7262 H       
  48 H48            4.0737    -1.5704    -3.4068 H       
  49 H49            3.5467     2.2013     1.0923 H       
  50 H50            7.1256     1.8827    -2.3185 H       
  51 H51            7.2147     3.5768    -0.5706 H       
  52 H52            5.4418     3.7321     1.1244 H       
  53 H53            5.8595    -0.5339    -4.5580 H       
  54 H54            6.6319     0.9337    -3.9116 H       
  55 H55            2.2714    -8.1828     7.1029 H       
  56 H56            2.2892    -9.0080     9.8039 H       
  57 H57            0.8080    -9.6297     9.0372 H       
  58 H58            2.1749   -10.7118     7.2739 H       
  59 H59            3.6561   -10.0901     8.0406 H       
  60 H60            3.1135   -11.3469    10.1081 H       
  61 H61            1.6323   -11.9686     9.3414 H       
  62 H62            2.9992   -13.0507     7.5781 H       
  63 H63            4.4804   -12.4290     8.3448 H       
  64 H64            3.9710   -14.6493     9.0633 H       
  65 H65            7.0461    -1.9039    -2.8657 H       
  66 H66            8.1975    -0.9888    -3.8683 H       
  67 H67            7.8185    -0.4363    -2.2193 H       
@<TRIPOS>BOND
   1    1    4 1
   2    2    3 2
   3    2    4 1
   4    3    6 1
   5    4    5 1
   6    4   39 1
   7    5    6 1
   8    5   12 1
   9    6    7 1
  10    6   40 1
  11    7    8 1
  12    8    9 1
  13    8   41 1
  14    8   42 1
  15    9   10 2
  16    9   11 am
  17   11   13 1
  18   11   43 1
  19   12   21 ar
  20   12   22 ar
  21   13   14 ar
  22   13   18 ar
  23   14   15 ar
  24   14   19 1
  25   15   16 ar
  26   15   44 1
  27   16   17 ar
  28   16   20 1
  29   17   18 ar
  30   17   45 1
  31   18   46 1
  32   20   31 am
  33   20   32 2
  34   21   25 ar
  35   21   26 ar
  36   22   23 ar
  37   22   47 1
  38   23   24 ar
  39   23   48 1
  40   24   25 ar
  41   24   30 1
  42   25   27 ar
  43   26   29 ar
  44   26   49 1
  45   27   28 ar
  46   27   50 1
  47   28   29 ar
  48   28   51 1
  49   29   52 1
  50   30   38 1
  51   30   53 1
  52   30   54 1
  53   31   33 1
  54   31   55 1
  55   33   34 1
  56   33   56 1
  57   33   57 1
  58   34   35 1
  59   34   58 1
  60   34   59 1
  61   35   36 1
  62   35   60 1
  63   35   61 1
  64   36   37 1
  65   36   62 1
  66   36   63 1
  67   37   64 1
  68   38   65 1
  69   38   66 1
  70   38   67 1

#	End of record

