#	Name: ASD04882370
#	Creating user name:	WinNT
#	Creation time:	15. 06. 2019 20:54

#	Modifying user name:	WinNT
#	Modification time:	15. 06. 2019 20:54

#	Program:	/corina/corina34_cracker 3.40 0067  02.08.2006

@<TRIPOS>MOLECULE
ASD04882370
  86   92    0    0    0
SMALL
NO_CHARGES


@<TRIPOS>ATOM
   1 N1            -0.0169     1.3970     0.0097 N.am    
   2 C2             0.1097     0.0022    -0.0340 C.ar    
   3 C3            -1.0275    -0.8062     0.0459 C.ar    
   4 C4            -0.9033    -2.1902     0.0031 C.ar    
   5 C5             0.3402    -2.7696    -0.1179 C.ar    
   6 C6             1.4816    -1.9670    -0.1983 C.ar    
   7 C7             1.3589    -0.5752    -0.1618 C.ar    
   8 N8            -2.2868    -0.2246     0.1689 N.3     
   9 C9            -3.1526    -0.6000    -0.9577 C.3     
  10 C10           -2.9098    -0.5835     1.4505 C.3     
  11 C11           -4.2536     0.1373     1.5811 C.3     
  12 N12           -5.1194    -0.2381     0.4545 N.3     
  13 C13           -4.4964     0.1209    -0.8271 C.3     
  14 C14            2.8136    -2.5880    -0.3271 C.2     
  15 O15            3.8061    -1.8890    -0.3969 O.2     
  16 C16            0.9210     2.1771    -0.5631 C.2     
  17 C17            0.7439     3.6401    -0.5948 C.2     
  18 O18            1.9136     1.6739    -1.0540 O.2     
  19 C19           -6.3824     0.3453     0.5779 C.ar    
  20 C20           -6.5094     1.7277     0.6213 C.ar    
  21 C21           -7.5151    -0.4558     0.6517 C.ar    
  22 C22           -8.7623     0.1242     0.7737 C.ar    
  23 C23           -8.8847     1.5010     0.8219 C.ar    
  24 C24           -7.7599     2.3014     0.7434 C.ar    
  25 C25            1.6022     4.5470    -1.1363 C.2     
  26 N26           -0.3113     4.3377    -0.0934 N.2     
  27 C27           -0.1089     5.6028    -0.3100 C.2     
  28 O28            1.0590     5.7604    -0.9489 O.3     
  29 N29            2.9304    -3.9301    -0.3673 N.am    
  30 C30           -1.0416     6.7166     0.0905 C.3     
  31 C31           -0.5004     7.7820     1.0461 C.3     
  32 C32           -0.7281     8.1214    -0.4283 C.3     
  33 C33           -7.3828    -1.9560     0.5983 C.3     
  34 C34            4.2532    -4.5467    -0.4952 C.3     
  35 C35            4.1061    -6.0695    -0.5168 C.3     
  36 C36            5.4875    -6.7135    -0.6504 C.3     
  37 N37            5.3466    -8.1715    -0.6710 N.am    
  38 C38            5.1764    -8.9347    -1.7793 C.2     
  39 C39            5.3728    -9.0652     0.5219 C.3     
  40 C40            4.3541   -10.1719     0.0679 C.3     
  41 C41            5.0630   -10.3956    -1.3200 C.3     
  42 O42            5.1235    -8.5363    -2.9236 O.2     
  43 C43            6.7193    -9.8438     0.3898 C.3     
  44 C44            6.5083   -10.7493    -0.8453 C.3     
  45 O45            6.5936   -12.1280    -0.4792 O.3     
  46 O46            7.8023    -8.9384     0.1676 O.3     
  47 H47           -0.7817     1.8010     0.4488 H       
  48 H48           -1.7839    -2.8123     0.0654 H       
  49 H49            0.4334    -3.8451    -0.1505 H       
  50 H50            2.2391     0.0476    -0.2240 H       
  51 H51           -2.6753    -0.3127    -1.8946 H       
  52 H52           -3.3155    -1.6777    -0.9477 H       
  53 H53           -3.0700    -1.6610     1.4879 H       
  54 H54           -2.2555    -0.2842     2.2693 H       
  55 H55           -4.7308    -0.1499     2.5180 H       
  56 H56           -4.0906     1.2151     1.5711 H       
  57 H57           -4.3362     1.1984    -0.8645 H       
  58 H58           -5.1506    -0.1784    -1.6459 H       
  59 H59           -5.6312     2.3535     0.5600 H       
  60 H60           -9.6432    -0.4979     0.8312 H       
  61 H61           -9.8614     1.9521     0.9166 H       
  62 H62           -7.8590     3.3761     0.7813 H       
  63 H63            2.5415     4.3315    -1.6239 H       
  64 H64            2.1387    -4.4877    -0.3116 H       
  65 H65           -2.0909     6.4386     0.1889 H       
  66 H66           -1.1939     8.2051     1.7729 H       
  67 H67            0.5302     7.6772     1.3851 H       
  68 H68            0.1527     8.2400    -1.0593 H       
  69 H69           -1.5713     8.7679    -0.6715 H       
  70 H70           -7.2639    -2.3465     1.6090 H       
  71 H71           -8.2778    -2.3838     0.1466 H       
  72 H72           -6.5112    -2.2228     0.0008 H       
  73 H73            4.7212    -4.2137    -1.4216 H       
  74 H74            4.8741    -4.2536     0.3513 H       
  75 H75            3.6380    -6.4024     0.4095 H       
  76 H76            3.4852    -6.3625    -1.3634 H       
  77 H77            5.9555    -6.3805    -1.5768 H       
  78 H78            6.1084    -6.4204     0.1962 H       
  79 H79            5.1747    -8.5889     1.4821 H       
  80 H80            4.3919   -11.0579     0.7017 H       
  81 H81            3.3401    -9.7863    -0.0379 H       
  82 H82            4.5835   -11.0883    -2.0116 H       
  83 H83            6.9019   -10.4458     1.2800 H       
  84 H84            7.2355   -10.5124    -1.6220 H       
  85 H85            7.4704   -12.4012    -0.1767 H       
  86 H86            8.6632    -9.3695     0.0781 H       
@<TRIPOS>BOND
   1    1    2 1
   2    1   16 am
   3    1   47 1
   4    2    3 ar
   5    2    7 ar
   6    3    4 ar
   7    3    8 1
   8    4    5 ar
   9    4   48 1
  10    5    6 ar
  11    5   49 1
  12    6    7 ar
  13    6   14 1
  14    7   50 1
  15    8    9 1
  16    8   10 1
  17    9   13 1
  18    9   51 1
  19    9   52 1
  20   10   11 1
  21   10   53 1
  22   10   54 1
  23   11   12 1
  24   11   55 1
  25   11   56 1
  26   12   13 1
  27   12   19 1
  28   13   57 1
  29   13   58 1
  30   14   15 2
  31   14   29 am
  32   16   18 2
  33   16   17 1
  34   17   25 2
  35   17   26 1
  36   19   20 ar
  37   19   21 ar
  38   20   24 ar
  39   20   59 1
  40   21   22 ar
  41   21   33 1
  42   22   23 ar
  43   22   60 1
  44   23   24 ar
  45   23   61 1
  46   24   62 1
  47   25   28 1
  48   25   63 1
  49   26   27 2
  50   27   28 1
  51   27   30 1
  52   29   34 1
  53   29   64 1
  54   30   31 1
  55   30   32 1
  56   30   65 1
  57   31   32 1
  58   31   66 1
  59   31   67 1
  60   32   68 1
  61   32   69 1
  62   33   70 1
  63   33   71 1
  64   33   72 1
  65   34   35 1
  66   34   73 1
  67   34   74 1
  68   35   36 1
  69   35   75 1
  70   35   76 1
  71   36   37 1
  72   36   77 1
  73   36   78 1
  74   37   38 am
  75   37   39 1
  76   38   42 2
  77   38   41 1
  78   39   40 1
  79   39   43 1
  80   39   79 1
  81   40   41 1
  82   40   80 1
  83   40   81 1
  84   41   44 1
  85   41   82 1
  86   43   46 1
  87   43   44 1
  88   43   83 1
  89   44   45 1
  90   44   84 1
  91   45   85 1
  92   46   86 1

#	End of record

