#	Name: ASD03092418
#	Creating user name:	WinNT
#	Creation time:	15. 06. 2019 20:32

#	Modifying user name:	WinNT
#	Modification time:	15. 06. 2019 20:32

#	Program:	/corina/corina34_cracker 3.40 0067  02.08.2006

@<TRIPOS>MOLECULE
ASD03092418
  56   59    0    0    0
SMALL
NO_CHARGES


@<TRIPOS>ATOM
   1 C1             0.3408     1.9898     0.1457 C.2     
   2 C2             0.5545     0.5306     0.2249 C.ar    
   3 C3             1.8525     0.0099     0.2368 C.ar    
   4 C4             2.0433    -1.3576     0.3111 C.ar    
   5 C5             0.9548    -2.2076     0.3728 C.ar    
   6 C6            -0.3320    -1.6976     0.3609 C.ar    
   7 C7            -0.5383    -0.3358     0.2939 C.ar    
   8 O8             1.2945     2.7417     0.0908 O.2     
   9 N9            -0.9115     2.4876     0.1288 N.am    
  10 F10            2.9164     0.8403     0.1756 F       
  11 C11           -1.1235     3.9350     0.0503 C.3     
  12 S12           -4.9829     4.7242    -0.6384 S.3     
  13 C13           -4.5796     4.5776     1.0163 C.2     
  14 N14           -3.3137     4.3224     1.1505 N.2     
  15 C15           -2.6020     4.2268     0.0468 C.2     
  16 C16           -3.3080     4.4120    -1.0867 C.2     
  17 C17           -3.0728     5.3711    -3.3793 C.ar    
  18 C18           -2.7715     4.3619    -2.4628 C.ar    
  19 C19           -1.9523     3.3021    -2.8693 C.ar    
  20 C20           -1.4755     3.3027    -4.1684 C.ar    
  21 C21           -1.8201     4.3402    -5.0157 C.ar    
  22 N22           -2.5943     5.3266    -4.6053 N.ar    
  23 C23           -1.3023     4.3444    -6.4310 C.3     
  24 N24           -5.4747     4.7117     2.0634 N.3     
  25 C25           -6.8282     4.9982     1.5661 C.3     
  26 C26           -7.7715     5.1976     2.7554 C.3     
  27 O27           -7.7350     4.0343     3.5866 O.3     
  28 C28           -6.4319     3.7263     4.0889 C.3     
  29 C29           -5.4751     3.5120     2.9132 C.3     
  30 C30           -6.4978     2.4518     4.9329 C.3     
  31 C31           -9.1973     5.4167     2.2455 C.3     
  32 H32            3.0445    -1.7625     0.3205 H       
  33 H33            1.1091    -3.2749     0.4304 H       
  34 H34           -1.1772    -2.3683     0.4087 H       
  35 H35           -1.5433     0.0596     0.2896 H       
  36 H36           -1.6726     1.8874     0.1686 H       
  37 H37           -0.6600     4.4173     0.9110 H       
  38 H38           -0.6752     4.3187    -0.8662 H       
  39 H39           -3.7071     6.1929    -3.0817 H       
  40 H40           -1.6986     2.5047    -2.1865 H       
  41 H41           -0.8407     2.5016    -4.5170 H       
  42 H42           -2.0068     3.8208    -7.0772 H       
  43 H43           -1.1900     5.3729    -6.7738 H       
  44 H44           -0.3354     3.8423    -6.4655 H       
  45 H45           -6.8093     5.9044     0.9607 H       
  46 H46           -7.1779     4.1622     0.9604 H       
  47 H47           -7.4526     6.0664     3.3312 H       
  48 H48           -6.0741     4.5524     4.7035 H       
  49 H49           -5.8032     2.6523     2.3290 H       
  50 H50           -4.4684     3.3333     3.2910 H       
  51 H51           -6.8539     1.6261     4.3168 H       
  52 H52           -5.5044     2.2176     5.3154 H       
  53 H53           -7.1821     2.6037     5.7676 H       
  54 H54           -9.5156     4.5464     1.6716 H       
  55 H55           -9.8683     5.5586     3.0927 H       
  56 H56           -9.2236     6.3011     1.6090 H       
@<TRIPOS>BOND
   1    1    2 1
   2    1    8 2
   3    1    9 am
   4    2    3 ar
   5    2    7 ar
   6    3    4 ar
   7    3   10 1
   8    4    5 ar
   9    4   32 1
  10    5    6 ar
  11    5   33 1
  12    6    7 ar
  13    6   34 1
  14    7   35 1
  15    9   11 1
  16    9   36 1
  17   11   15 1
  18   11   37 1
  19   11   38 1
  20   12   13 1
  21   12   16 1
  22   13   14 2
  23   13   24 1
  24   14   15 1
  25   15   16 2
  26   16   18 1
  27   17   18 ar
  28   17   22 ar
  29   17   39 1
  30   18   19 ar
  31   19   20 ar
  32   19   40 1
  33   20   21 ar
  34   20   41 1
  35   21   22 ar
  36   21   23 1
  37   23   42 1
  38   23   43 1
  39   23   44 1
  40   24   25 1
  41   24   29 1
  42   25   26 1
  43   25   45 1
  44   25   46 1
  45   26   27 1
  46   26   31 1
  47   26   47 1
  48   27   28 1
  49   28   29 1
  50   28   30 1
  51   28   48 1
  52   29   49 1
  53   29   50 1
  54   30   51 1
  55   30   52 1
  56   30   53 1
  57   31   54 1
  58   31   55 1
  59   31   56 1

#	End of record

