#	Name: ASD00071079
#	Creating user name:	WinNT
#	Creation time:	15. 06. 2019 18:30

#	Modifying user name:	WinNT
#	Modification time:	15. 06. 2019 18:30

#	Program:	/corina/corina34_cracker 3.40 0067  02.08.2006

@<TRIPOS>MOLECULE
ASD00071079
  37   39    0    0    0
SMALL
NO_CHARGES


@<TRIPOS>ATOM
   1 N1            -0.0157     1.3065     0.0092 N.2     
   2 C2             0.0021    -0.0041     0.0020 C.2     
   3 N3             1.1984    -0.6822     0.0317 N.pl3   
   4 C4             2.3732    -0.0684    -0.6058 C.3     
   5 C5             2.3601     1.4066    -0.2838 C.ar    
   6 C6             3.5306     2.1320    -0.2741 C.ar    
   7 C7             3.5023     3.4864     0.0113 C.ar    
   8 C8             2.3010     4.1157     0.2867 C.ar    
   9 C9             1.1230     3.3980     0.2846 C.ar    
  10 C10            1.1441     2.0306     0.0020 C.ar    
  11 N11           -1.1783    -0.7029    -0.0348 N.pl3   
  12 C12            1.3004    -1.9893     0.6854 C.3     
  13 C13            1.0037    -3.0761    -0.3155 C.ar    
  14 C14            1.9845    -3.4848    -1.2078 C.ar    
  15 C15            1.7083    -4.4854    -2.1279 C.ar    
  16 C16            0.4578    -5.0725    -2.1538 C.ar    
  17 C17           -0.5178    -4.6632    -1.2640 C.ar    
  18 C18           -0.2430    -3.6701    -0.3416 C.ar    
  19 O19            3.2135    -2.9055    -1.1807 O.3     
  20 C20            4.1738    -3.3764    -2.1285 C.3     
  21 F21            3.6895    -3.1701    -3.4247 F       
  22 F22            5.3743    -2.6775    -1.9625 F       
  23 F23            4.3976    -4.7425    -1.9262 F       
  24 H24            3.2838    -0.5228    -0.2154 H       
  25 H25            2.3231    -0.2105    -1.6853 H       
  26 H26            4.4702     1.6446    -0.4885 H       
  27 H27            4.4211     4.0539     0.0193 H       
  28 H28            2.2857     5.1734     0.5045 H       
  29 H29            0.1873     3.8920     0.5009 H       
  30 H30           -2.0233    -0.2269    -0.0555 H       
  31 H31           -1.1678    -1.6728    -0.0402 H       
  32 H32            2.3088    -2.1217     1.0774 H       
  33 H33            0.5825    -2.0432     1.5038 H       
  34 H34            2.4699    -4.8051    -2.8238 H       
  35 H35            0.2422    -5.8516    -2.8700 H       
  36 H36           -1.4949    -5.1228    -1.2863 H       
  37 H37           -1.0053    -3.3554     0.3556 H       
@<TRIPOS>BOND
   1    1    2 2
   2    1   10 1
   3    2    3 1
   4    2   11 1
   5    3    4 1
   6    3   12 1
   7    4    5 1
   8    4   24 1
   9    4   25 1
  10    5    6 ar
  11    5   10 ar
  12    6    7 ar
  13    6   26 1
  14    7    8 ar
  15    7   27 1
  16    8    9 ar
  17    8   28 1
  18    9   10 ar
  19    9   29 1
  20   11   30 1
  21   11   31 1
  22   12   13 1
  23   12   32 1
  24   12   33 1
  25   13   14 ar
  26   13   18 ar
  27   14   15 ar
  28   14   19 1
  29   15   16 ar
  30   15   34 1
  31   16   17 ar
  32   16   35 1
  33   17   18 ar
  34   17   36 1
  35   18   37 1
  36   19   20 1
  37   20   21 1
  38   20   22 1
  39   20   23 1

#	End of record

