#	Name: ASD01884976
#	Creating user name:	WinNT
#	Creation time:	15. 06. 2019 19:49

#	Modifying user name:	WinNT
#	Modification time:	15. 06. 2019 19:49

#	Program:	/corina/corina34_cracker 3.40 0067  02.08.2006

@<TRIPOS>MOLECULE
ASD01884976
  50   54    0    0    0
SMALL
NO_CHARGES


@<TRIPOS>ATOM
   1 C1             0.0268     1.4057     0.1654 C.ar    
   2 C2             0.0797     0.0274     0.1643 C.ar    
   3 C3            -1.0944    -0.7139     0.0283 C.ar    
   4 C4            -2.3181    -0.0582    -0.1059 C.ar    
   5 C5            -2.3644     1.3200    -0.1041 C.ar    
   6 C6            -1.1953     2.0555     0.0366 C.ar    
   7 C7            -1.0415    -2.1944     0.0262 C.2     
   8 C8            -1.6380    -2.9156     1.0434 C.2     
   9 C9            -0.3842    -2.8849    -1.0212 C.2     
  10 C10           -0.3376    -4.2302    -1.0215 C.2     
  11 N11           -0.9191    -4.9504    -0.0179 N.pl3   
  12 C12           -1.5709    -4.3189     1.0138 C.2     
  13 C13           -2.3492    -2.2075     2.1676 C.3     
  14 C14           -1.0265    -6.2840     0.2359 C.2     
  15 N15           -1.6959    -6.4202     1.3513 N.2     
  16 N16           -2.0234    -5.2674     1.8196 N.2     
  17 C17           -0.4750    -7.3997    -0.6139 C.3     
  18 C18           -0.5334    -8.8178    -0.0427 C.3     
  19 C19           -1.4705    -8.4130    -1.1823 C.3     
  20 O20           -1.2447     3.4132     0.0385 O.3     
  21 C21           -1.0504     4.0602    -1.1406 C.ar    
  22 C22           -1.1528     5.4420    -1.2101 C.ar    
  23 N23           -0.9651     6.0739    -2.3518 N.ar    
  24 C24           -0.6748     5.4275    -3.4637 C.ar    
  25 C25           -0.5555     4.0500    -3.4736 C.ar    
  26 C26           -0.7400     3.3468    -2.2945 C.ar    
  27 C27           -1.4826     6.2288     0.0322 C.3     
  28 C28           -0.4708     6.2004    -4.7412 C.3     
  29 Cl29           1.4867     2.3295     0.3350 Cl      
  30 H30            1.0289    -0.4773     0.2681 H       
  31 H31           -3.2285    -0.6294    -0.2117 H       
  32 H32           -3.3118     1.8279    -0.2080 H       
  33 H33            0.0809    -2.3302    -1.8227 H       
  34 H34            0.1657    -4.7463    -1.8257 H       
  35 H35           -3.3973    -2.0670     1.9032 H       
  36 H36           -2.2807    -2.8068     3.0755 H       
  37 H37           -1.8840    -1.2365     2.3374 H       
  38 H38            0.3858    -7.1399    -1.2300 H       
  39 H39            0.2893    -9.4914    -0.2827 H       
  40 H40           -0.9707    -8.9439     0.9478 H       
  41 H41           -2.5243    -8.2727    -0.9416 H       
  42 H42           -1.2643    -8.8202    -2.1722 H       
  43 H43           -0.3174     3.5288    -4.3891 H       
  44 H44           -0.6525     2.2705    -2.2727 H       
  45 H45           -0.5602     6.5034     0.5439 H       
  46 H46           -2.0278     7.1315    -0.2435 H       
  47 H47           -2.0983     5.6205     0.6947 H       
  48 H48            0.5803     6.4724    -4.8375 H       
  49 H49           -0.7657     5.5835    -5.5901 H       
  50 H50           -1.0796     7.1043    -4.7201 H       
@<TRIPOS>BOND
   1    1    2 ar
   2    1   29 1
   3    1    6 ar
   4    2    3 ar
   5    2   30 1
   6    3    4 ar
   7    3    7 1
   8    4    5 ar
   9    4   31 1
  10    5    6 ar
  11    5   32 1
  12    6   20 1
  13    7    8 2
  14    7    9 1
  15    8   13 1
  16    8   12 1
  17    9   10 2
  18    9   33 1
  19   10   11 1
  20   10   34 1
  21   11   12 1
  22   11   14 1
  23   12   16 2
  24   13   35 1
  25   13   36 1
  26   13   37 1
  27   14   15 2
  28   14   17 1
  29   15   16 1
  30   17   19 1
  31   17   18 1
  32   17   38 1
  33   18   19 1
  34   18   39 1
  35   18   40 1
  36   19   41 1
  37   19   42 1
  38   20   21 1
  39   21   22 ar
  40   21   26 ar
  41   22   23 ar
  42   22   27 1
  43   23   24 ar
  44   24   25 ar
  45   24   28 1
  46   25   26 ar
  47   25   43 1
  48   26   44 1
  49   27   45 1
  50   27   46 1
  51   27   47 1
  52   28   48 1
  53   28   49 1
  54   28   50 1

#	End of record

