#	Name: ASD03730219
#	Creating user name:	WinNT
#	Creation time:	15. 06. 2019 20:44

#	Modifying user name:	WinNT
#	Modification time:	15. 06. 2019 20:44

#	Program:	/corina/corina34_cracker 3.40 0067  02.08.2006

@<TRIPOS>MOLECULE
ASD03730219
  69   74    0    0    0
SMALL
NO_CHARGES


@<TRIPOS>ATOM
   1 O1            -0.1289     1.8737     1.4287 O.3     
   2 C2            -0.2094     0.4366     1.3914 C.3     
   3 O3             0.8514     0.0577     0.4947 O.3     
   4 C4             1.7795     1.0555     0.5842 C.ar    
   5 C5             1.1755     2.1725     1.1568 C.ar    
   6 C6             3.1130     1.1013     0.2193 C.ar    
   7 C7             3.8590     2.2591     0.4178 C.ar    
   8 C8             3.2420     3.3722     0.9809 C.ar    
   9 C9             1.9143     3.3275     1.3516 C.ar    
  10 O10            5.1737     2.5052     0.1508 O.3     
  11 C11            4.2837     4.4574     1.0369 C.3     
  12 C12            5.3930     3.9286     0.1172 C.3     
  13 N13            3.9329     6.6486     1.5820 N.am    
  14 C14            3.7517     5.7807     0.5666 C.2     
  15 C15            4.7810     4.7016     2.4304 C.ar    
  16 C16            5.3781     3.8968     3.3910 C.ar    
  17 C17            5.7345     4.4388     4.6256 C.ar    
  18 C18            5.4901     5.7732     4.8831 C.ar    
  19 C19            4.8962     6.5728     3.9279 C.ar    
  20 C20            4.5353     6.0454     2.6891 C.ar    
  21 O21            3.2568     6.0213    -0.5142 O.2     
  22 C22            5.6358     2.4638     3.1054 C.ar    
  23 C23            6.5348     2.1032     2.1036 C.ar    
  24 C24            6.7742     0.7658     1.8381 C.ar    
  25 C25            6.1181    -0.2176     2.5707 C.ar    
  26 C26            5.2203     0.1409     3.5705 C.ar    
  27 C27            4.9835     1.4775     3.8424 C.ar    
  28 O28            4.5789    -0.8220     4.2853 O.3     
  29 C29            3.7518    -0.3854     5.3658 C.3     
  30 O30            6.3544    -1.5316     2.3087 O.3     
  31 C31            7.4149    -2.1572     3.0340 C.3     
  32 O32            7.6512     0.4135     0.8602 O.3     
  33 C33            8.2890     1.4751     0.1474 C.3     
  34 C34            3.5439     8.0601     1.5306 C.3     
  35 C35            2.1077     8.2121     2.0356 C.3     
  36 C36            1.7015     9.6862     1.9819 C.3     
  37 C37            0.2652     9.8381     2.4869 C.3     
  38 C38           -0.1410    11.3123     2.4332 C.3     
  39 H39           -0.0403     0.0176     2.3834 H       
  40 H40           -1.1749     0.1171     0.9991 H       
  41 H41            3.5784     0.2324    -0.2223 H       
  42 H42            1.4495     4.1956     1.7951 H       
  43 H43            6.3769     4.1781     0.5145 H       
  44 H44            5.2736     4.3149    -0.8950 H       
  45 H45            6.1993     3.8176     5.3770 H       
  46 H46            5.7654     6.1940     5.8389 H       
  47 H47            4.7096     7.6148     4.1417 H       
  48 H48            7.0442     2.8666     1.5344 H       
  49 H49            4.2902     1.7556     4.6223 H       
  50 H50            3.3420    -1.2529     5.8831 H       
  51 H51            4.3463     0.2058     6.0624 H       
  52 H52            2.9364     0.2239     4.9759 H       
  53 H53            8.3525    -1.6432     2.8223 H       
  54 H54            7.2049    -2.1048     4.1023 H       
  55 H55            7.4963    -3.2010     2.7305 H       
  56 H56            7.5334     2.0882    -0.3438 H       
  57 H57            8.8588     2.0897     0.8442 H       
  58 H58            8.9611     1.0572    -0.6020 H       
  59 H59            4.2143     8.6449     2.1604 H       
  60 H60            3.6073     8.4172     0.5027 H       
  61 H61            1.4373     7.6273     1.4058 H       
  62 H62            2.0443     7.8549     3.0635 H       
  63 H63            2.3719    10.2710     2.6118 H       
  64 H64            1.7649    10.0433     0.9540 H       
  65 H65           -0.4052     9.2534     1.8571 H       
  66 H66            0.2018     9.4810     3.5148 H       
  67 H67            0.5294    11.8970     3.0631 H       
  68 H68           -0.0776    11.6694     1.4054 H       
  69 H69           -1.1642    11.4205     2.7930 H       
@<TRIPOS>BOND
   1    1    2 1
   2    1    5 1
   3    2    3 1
   4    2   39 1
   5    2   40 1
   6    3    4 1
   7    4    5 ar
   8    4    6 ar
   9    5    9 ar
  10    6    7 ar
  11    6   41 1
  12    7    8 ar
  13    7   10 1
  14    8    9 ar
  15    8   11 1
  16    9   42 1
  17   10   12 1
  18   11   12 1
  19   11   14 1
  20   11   15 1
  21   12   43 1
  22   12   44 1
  23   13   14 am
  24   13   20 1
  25   13   34 1
  26   14   21 2
  27   15   16 ar
  28   15   20 ar
  29   16   17 ar
  30   16   22 1
  31   17   18 ar
  32   17   45 1
  33   18   19 ar
  34   18   46 1
  35   19   20 ar
  36   19   47 1
  37   22   23 ar
  38   22   27 ar
  39   23   24 ar
  40   23   48 1
  41   24   25 ar
  42   24   32 1
  43   25   26 ar
  44   25   30 1
  45   26   27 ar
  46   26   28 1
  47   27   49 1
  48   28   29 1
  49   29   50 1
  50   29   51 1
  51   29   52 1
  52   30   31 1
  53   31   53 1
  54   31   54 1
  55   31   55 1
  56   32   33 1
  57   33   56 1
  58   33   57 1
  59   33   58 1
  60   34   35 1
  61   34   59 1
  62   34   60 1
  63   35   36 1
  64   35   61 1
  65   35   62 1
  66   36   37 1
  67   36   63 1
  68   36   64 1
  69   37   38 1
  70   37   65 1
  71   37   66 1
  72   38   67 1
  73   38   68 1
  74   38   69 1

#	End of record

