#	Name: ASD03331222
#	Creating user name:	WinNT
#	Creation time:	15. 06. 2019 20:38

#	Modifying user name:	WinNT
#	Modification time:	15. 06. 2019 20:38

#	Program:	/corina/corina34_cracker 3.40 0067  02.08.2006

@<TRIPOS>MOLECULE
ASD03331222
  48   51    0    0    0
SMALL
NO_CHARGES


@<TRIPOS>ATOM
   1 N1            -0.0459     1.4955     0.5697 N.am    
   2 C2             0.0019     0.1505     1.1629 C.3     
   3 C3             0.5967    -0.8151     0.1324 C.3     
   4 N4             1.8894    -0.2949    -0.3323 N.3     
   5 C5             1.7288     0.9912    -1.0237 C.3     
   6 C6             1.1805     2.0309    -0.0406 C.3     
   7 C7            -1.1849     2.2161     0.5802 C.2     
   8 O8            -2.2139     1.7206     0.9972 O.2     
   9 N9            -1.1831     3.4859     0.1284 N.am    
  10 C10           -2.3861     4.1969     0.0329 C.ar    
  11 C11           -2.4019     5.5684     0.2480 C.ar    
  12 C12           -3.5892     6.2677     0.1534 C.ar    
  13 C13           -4.7633     5.6018    -0.1553 C.ar    
  14 C14           -4.7497     4.2339    -0.3702 C.ar    
  15 C15           -3.5634     3.5319    -0.2826 C.ar    
  16 C16            2.5724    -1.2722    -1.1904 C.3     
  17 C17            3.7650    -0.6213    -1.8425 C.ar    
  18 C18            5.0075    -0.6541    -1.2140 C.ar    
  19 N19            6.0672    -0.0994    -1.7510 N.ar    
  20 C20            6.0019     0.5252    -2.9307 C.ar    
  21 C21            4.7681     0.5954    -3.6242 C.ar    
  22 C22            3.6296    -0.0034    -3.0534 C.ar    
  23 C23            4.7048     1.2535    -4.8632 C.ar    
  24 C24            7.1414     1.1189    -3.5017 C.ar    
  25 C25            7.0441     1.7483    -4.7041 C.ar    
  26 C26            5.8294     1.8167    -5.3839 C.ar    
  27 F27           -5.9238     6.2874    -0.2465 F       
  28 H28            0.6284     0.1657     2.0548 H       
  29 H29           -1.0063    -0.1698     1.4257 H       
  30 H30            0.7419    -1.7929     0.5917 H       
  31 H31           -0.0837    -0.9079    -0.7141 H       
  32 H32            2.6952     1.3234    -1.4030 H       
  33 H33            1.0328     0.8733    -1.8542 H       
  34 H34            0.9515     2.9538    -0.5735 H       
  35 H35            1.9203     2.2269     0.7355 H       
  36 H36           -0.3488     3.9074    -0.1306 H       
  37 H37           -1.4864     6.0881     0.4896 H       
  38 H38           -3.6019     7.3346     0.3207 H       
  39 H39           -5.6665     3.7163    -0.6109 H       
  40 H40           -3.5523     2.4659    -0.4550 H       
  41 H41            2.9045    -2.1166    -0.5864 H       
  42 H42            1.8846    -1.6238    -1.9595 H       
  43 H43            5.1005    -1.1494    -0.2588 H       
  44 H44            2.6738     0.0311    -3.5551 H       
  45 H45            3.7694     1.3122    -5.3999 H       
  46 H46            8.0903     1.0759    -2.9876 H       
  47 H47            7.9222     2.2031    -5.1383 H       
  48 H48            5.7801     2.3219    -6.3372 H       
@<TRIPOS>BOND
   1    1    2 1
   2    1    6 1
   3    1    7 am
   4    2    3 1
   5    2   28 1
   6    2   29 1
   7    3    4 1
   8    3   30 1
   9    3   31 1
  10    4    5 1
  11    4   16 1
  12    5    6 1
  13    5   32 1
  14    5   33 1
  15    6   34 1
  16    6   35 1
  17    7    8 2
  18    7    9 am
  19    9   10 1
  20    9   36 1
  21   10   11 ar
  22   10   15 ar
  23   11   12 ar
  24   11   37 1
  25   12   13 ar
  26   12   38 1
  27   13   14 ar
  28   13   27 1
  29   14   15 ar
  30   14   39 1
  31   15   40 1
  32   16   17 1
  33   16   41 1
  34   16   42 1
  35   17   18 ar
  36   17   22 ar
  37   18   19 ar
  38   18   43 1
  39   19   20 ar
  40   20   21 ar
  41   20   24 ar
  42   21   22 ar
  43   21   23 ar
  44   22   44 1
  45   23   26 ar
  46   23   45 1
  47   24   25 ar
  48   24   46 1
  49   25   26 ar
  50   25   47 1
  51   26   48 1

#	End of record

