#	Name: ASD05430173
#	Creating user name:	WinNT
#	Creation time:	15. 06. 2019 20:59

#	Modifying user name:	WinNT
#	Modification time:	15. 06. 2019 20:59

#	Program:	/corina/corina34_cracker 3.40 0067  02.08.2006

@<TRIPOS>MOLECULE
ASD05430173
  65   72    0    0    0
SMALL
NO_CHARGES


@<TRIPOS>ATOM
   1 C1            -0.0168     1.3891     0.0097 C.ar    
   2 C2             0.0021    -0.0041     0.0020 C.ar    
   3 C3             1.2129    -0.6803    -0.0132 C.ar    
   4 C4             2.3976     0.0290    -0.0207 C.ar    
   5 C5             2.3769     1.4103    -0.0131 C.ar    
   6 C6             1.1672     2.0911     0.0021 C.ar    
   7 C7             4.2147     0.9640     2.2329 C.3     
   8 C8             4.6362     1.9526     1.1435 C.3     
   9 C9             3.6721     2.1807    -0.0208 C.3     
  10 C10            4.1977     1.6394     3.5989 C.3     
  11 C11            3.9417     3.1451     3.5583 C.3     
  12 N12            4.9989     3.7769     2.7679 N.pl3   
  13 C13            5.4417     3.1343     1.6258 C.2     
  14 C14            5.5858     5.0636     3.1388 C.3     
  15 C15            7.0849     5.0173     2.8216 C.3     
  16 O16            7.2825     4.6057     1.4727 O.3     
  17 N17            6.5008     3.5251     1.0211 N.2     
  18 C18            4.9327     6.1671     2.3472 C.ar    
  19 C19            4.6371     7.3723     2.9564 C.ar    
  20 C20            4.6350     5.9754     1.0109 C.ar    
  21 C21            4.0369     6.9870     0.2837 C.ar    
  22 C22            3.7355     8.1927     0.8941 C.ar    
  23 C23            4.0386     8.3852     2.2313 C.ar    
  24 N24           -1.2025    -0.7221     0.0101 N.pl3   
  25 F25            3.1508     9.1823     0.1842 F       
  26 C26            4.9637     1.3895    -0.2394 C.3     
  27 C27            3.3271     0.9052     4.6319 C.3     
  28 O28            4.4197     1.1343     5.5450 O.3     
  29 C29            5.3921     1.2524     4.4864 C.3     
  30 C30           -2.2474    -0.5367     0.8580 C.2     
  31 C31           -1.5503    -1.7399    -0.8400 C.2     
  32 C32           -2.7845    -2.1422    -0.4823 C.2     
  33 N33           -3.1854    -1.3921     0.5549 N.2     
  34 C34           -3.5799    -3.2422    -1.1370 C.3     
  35 C35            0.4629     3.4218     0.0160 C.3     
  36 C36           -0.8467     2.6452     0.0190 C.3     
  37 H37            1.2292    -1.7602    -0.0188 H       
  38 H38            3.3410    -0.4965    -0.0321 H       
  39 H39            3.2178     0.5853     2.0074 H       
  40 H40            4.9178     0.1313     2.2532 H       
  41 H41            3.6193     3.1850    -0.4412 H       
  42 H42            2.9737     3.3394     3.0965 H       
  43 H43            3.9535     3.5457     4.5720 H       
  44 H44            5.4411     5.2399     4.2047 H       
  45 H45            7.5160     6.0082     2.9645 H       
  46 H46            7.5751     4.3107     3.4912 H       
  47 H47            4.8736     7.5223     3.9995 H       
  48 H48            4.8702     5.0349     0.5349 H       
  49 H49            3.8050     6.8373    -0.7605 H       
  50 H50            3.8036     9.3251     2.7086 H       
  51 H51            5.7608     1.8732    -0.8040 H       
  52 H52            4.8765     0.3118    -0.3777 H       
  53 H53            2.4128     1.4366     4.8958 H       
  54 H54            3.1593    -0.1465     4.3997 H       
  55 H55            5.8597     0.3075     4.2094 H       
  56 H56            6.1106     2.0584     4.6353 H       
  57 H57           -2.2939     0.1955     1.6505 H       
  58 H58           -0.9498    -2.1416    -1.6428 H       
  59 H59           -3.3609    -4.1904    -0.6461 H       
  60 H60           -4.6440    -3.0238    -1.0474 H       
  61 H61           -3.3099    -3.3078    -2.1910 H       
  62 H62            0.6348     3.9969     0.9259 H       
  63 H63            0.6174     4.0067    -0.8907 H       
  64 H64           -1.4397     2.7865    -0.8845 H       
  65 H65           -1.4280     2.7738     0.9321 H       
@<TRIPOS>BOND
   1    1    2 ar
   2    1    6 ar
   3    1   36 1
   4    2    3 ar
   5    2   24 1
   6    3    4 ar
   7    3   37 1
   8    4    5 ar
   9    4   38 1
  10    5    6 ar
  11    5    9 1
  12    6   35 1
  13    7    8 1
  14    7   10 1
  15    7   39 1
  16    7   40 1
  17    8    9 1
  18    8   26 1
  19    8   13 1
  20    9   26 1
  21    9   41 1
  22   10   11 1
  23   10   27 1
  24   10   29 1
  25   11   12 1
  26   11   42 1
  27   11   43 1
  28   12   13 1
  29   12   14 1
  30   13   17 2
  31   14   15 1
  32   14   18 1
  33   14   44 1
  34   15   16 1
  35   15   45 1
  36   15   46 1
  37   16   17 1
  38   18   19 ar
  39   18   20 ar
  40   19   23 ar
  41   19   47 1
  42   20   21 ar
  43   20   48 1
  44   21   22 ar
  45   21   49 1
  46   22   23 ar
  47   22   25 1
  48   23   50 1
  49   24   30 1
  50   24   31 1
  51   26   51 1
  52   26   52 1
  53   27   28 1
  54   27   53 1
  55   27   54 1
  56   28   29 1
  57   29   55 1
  58   29   56 1
  59   30   33 2
  60   30   57 1
  61   31   32 2
  62   31   58 1
  63   32   33 1
  64   32   34 1
  65   34   59 1
  66   34   60 1
  67   34   61 1
  68   35   36 1
  69   35   62 1
  70   35   63 1
  71   36   64 1
  72   36   65 1

#	End of record

