#	Name: ASD05430201
#	Creating user name:	WinNT
#	Creation time:	15. 06. 2019 21:00

#	Modifying user name:	WinNT
#	Modification time:	15. 06. 2019 21:00

#	Program:	/corina/corina34_cracker 3.40 0067  02.08.2006

@<TRIPOS>MOLECULE
ASD05430201
  73   78    0    0    0
SMALL
NO_CHARGES


@<TRIPOS>ATOM
   1 C1             0.3943     0.5945     1.7897 C.ar    
   2 C2             0.4604    -0.7485     1.4203 C.ar    
   3 C3             1.6150    -1.2562     0.8384 C.ar    
   4 C4             2.7002    -0.4351     0.6229 C.ar    
   5 C5             2.6409     0.9131     0.9903 C.ar    
   6 C6             1.4790     1.4240     1.5765 C.ar    
   7 C7             5.3271    -0.1285     1.2924 C.3     
   8 C8             5.0471     1.2908     0.8245 C.2     
   9 C9             3.7996     1.7919     0.7613 C.2     
  10 C10            6.5751    -0.0955     2.1844 C.3     
  11 C11            7.8441     0.4591     1.5246 C.3     
  12 N12            7.5166     1.7200     0.8625 N.pl3   
  13 C13            6.2358     2.0853     0.4436 C.2     
  14 C14           -0.7369     2.4738     2.7078 C.3     
  15 O15           -0.7392     1.0893     2.3543 O.3     
  16 N16           -0.6405    -1.5882     1.6372 N.pl3   
  17 C17           -1.3337    -1.7273     2.7970 C.2     
  18 C18           -1.2248    -2.4199     0.7173 C.2     
  19 C19           -2.2446    -3.0382     1.3428 C.2     
  20 N20           -2.2883    -2.5975     2.6088 N.2     
  21 C21           -3.1781    -4.0475     0.7256 C.3     
  22 C22           -2.0870     2.8450     3.3245 C.3     
  23 C23            6.3727     0.1827     3.6734 C.3     
  24 C24            6.7447    -1.2245     3.2011 C.3     
  25 C25            8.3964     2.8395     0.5189 C.3     
  26 O26            7.6313     3.5695    -0.4628 O.3     
  27 N27            6.2857     3.1458    -0.2931 N.2     
  28 C28            8.6686     3.7095     1.7477 C.3     
  29 C29            9.5886     4.8684     1.3584 C.3     
  30 C30            9.6869     2.3388    -0.0769 C.ar    
  31 C31           10.3986     1.3384     0.5585 C.ar    
  32 C32           10.1550     2.8763    -1.2614 C.ar    
  33 C33           11.3379     2.4173    -1.8093 C.ar    
  34 C34           12.0543     1.4190    -1.1711 C.ar    
  35 C35           11.5819     0.8781     0.0128 C.ar    
  36 F36           13.2107     0.9696    -1.7057 F       
  37 S37            9.9114     5.8998     2.8153 S.o2    
  38 O38            8.6920     6.5077     3.2188 O.2     
  39 O39           10.6501     5.1343     3.7574 O.2     
  40 C40           10.9983     7.1820     2.1333 C.3     
  41 H41            1.6622    -2.2971     0.5545 H       
  42 H42            3.5967    -0.8326     0.1705 H       
  43 H43            1.4290     2.4646     1.8614 H       
  44 H44            4.4767    -0.5032     1.8621 H       
  45 H45            5.5067    -0.7718     0.4310 H       
  46 H46            3.6485     2.8387     0.5426 H       
  47 H47            8.6055     0.6327     2.2850 H       
  48 H48            8.2153    -0.2544     0.7889 H       
  49 H49            0.0569     2.6630     3.4304 H       
  50 H50           -0.5671     3.0764     1.8155 H       
  51 H51           -1.1292    -1.2055     3.7202 H       
  52 H52           -0.9248    -2.5535    -0.3116 H       
  53 H53           -2.7700    -5.0493     0.8594 H       
  54 H54           -4.1527    -3.9846     1.2097 H       
  55 H55           -3.2869    -3.8387    -0.3386 H       
  56 H56           -2.0853     3.9011     3.5942 H       
  57 H57           -2.8808     2.6558     2.6019 H       
  58 H58           -2.2568     2.2424     4.2168 H       
  59 H59            7.1411     0.7611     4.1863 H       
  60 H60            5.3522     0.3435     4.0212 H       
  61 H61            5.9691    -1.9894     3.2381 H       
  62 H62            7.7579    -1.5718     3.4033 H       
  63 H63            7.7271     4.1052     2.1286 H       
  64 H64            9.1487     3.1080     2.5196 H       
  65 H65           10.5301     4.4727     0.9775 H       
  66 H66            9.1085     5.4699     0.5866 H       
  67 H67           10.0300     0.9166     1.4818 H       
  68 H68            9.5960     3.6549    -1.7591 H       
  69 H69           11.7031     2.8368    -2.7350 H       
  70 H70           12.1401     0.0997     0.5116 H       
  71 H71           10.4768     7.7155     1.3386 H       
  72 H72           11.2729     7.8827     2.9218 H       
  73 H73           11.8984     6.7183     1.7296 H       
@<TRIPOS>BOND
   1    1    2 ar
   2    1    6 ar
   3    1   15 1
   4    2    3 ar
   5    2   16 1
   6    3    4 ar
   7    3   41 1
   8    4    5 ar
   9    4   42 1
  10    5    6 ar
  11    5    9 1
  12    6   43 1
  13    7    8 1
  14    7   10 1
  15    7   44 1
  16    7   45 1
  17    8    9 2
  18    8   13 1
  19    9   46 1
  20   10   11 1
  21   10   23 1
  22   10   24 1
  23   11   12 1
  24   11   47 1
  25   11   48 1
  26   12   13 1
  27   12   25 1
  28   13   27 2
  29   14   15 1
  30   14   22 1
  31   14   49 1
  32   14   50 1
  33   16   17 1
  34   16   18 1
  35   17   20 2
  36   17   51 1
  37   18   19 2
  38   18   52 1
  39   19   20 1
  40   19   21 1
  41   21   53 1
  42   21   54 1
  43   21   55 1
  44   22   56 1
  45   22   57 1
  46   22   58 1
  47   23   24 1
  48   23   59 1
  49   23   60 1
  50   24   61 1
  51   24   62 1
  52   25   26 1
  53   25   28 1
  54   25   30 1
  55   26   27 1
  56   28   29 1
  57   28   63 1
  58   28   64 1
  59   29   37 1
  60   29   65 1
  61   29   66 1
  62   30   31 ar
  63   30   32 ar
  64   31   35 ar
  65   31   67 1
  66   32   33 ar
  67   32   68 1
  68   33   34 ar
  69   33   69 1
  70   34   35 ar
  71   34   36 1
  72   35   70 1
  73   37   38 2
  74   37   39 2
  75   37   40 1
  76   40   71 1
  77   40   72 1
  78   40   73 1

#	End of record

