#	Name: ASD01870323
#	Creating user name:	WinNT
#	Creation time:	15. 06. 2019 19:39

#	Modifying user name:	WinNT
#	Modification time:	15. 06. 2019 19:39

#	Program:	/corina/corina34_cracker 3.40 0067  02.08.2006

@<TRIPOS>MOLECULE
ASD01870323
  52   54    0    0    0
SMALL
NO_CHARGES


@<TRIPOS>ATOM
   1 C1            -0.0129     1.3537    -0.5711 C.ar    
   2 C2             0.0051    -0.0205    -0.4666 C.ar    
   3 C3             1.1770     2.0651    -0.5973 C.ar    
   4 C4             2.3906     1.3992    -0.5187 C.ar    
   5 C5             2.4200     0.0251    -0.4145 C.ar    
   6 C6             1.2246    -0.6963    -0.3872 C.ar    
   7 C7             1.2500    -2.1691    -0.2752 C.2     
   8 N8             0.0949    -2.8630    -0.2490 N.am    
   9 C9             0.1201    -4.3235    -0.1379 C.3     
  10 C10           -1.3131    -4.8592    -0.1301 C.3     
  11 O11            2.3128    -2.7552    -0.2066 O.2     
  12 C12           -2.6496    -6.8745    -0.0081 C.3     
  13 C13           -2.5914    -8.3826    -0.2679 C.3     
  14 C14           -3.2955    -6.6103     1.3552 C.3     
  15 C15           -2.5426    -7.4150     2.4266 C.3     
  16 C16           -1.0288    -7.1796     2.2188 C.3     
  17 C17           -0.5949    -8.2716     1.2187 C.3     
  18 C18           -1.8873    -9.0644     0.9162 C.3     
  19 N19           -2.7350    -8.8519     2.1142 N.am    
  20 C20           -3.4991    -9.7514     2.7650 C.2     
  21 O21           -4.2087    -9.3755     3.8457 O.3     
  22 O22           -3.5477   -10.9017     2.3763 O.2     
  23 C23           -5.0094   -10.3970     4.4966 C.3     
  24 C24           -5.7385    -9.7867     5.6953 C.3     
  25 N25           -1.2878    -6.3238    -0.0187 N.3     
  26 F26            1.1537     3.4120    -0.7001 F       
  27 H27           -0.9553     1.8770    -0.6371 H       
  28 H28           -0.9223    -0.5737    -0.4459 H       
  29 H29            3.3145     1.9581    -0.5395 H       
  30 H30            3.3659    -0.4927    -0.3541 H       
  31 H31           -0.7532    -2.3953    -0.3037 H       
  32 H32            0.6602    -4.7432    -0.9866 H       
  33 H33            0.6197    -4.6089     0.7878 H       
  34 H34           -1.8532    -4.4395     0.7186 H       
  35 H35           -1.8127    -4.5738    -1.0558 H       
  36 H36           -3.2403    -6.3946    -0.7884 H       
  37 H37           -3.6034    -8.7755    -0.3662 H       
  38 H38           -2.0329    -8.5740    -1.1841 H       
  39 H39           -3.2354    -5.5471     1.5878 H       
  40 H40           -4.3397    -6.9220     1.3310 H       
  41 H41           -2.8648    -7.1568     3.4353 H       
  42 H42           -0.8527    -6.1890     1.7993 H       
  43 H43           -0.4939    -7.2941     3.1616 H       
  44 H44           -0.2054    -7.8184     0.3071 H       
  45 H45            0.1535    -8.9234     1.6693 H       
  46 H46           -1.6881   -10.1185     0.7231 H       
  47 H47           -5.7393   -10.7917     3.7898 H       
  48 H48           -4.3611   -11.2041     4.8380 H       
  49 H49           -5.0086    -9.3921     6.4021 H       
  50 H50           -6.3867    -8.9797     5.3538 H       
  51 H51           -6.3396   -10.5536     6.1839 H       
  52 H52           -0.7379    -6.7333    -0.7590 H       
@<TRIPOS>BOND
   1    1    2 ar
   2    1    3 ar
   3    1   27 1
   4    2    6 ar
   5    2   28 1
   6    3    4 ar
   7    3   26 1
   8    4    5 ar
   9    4   29 1
  10    5    6 ar
  11    5   30 1
  12    6    7 1
  13    7    8 am
  14    7   11 2
  15    8    9 1
  16    8   31 1
  17    9   10 1
  18    9   32 1
  19    9   33 1
  20   10   25 1
  21   10   34 1
  22   10   35 1
  23   12   13 1
  24   12   14 1
  25   12   25 1
  26   12   36 1
  27   13   18 1
  28   13   37 1
  29   13   38 1
  30   14   15 1
  31   14   39 1
  32   14   40 1
  33   15   16 1
  34   15   19 1
  35   15   41 1
  36   16   17 1
  37   16   42 1
  38   16   43 1
  39   17   18 1
  40   17   44 1
  41   17   45 1
  42   18   19 1
  43   18   46 1
  44   19   20 am
  45   20   21 1
  46   20   22 2
  47   21   23 1
  48   23   24 1
  49   23   47 1
  50   23   48 1
  51   24   49 1
  52   24   50 1
  53   24   51 1
  54   25   52 1

#	End of record

