#	Name: ASD03491003
#	Creating user name:	WinNT
#	Creation time:	15. 06. 2019 20:42

#	Modifying user name:	WinNT
#	Modification time:	15. 06. 2019 20:42

#	Program:	/corina/corina34_cracker 3.40 0067  02.08.2006

@<TRIPOS>MOLECULE
ASD03491003
  68   72    0    0    0
SMALL
NO_CHARGES


@<TRIPOS>ATOM
   1 C1             0.0657     1.4555     0.4669 C.ar    
   2 C2             0.2916     0.3086     1.2289 C.ar    
   3 C3             1.4952    -0.3857     1.0987 C.ar    
   4 C4             2.4622     0.0662     0.2131 C.ar    
   5 C5             2.2338     1.2084    -0.5438 C.ar    
   6 C6             1.0375     1.9016    -0.4168 C.ar    
   7 N7             0.8122     3.0498    -1.1801 N.3     
   8 N8             3.6680    -0.6282     0.0824 N.am    
   9 C9             3.6848    -1.9728     0.1737 C.2     
  10 O10            2.6682    -2.5749     0.4534 O.2     
  11 C11            4.9979    -4.1681     0.1428 C.ar    
  12 C12            6.2660    -4.8950     0.0446 C.ar    
  13 C13            6.2722    -6.2935     0.2557 C.ar    
  14 C14            5.0610    -6.9556     0.5546 C.ar    
  15 C15            3.8770    -6.2468     0.6408 C.ar    
  16 C16            3.8349    -4.8805     0.4475 C.ar    
  17 C17            7.4624    -4.2356    -0.2526 C.ar    
  18 C18            8.6235    -4.9485    -0.3357 C.ar    
  19 C19            8.6326    -6.3242    -0.1285 C.ar    
  20 C20            7.4830    -6.9965     0.1633 C.ar    
  21 O21            5.0593    -8.2943     0.7579 O.3     
  22 C22            3.8016    -8.9035     1.0565 C.3     
  23 C23            3.9975   -10.4082     1.2525 C.3     
  24 N24            4.8340   -10.6429     2.4371 N.3     
  25 C25            4.8502   -12.0683     2.7967 C.3     
  26 C26            5.7784   -12.2759     3.9963 C.3     
  27 O27            5.3422   -11.4494     5.0789 O.3     
  28 C28            5.3149   -10.0547     4.7636 C.3     
  29 C29            4.3820    -9.8245     3.5717 C.3     
  30 C30           -0.5101     3.6236    -0.8909 C.3     
  31 C31           -0.6909     4.9095    -1.7020 C.3     
  32 O32           -0.5190     4.6187    -3.0917 O.3     
  33 C33            0.7582     4.0590    -3.4091 C.3     
  34 C34            0.9537     2.7646    -2.6153 C.3     
  35 C35           -0.7090    -0.1547     2.1426 C.1     
  36 N36           -1.5028    -0.5222     2.8674 N.1     
  37 C37            4.9509    -2.7204    -0.0685 C.2     
  38 O38            5.9446    -2.1280    -0.4415 O.2     
  39 H39           -0.8664     1.9928     0.5619 H       
  40 H40            1.6736    -1.2736     1.6871 H       
  41 H41            2.9887     1.5582    -1.2323 H       
  42 H42            4.4929    -0.1424    -0.0741 H       
  43 H43            2.9631    -6.7744     0.8703 H       
  44 H44            2.8923    -4.3586     0.5223 H       
  45 H45            7.4679    -3.1680    -0.4158 H       
  46 H46            9.5470    -4.4380    -0.5657 H       
  47 H47            9.5634    -6.8672    -0.1999 H       
  48 H48            7.5041    -8.0646     0.3218 H       
  49 H49            3.3946    -8.4682     1.9691 H       
  50 H50            3.1097    -8.7316     0.2319 H       
  51 H51            3.0277   -10.8858     1.3922 H       
  52 H52            4.4863   -10.8285     0.3736 H       
  53 H53            3.8416   -12.3895     3.0569 H       
  54 H54            5.2122   -12.6529     1.9509 H       
  55 H55            5.7494   -13.3217     4.3023 H       
  56 H56            6.7973   -12.0052     3.7193 H       
  57 H57            4.9507    -9.4940     5.6245 H       
  58 H58            6.3203    -9.7194     4.5089 H       
  59 H59            4.4023    -8.7713     3.2917 H       
  60 H60            3.3660   -10.1099     3.8444 H       
  61 H61           -1.2853     2.9082    -1.1654 H       
  62 H62           -0.5836     3.8508     0.1726 H       
  63 H63           -1.6916     5.3077    -1.5345 H       
  64 H64            0.0510     5.6443    -1.3895 H       
  65 H65            0.8055     3.8422    -4.4763 H       
  66 H66            1.5422     4.7691    -3.1462 H       
  67 H67            1.9487     2.3646    -2.8106 H       
  68 H68            0.2019     2.0354    -2.9173 H       
@<TRIPOS>BOND
   1    1    2 ar
   2    1    6 ar
   3    1   39 1
   4    2    3 ar
   5    2   35 1
   6    3    4 ar
   7    3   40 1
   8    4    5 ar
   9    4    8 1
  10    5    6 ar
  11    5   41 1
  12    6    7 1
  13    7   30 1
  14    7   34 1
  15    8    9 am
  16    8   42 1
  17    9   10 2
  18    9   37 1
  19   11   12 ar
  20   11   37 1
  21   11   16 ar
  22   12   13 ar
  23   12   17 ar
  24   13   14 ar
  25   13   20 ar
  26   14   15 ar
  27   14   21 1
  28   15   16 ar
  29   15   43 1
  30   16   44 1
  31   17   18 ar
  32   17   45 1
  33   18   19 ar
  34   18   46 1
  35   19   20 ar
  36   19   47 1
  37   20   48 1
  38   21   22 1
  39   22   23 1
  40   22   49 1
  41   22   50 1
  42   23   24 1
  43   23   51 1
  44   23   52 1
  45   24   25 1
  46   24   29 1
  47   25   26 1
  48   25   53 1
  49   25   54 1
  50   26   27 1
  51   26   55 1
  52   26   56 1
  53   27   28 1
  54   28   29 1
  55   28   57 1
  56   28   58 1
  57   29   59 1
  58   29   60 1
  59   30   31 1
  60   30   61 1
  61   30   62 1
  62   31   32 1
  63   31   63 1
  64   31   64 1
  65   32   33 1
  66   33   34 1
  67   33   65 1
  68   33   66 1
  69   34   67 1
  70   34   68 1
  71   35   36 3
  72   37   38 2

#	End of record

