#	Name: ASD01914375
#	Creating user name:	WinNT
#	Creation time:	15. 06. 2019 20:03

#	Modifying user name:	WinNT
#	Modification time:	15. 06. 2019 20:03

#	Program:	/corina/corina34_cracker 3.40 0067  02.08.2006

@<TRIPOS>MOLECULE
ASD01914375
  32   33    0    0    0
SMALL
NO_CHARGES


@<TRIPOS>ATOM
   1 C1            -0.0167     1.3786     0.0096 C.ar    
   2 C2             0.0021    -0.0041     0.0020 C.ar    
   3 C3             1.2071    -0.6823    -0.0132 C.ar    
   4 C4             2.3964     0.0198    -0.0208 C.ar    
   5 C5             2.3811     1.4088    -0.0132 C.ar    
   6 C6             1.1689     2.0869     0.0021 C.ar    
   7 N7             3.5821     2.1220    -0.0204 N.pl3   
   8 C8             3.5641     3.5869    -0.0124 C.3     
   9 C9             4.9786     4.1066    -0.0226 C.2     
  10 C10            5.2295     5.5552    -0.0171 C.ar    
  11 C11            4.1572     6.4540    -0.0024 C.ar    
  12 C12            4.3993     7.8102     0.0031 C.ar    
  13 C13            5.7024     8.2852    -0.0059 C.ar    
  14 C14            6.7701     7.3994    -0.0209 C.ar    
  15 C15            6.5420     6.0412    -0.0208 C.ar    
  16 O16            5.9099     3.3300    -0.0354 O.2     
  17 F17            5.9329     9.6164    -0.0004 F       
  18 C18            8.1826     7.9246    -0.0311 C.3     
  19 H19           -0.9596     1.9053     0.0170 H       
  20 H20           -0.9265    -0.5555     0.0083 H       
  21 H21            1.2182    -1.7622    -0.0187 H       
  22 H22            3.3371    -0.5105    -0.0323 H       
  23 H23            1.1535     3.1668     0.0077 H       
  24 H24            4.4279     1.6474    -0.0308 H       
  25 H25            3.0377     3.9486    -0.8956 H       
  26 H26            3.0541     3.9391     0.8842 H       
  27 H27            3.1421     6.0854     0.0042 H       
  28 H28            3.5726     8.5050     0.0141 H       
  29 H29            7.3740     5.3527    -0.0324 H       
  30 H30            8.5327     8.0453     0.9941 H       
  31 H31            8.8284     7.2200    -0.5550 H       
  32 H32            8.2082     8.8884    -0.5396 H       
@<TRIPOS>BOND
   1    1    2 ar
   2    1    6 ar
   3    1   19 1
   4    2    3 ar
   5    2   20 1
   6    3    4 ar
   7    3   21 1
   8    4    5 ar
   9    4   22 1
  10    5    6 ar
  11    5    7 1
  12    6   23 1
  13    7    8 1
  14    7   24 1
  15    8    9 1
  16    8   25 1
  17    8   26 1
  18    9   10 1
  19    9   16 2
  20   10   11 ar
  21   10   15 ar
  22   11   12 ar
  23   11   27 1
  24   12   13 ar
  25   12   28 1
  26   13   14 ar
  27   13   17 1
  28   14   15 ar
  29   14   18 1
  30   15   29 1
  31   18   30 1
  32   18   31 1
  33   18   32 1

#	End of record

