#	Name: ASD01911028
#	Creating user name:	WinNT
#	Creation time:	15. 06. 2019 19:57

#	Modifying user name:	WinNT
#	Modification time:	15. 06. 2019 19:57

#	Program:	/corina/corina34_cracker 3.40 0067  02.08.2006

@<TRIPOS>MOLECULE
ASD01911028
  56   59    0    0    0
SMALL
NO_CHARGES


@<TRIPOS>ATOM
   1 N1            -4.4866    -3.3045     1.1933 N.3     
   2 C2            -3.1151    -2.8182     1.3942 C.3     
   3 C3            -2.4444    -2.6137     0.0317 C.3     
   4 N4            -3.3009    -1.7397    -0.7842 N.am    
   5 C5            -4.7233    -2.0887    -0.9193 C.3     
   6 C6            -5.3043    -2.3138     0.4807 C.3     
   7 C7            -2.7956    -0.6482    -1.3924 C.2     
   8 C8            -3.6393     0.1423    -2.3105 C.ar    
   9 C9            -3.5678     1.5387    -2.2983 C.ar    
  10 C10           -4.3536     2.2816    -3.1529 C.ar    
  11 C11           -5.2214     1.6498    -4.0316 C.ar    
  12 C12           -5.3019     0.2478    -4.0530 C.ar    
  13 C13           -4.5035    -0.5036    -3.1939 C.ar    
  14 C14           -6.1972    -0.4069    -4.9587 C.1     
  15 O15           -1.6450    -0.3147    -1.1850 O.2     
  16 C16           -6.9312    -0.9436    -5.7013 C.1     
  17 C17           -7.8265    -1.5983    -6.6071 C.ar    
  18 C18           -7.9073    -2.9932    -6.6291 C.ar    
  19 C19           -8.7722    -3.6167    -7.5039 C.ar    
  20 C20           -9.5589    -2.8645    -8.3584 C.ar    
  21 C21           -9.4840    -1.4828    -8.3427 C.ar    
  22 C22           -8.6279    -0.8451    -7.4694 C.ar    
  23 C23           -5.0730    -3.6566     2.4041 C.ar    
  24 O24           -5.9925     2.3862    -4.8699 O.3     
  25 C25           -5.9292    -4.7526     2.4632 C.ar    
  26 C26           -6.5053    -5.0916     3.6753 C.ar    
  27 C27           -6.2046    -4.3207     4.7903 C.ar    
  28 C28           -5.3467    -3.2471     4.6590 C.ar    
  29 N29           -4.8077    -2.9498     3.4917 N.ar    
  30 C30           -5.8595     3.8069    -4.7939 C.3     
  31 Cl31          -6.2702    -5.6809     1.0364 Cl      
  32 C32          -10.5015    -3.5534    -9.3113 C.3     
  33 F33          -11.7450    -3.7258    -8.6940 F       
  34 F34          -10.6560    -2.7717   -10.4612 F       
  35 F35           -9.9784    -4.8023    -9.6633 F       
  36 H36           -3.1404    -1.8709     1.9330 H       
  37 H37           -2.5504    -3.5504     1.9714 H       
  38 H38           -1.4697    -2.1457     0.1699 H       
  39 H39           -2.3243    -3.5763    -0.4654 H       
  40 H40           -5.2553    -1.2735    -1.4098 H       
  41 H41           -4.8222    -3.0008    -1.5078 H       
  42 H42           -6.3273    -2.6802     0.3953 H       
  43 H43           -5.2991    -1.3736     1.0322 H       
  44 H44           -2.8946     2.0370    -1.6165 H       
  45 H45           -4.2937     3.3598    -3.1381 H       
  46 H46           -4.5606    -1.5820    -3.2053 H       
  47 H47           -7.2937    -3.5815    -5.9629 H       
  48 H48           -8.8355    -4.6947    -7.5222 H       
  49 H49          -10.1007    -0.9022    -9.0128 H       
  50 H50           -8.5705     0.2333    -7.4581 H       
  51 H51           -7.1739    -5.9363     3.7519 H       
  52 H52           -6.6378    -4.5584     5.7506 H       
  53 H53           -5.1106    -2.6449     5.5238 H       
  54 H54           -6.1161     4.1426    -3.7891 H       
  55 H55           -4.8308     4.0881    -5.0193 H       
  56 H56           -6.5302     4.2737    -5.5153 H       
@<TRIPOS>BOND
   1    1    2 1
   2    1   23 1
   3    1    6 1
   4    2    3 1
   5    2   36 1
   6    2   37 1
   7    3    4 1
   8    3   38 1
   9    3   39 1
  10    4    5 1
  11    4    7 am
  12    5    6 1
  13    5   40 1
  14    5   41 1
  15    6   42 1
  16    6   43 1
  17    7    8 1
  18    7   15 2
  19    8    9 ar
  20    8   13 ar
  21    9   10 ar
  22    9   44 1
  23   10   11 ar
  24   10   45 1
  25   11   12 ar
  26   11   24 1
  27   12   13 ar
  28   12   14 1
  29   13   46 1
  30   14   16 3
  31   16   17 1
  32   17   18 ar
  33   17   22 ar
  34   18   19 ar
  35   18   47 1
  36   19   20 ar
  37   19   48 1
  38   20   21 ar
  39   20   32 1
  40   21   22 ar
  41   21   49 1
  42   22   50 1
  43   23   25 ar
  44   23   29 ar
  45   24   30 1
  46   25   26 ar
  47   25   31 1
  48   26   27 ar
  49   26   51 1
  50   27   28 ar
  51   27   52 1
  52   28   29 ar
  53   28   53 1
  54   30   54 1
  55   30   55 1
  56   30   56 1
  57   32   33 1
  58   32   34 1
  59   32   35 1

#	End of record

