#	Name: ASD01912314
#	Creating user name:	WinNT
#	Creation time:	15. 06. 2019 19:59

#	Modifying user name:	WinNT
#	Modification time:	15. 06. 2019 19:59

#	Program:	/corina/corina34_cracker 3.40 0067  02.08.2006

@<TRIPOS>MOLECULE
ASD01912314
  43   44    0    0    0
SMALL
NO_CHARGES


@<TRIPOS>ATOM
   1 C1            -0.0167     1.3791     0.0096 C.ar    
   2 C2             0.0021    -0.0041     0.0020 C.ar    
   3 C3             1.2202    -0.6700    -0.0132 C.ar    
   4 C4             2.3829     0.0790    -0.0202 C.ar    
   5 C5             2.2916     1.4735    -0.0119 C.ar    
   6 N6             1.1034     2.0714     0.0026 N.ar    
   7 C7             3.4855     2.2642    -0.0190 C.1     
   8 C8             4.4642     2.9125    -0.0248 C.1     
   9 C9             5.6581     3.7033    -0.0320 C.2     
  10 N10            5.4112     7.5517    -1.1198 N.am    
  11 C11            6.7206     6.8901    -1.1864 C.3     
  12 C12            6.8259     5.8862    -0.0314 C.3     
  13 C13            5.5764     5.0331    -0.0241 C.2     
  14 C14            4.2319     5.7267    -0.0070 C.3     
  15 C15            4.1917     6.7346    -1.1626 C.3     
  16 C16            5.3297     8.8930    -1.0150 C.2     
  17 C17            3.9816     9.5629    -0.9473 C.3     
  18 C18            4.1697    11.0770    -0.8323 C.3     
  19 C19            2.8009    11.7572    -0.7635 C.3     
  20 O20            6.3414     9.5607    -0.9752 O.2     
  21 F21            2.1025    11.2878     0.3541 F       
  22 F22            2.9729    13.1416    -0.6584 F       
  23 F23            2.0757    11.4641    -1.9235 F       
  24 C24           -1.3378     2.1040     0.0198 C.3     
  25 H25           -0.9231    -0.5612     0.0082 H       
  26 H26            1.2589    -1.7493    -0.0190 H       
  27 H27            3.3474    -0.4068    -0.0317 H       
  28 H28            6.6247     3.2217    -0.0438 H       
  29 H29            6.8169     6.3652    -2.1368 H       
  30 H30            7.5114     7.6349    -1.0963 H       
  31 H31            7.7016     5.2531    -0.1741 H       
  32 H32            6.9099     6.4220     0.9141 H       
  33 H33            3.4378     4.9909    -0.1340 H       
  34 H34            4.1006     6.2492     0.9405 H       
  35 H35            3.3175     7.3771    -1.0569 H       
  36 H36            4.1427     6.2007    -2.1116 H       
  37 H37            3.4166     9.3346    -1.8510 H       
  38 H38            3.4374     9.1972    -0.0765 H       
  39 H39            4.7346    11.3053     0.0715 H       
  40 H40            4.7138    11.4427    -1.7030 H       
  41 H41           -1.6515     2.2732     1.0499 H       
  42 H42           -1.2307     3.0618    -0.4894 H       
  43 H43           -2.0869     1.5014    -0.4938 H       
@<TRIPOS>BOND
   1    1    2 ar
   2    1    6 ar
   3    1   24 1
   4    2    3 ar
   5    2   25 1
   6    3    4 ar
   7    3   26 1
   8    4    5 ar
   9    4   27 1
  10    5    6 ar
  11    5    7 1
  12    7    8 3
  13    8    9 1
  14    9   13 2
  15    9   28 1
  16   10   11 1
  17   10   15 1
  18   10   16 am
  19   11   12 1
  20   11   29 1
  21   11   30 1
  22   12   13 1
  23   12   31 1
  24   12   32 1
  25   13   14 1
  26   14   15 1
  27   14   33 1
  28   14   34 1
  29   15   35 1
  30   15   36 1
  31   16   17 1
  32   16   20 2
  33   17   18 1
  34   17   37 1
  35   17   38 1
  36   18   19 1
  37   18   39 1
  38   18   40 1
  39   19   21 1
  40   19   22 1
  41   19   23 1
  42   24   41 1
  43   24   42 1
  44   24   43 1

#	End of record

