#	Name: ASD02030257
#	Creating user name:	WinNT
#	Creation time:	15. 06. 2019 20:14

#	Modifying user name:	WinNT
#	Modification time:	15. 06. 2019 20:14

#	Program:	/corina/corina34_cracker 3.40 0067  02.08.2006

@<TRIPOS>MOLECULE
ASD02030257
  52   56    0    0    0
SMALL
NO_CHARGES


@<TRIPOS>ATOM
   1 N1            -0.1328     1.8378     0.1060 N.am    
   2 C2             0.1254     0.4106    -0.1314 C.3     
   3 C3            -0.6283    -0.4062     0.9255 C.3     
   4 N4            -2.0201     0.0628     0.9770 N.am    
   5 C5            -2.2783     1.4900     1.2144 C.3     
   6 C6            -1.5248     2.3058     0.1630 C.3     
   7 C7             0.8885     2.7009     0.2740 C.2     
   8 C8             2.2784     2.2000     0.3279 C.2     
   9 N9             3.3479     2.9140     0.6057 N.2     
  10 N10            2.6718     0.9322     0.1073 N.2     
  11 C11            3.9723     0.8982     0.2493 C.2     
  12 N12            4.3811     2.1453     0.5611 N.pl3   
  13 C13            5.7054     2.5384     0.7966 C.ar    
  14 O14            0.6669     3.8914     0.3812 O.2     
  15 C15           -3.0415    -0.8004     0.8090 C.2     
  16 C16           -2.7698    -2.1993     0.4491 C.2     
  17 O17           -4.1883    -0.4217     0.9553 O.2     
  18 C18            5.9933     3.8596     1.1103 C.ar    
  19 C19            7.3009     4.2442     1.3420 C.ar    
  20 C20            8.3215     3.3133     1.2610 C.ar    
  21 C21            8.0367     1.9967     0.9483 C.ar    
  22 C22            6.7317     1.6056     0.7223 C.ar    
  23 Cl23           7.6626     5.8961     1.7344 Cl      
  24 C24           -3.7791     1.7658     1.1026 C.3     
  25 C25           -3.7139    -3.1211     0.1277 C.2     
  26 C26           -2.9905    -4.3603    -0.1550 C.ar    
  27 C27           -1.6288    -4.0580     0.0293 C.ar    
  28 O28           -1.5443    -2.7599     0.3824 O.3     
  29 C29           -3.3778    -5.6481    -0.5345 C.ar    
  30 C30           -2.4182    -6.6181    -0.7267 C.ar    
  31 C31           -1.0728    -6.3182    -0.5439 C.ar    
  32 C32           -0.6783    -5.0525    -0.1698 C.ar    
  33 F33           -2.7859    -7.8652    -1.0936 F       
  34 H34           -0.2266     0.1356    -1.1257 H       
  35 H35            1.1945     0.2141    -0.0518 H       
  36 H36           -0.6078    -1.4620     0.6551 H       
  37 H37           -0.1588    -0.2663     1.8992 H       
  38 H38           -1.9263     1.7649     2.2087 H       
  39 H39           -1.5461     3.3612     0.4346 H       
  40 H40           -1.9921     2.1669    -0.8118 H       
  41 H41            4.6035     0.0287     0.1400 H       
  42 H42            5.1968     4.5863     1.1728 H       
  43 H43            9.3424     3.6156     1.4421 H       
  44 H44            8.8354     1.2725     0.8850 H       
  45 H45            6.5103     0.5771     0.4784 H       
  46 H46           -4.3021     1.2656     1.9177 H       
  47 H47           -3.9565     2.8397     1.1618 H       
  48 H48           -4.1478     1.3887     0.1487 H       
  49 H49           -4.7826    -2.9697     0.0888 H       
  50 H50           -4.4227    -5.8819    -0.6759 H       
  51 H51           -0.3289    -7.0861    -0.6968 H       
  52 H52            0.3700    -4.8327    -0.0315 H       
@<TRIPOS>BOND
   1    1    2 1
   2    1    7 am
   3    1    6 1
   4    2    3 1
   5    2   34 1
   6    2   35 1
   7    3    4 1
   8    3   36 1
   9    3   37 1
  10    4    5 1
  11    4   15 am
  12    5    6 1
  13    5   24 1
  14    5   38 1
  15    6   39 1
  16    6   40 1
  17    7    8 1
  18    7   14 2
  19    8    9 2
  20    8   10 1
  21    9   12 1
  22   10   11 2
  23   11   12 1
  24   11   41 1
  25   12   13 1
  26   13   18 ar
  27   13   22 ar
  28   15   16 1
  29   15   17 2
  30   16   25 2
  31   16   28 1
  32   18   19 ar
  33   18   42 1
  34   19   20 ar
  35   19   23 1
  36   20   21 ar
  37   20   43 1
  38   21   22 ar
  39   21   44 1
  40   22   45 1
  41   24   46 1
  42   24   47 1
  43   24   48 1
  44   25   26 1
  45   25   49 1
  46   26   27 ar
  47   26   29 ar
  48   27   28 1
  49   27   32 ar
  50   29   30 ar
  51   29   50 1
  52   30   31 ar
  53   30   33 1
  54   31   32 ar
  55   31   51 1
  56   32   52 1

#	End of record

