#	Name: ASD09740004
#	Creating user name:	WinNT
#	Creation time:	15. 06. 2019 21:22

#	Modifying user name:	WinNT
#	Modification time:	15. 06. 2019 21:22

#	Program:	/corina/corina34_cracker 3.40 0067  02.08.2006

@<TRIPOS>MOLECULE
ASD09740004
  29   31    0    0    0
SMALL
NO_CHARGES


@<TRIPOS>ATOM
   1 N1            -0.0144     1.2085     0.0087 N.2     
   2 O2             0.0021    -0.0041     0.0020 O.3     
   3 C3             1.2061     1.6798    -0.0004 C.2     
   4 N4             2.0457     0.6235    -0.0141 N.2     
   5 C5             1.2698    -0.4440    -0.0125 C.2     
   6 C6             1.7125    -1.8545    -0.0238 C.ar    
   7 C7             0.7757    -2.8944    -0.0205 C.ar    
   8 C8             3.0714    -2.1716    -0.0439 C.ar    
   9 N9             3.4658    -3.4278    -0.0549 N.ar    
  10 C10            2.6056    -4.4283    -0.0471 C.ar    
  11 C11            1.2420    -4.1974    -0.0320 C.ar    
  12 C12            1.5955     3.1123     0.0031 C.ar    
  13 C13            0.6160     4.1029     0.0178 C.ar    
  14 C14            0.9836     5.4333     0.0210 C.ar    
  15 C15            2.3216     5.7838     0.0092 C.ar    
  16 C16            3.2981     4.8043    -0.0059 C.ar    
  17 C17            2.9417     3.4708    -0.0025 C.ar    
  18 C18            2.7168     7.2380     0.0122 C.3     
  19 F19            2.8525     7.6816     1.3320 F       
  20 F20            3.9347     7.3917    -0.6589 F       
  21 F21            1.7302     7.9908    -0.6337 F       
  22 H22           -0.2839    -2.6854    -0.0089 H       
  23 H23            3.8059    -1.3798    -0.0508 H       
  24 H24            2.9722    -5.4441    -0.0567 H       
  25 H25            0.5484    -5.0253    -0.0258 H       
  26 H26           -0.4290     3.8303     0.0264 H       
  27 H27            0.2251     6.2021     0.0324 H       
  28 H28            4.3414     5.0834    -0.0155 H       
  29 H29            3.7050     2.7068    -0.0140 H       
@<TRIPOS>BOND
   1    1    2 1
   2    1    3 2
   3    2    5 1
   4    3    4 1
   5    3   12 1
   6    4    5 2
   7    5    6 1
   8    6    7 ar
   9    6    8 ar
  10    7   11 ar
  11    7   22 1
  12    8    9 ar
  13    8   23 1
  14    9   10 ar
  15   10   11 ar
  16   10   24 1
  17   11   25 1
  18   12   13 ar
  19   12   17 ar
  20   13   14 ar
  21   13   26 1
  22   14   15 ar
  23   14   27 1
  24   15   16 ar
  25   15   18 1
  26   16   17 ar
  27   16   28 1
  28   17   29 1
  29   18   19 1
  30   18   20 1
  31   18   21 1

#	End of record

