#	Name: ASD01912822
#	Creating user name:	WinNT
#	Creation time:	15. 06. 2019 20:00

#	Modifying user name:	WinNT
#	Modification time:	15. 06. 2019 20:00

#	Program:	/corina/corina34_cracker 3.40 0067  02.08.2006

@<TRIPOS>MOLECULE
ASD01912822
  42   45    0    0    0
SMALL
NO_CHARGES


@<TRIPOS>ATOM
   1 C1            -0.0165     1.3669     0.0096 C.2     
   2 N2             0.0021    -0.0041     0.0020 N.pl3   
   3 C3            -1.2021    -0.6918     0.0098 C.2     
   4 C4            -2.3630    -0.0492     0.0239 C.2     
   5 N5            -2.4358     1.3306     0.0320 N.am    
   6 C6            -1.3019     2.0667     0.0309 C.2     
   7 C7             1.3015     1.7836    -0.0008 C.2     
   8 C8             2.0550     0.6111    -0.0143 C.2     
   9 N9             1.2243    -0.4045    -0.0118 N.2     
  10 O10           -1.3490     3.2837     0.0380 O.2     
  11 C11           -3.6839     1.9663     0.0469 C.ar    
  12 C12            3.5595     0.5250    -0.0291 C.3     
  13 O13            4.1121     1.8428    -0.0273 O.3     
  14 C14            5.4677     1.9436    -0.0397 C.ar    
  15 C15            6.0710     3.1927    -0.0388 C.ar    
  16 C16            7.4487     3.2936    -0.0514 C.ar    
  17 C17            8.2273     2.1488    -0.0655 C.ar    
  18 C18            7.6265     0.9015    -0.0664 C.ar    
  19 C19            6.2490     0.7975    -0.0476 C.ar    
  20 C20           -4.2991     2.2852     1.2520 C.ar    
  21 C21           -4.3261     2.2942    -1.1475 C.ar    
  22 N22           -5.5036     2.8939    -1.1342 N.ar    
  23 C23           -6.1123     3.2031    -0.0046 C.ar    
  24 C24           -5.5348     2.9144     1.2162 C.ar    
  25 F25            9.5745     2.2490    -0.0788 F       
  26 O26           -3.7364     1.9952    -2.3328 O.3     
  27 C27           -4.4453     2.3571    -3.5197 C.3     
  28 H28           -1.1950    -1.7717     0.0039 H       
  29 H29           -3.2786    -0.6219     0.0289 H       
  30 H30            1.6685     2.7994     0.0006 H       
  31 H31            3.9013    -0.0135     0.8548 H       
  32 H32            3.8843    -0.0040    -0.9251 H       
  33 H33            5.4639     4.0858    -0.0285 H       
  34 H34            7.9187     4.2660    -0.0507 H       
  35 H35            8.2350     0.0093    -0.0778 H       
  36 H36            5.7806    -0.1756    -0.0480 H       
  37 H37           -3.8263     2.0485     2.1937 H       
  38 H38           -7.0741     3.6934    -0.0354 H       
  39 H39           -6.0424     3.1717     2.1340 H       
  40 H40           -5.4096     1.8493    -3.5360 H       
  41 H41           -4.6023     3.4356    -3.5345 H       
  42 H42           -3.8646     2.0625    -4.3938 H       
@<TRIPOS>BOND
   1    1    2 1
   2    1    7 2
   3    1    6 1
   4    2    3 1
   5    2    9 1
   6    3    4 2
   7    3   28 1
   8    4    5 1
   9    4   29 1
  10    5    6 am
  11    5   11 1
  12    6   10 2
  13    7    8 1
  14    7   30 1
  15    8    9 2
  16    8   12 1
  17   11   21 ar
  18   11   20 ar
  19   12   13 1
  20   12   31 1
  21   12   32 1
  22   13   14 1
  23   14   15 ar
  24   14   19 ar
  25   15   16 ar
  26   15   33 1
  27   16   17 ar
  28   16   34 1
  29   17   18 ar
  30   17   25 1
  31   18   19 ar
  32   18   35 1
  33   19   36 1
  34   20   24 ar
  35   20   37 1
  36   21   22 ar
  37   21   26 1
  38   22   23 ar
  39   23   24 ar
  40   23   38 1
  41   24   39 1
  42   26   27 1
  43   27   40 1
  44   27   41 1
  45   27   42 1

#	End of record

