#	Name: ASD09740168
#	Creating user name:	WinNT
#	Creation time:	15. 06. 2019 21:22

#	Modifying user name:	WinNT
#	Modification time:	15. 06. 2019 21:22

#	Program:	/corina/corina34_cracker 3.40 0067  02.08.2006

@<TRIPOS>MOLECULE
ASD09740168
  33   35    0    0    0
SMALL
NO_CHARGES


@<TRIPOS>ATOM
   1 C1            -0.0184     1.5028     0.0103 C.3     
   2 O2             0.0924    -6.2065     0.6762 O.3     
   3 N3             0.0825    -5.0436     1.0205 N.2     
   4 C4             0.0745    -6.2868    -0.6630 C.2     
   5 N5             0.0524    -5.0502    -1.1208 N.2     
   6 C6             0.0578    -4.2600    -0.0270 C.2     
   7 C7             0.0387    -2.7757    -0.0144 C.ar    
   8 C8             0.0795    -7.5262    -1.4718 C.ar    
   9 C9             0.0123    -2.0673    -1.2137 C.ar    
  10 C10            0.0408    -2.0876     1.1963 C.ar    
  11 C11            0.0230    -0.7026     1.2015 C.ar    
  12 C12            0.0021    -0.0041     0.0020 C.ar    
  13 C13           -0.0059    -0.6867    -1.1996 C.ar    
  14 C14            0.0653    -7.4723    -2.8702 C.ar    
  15 C15            0.1044    -8.7832    -0.8600 C.ar    
  16 C16            0.1081    -9.9147    -1.6541 C.ar    
  17 N17            0.0891    -9.8184    -2.9699 N.ar    
  18 C18            0.0706    -8.6520    -3.5859 C.ar    
  19 O19            0.0249    -0.0276     2.3810 O.3     
  20 C20            0.0460    -0.8102     3.5765 C.3     
  21 Cl21           0.1389   -11.4831    -0.9104 Cl      
  22 H22            1.0042     1.8801     0.0026 H       
  23 H23           -0.5455     1.8639    -0.8728 H       
  24 H24           -0.5286     1.8543     0.9071 H       
  25 H25            0.0065    -2.5979    -2.1544 H       
  26 H26            0.0564    -2.6324     2.1287 H       
  27 H27           -0.0221    -0.1388    -2.1302 H       
  28 H28            0.0501    -6.5212    -3.3817 H       
  29 H29            0.1208    -8.8688     0.2165 H       
  30 H30            0.0550    -8.6201    -4.6653 H       
  31 H31            0.0453    -0.1495     4.4434 H       
  32 H32           -0.8356    -1.4506     3.6070 H       
  33 H33            0.9442    -1.4276     3.5908 H       
@<TRIPOS>BOND
   1    1   12 1
   2    1   22 1
   3    1   23 1
   4    1   24 1
   5    2    3 1
   6    2    4 1
   7    3    6 2
   8    4    5 2
   9    4    8 1
  10    5    6 1
  11    6    7 1
  12    7    9 ar
  13    7   10 ar
  14    8   15 ar
  15    8   14 ar
  16    9   13 ar
  17    9   25 1
  18   10   11 ar
  19   10   26 1
  20   11   12 ar
  21   11   19 1
  22   12   13 ar
  23   13   27 1
  24   14   18 ar
  25   14   28 1
  26   15   16 ar
  27   15   29 1
  28   16   17 ar
  29   16   21 1
  30   17   18 ar
  31   18   30 1
  32   19   20 1
  33   20   31 1
  34   20   32 1
  35   20   33 1

#	End of record

