#	Name: ASD07930683
#	Creating user name:	WinNT
#	Creation time:	15. 06. 2019 21:13

#	Modifying user name:	WinNT
#	Modification time:	15. 06. 2019 21:13

#	Program:	/corina/corina34_cracker 3.40 0067  02.08.2006

@<TRIPOS>MOLECULE
ASD07930683
  43   45    0    0    0
SMALL
NO_CHARGES


@<TRIPOS>ATOM
   1 C1            -0.0178     1.4608     0.0101 C.3     
   2 N2             0.8031    -0.4153    -2.1619 N.2     
   3 N3            -0.8796    -1.7833    -1.2911 N.pl3   
   4 C4            -0.9005    -2.8248    -0.2586 C.3     
   5 C5            -1.2102    -2.1834     1.1010 C.3     
   6 S6             0.0275    -0.8859     1.4156 S.o2    
   7 N7             0.0021    -0.0041     0.0020 N.am    
   8 C8             0.0002    -0.7257    -1.1832 C.2     
   9 C9             0.4646    -3.5132    -0.1997 C.3     
  10 O10           -0.4323     0.0192     2.4099 O.2     
  11 O11            1.3354    -1.4387     1.4687 O.2     
  12 C12           -1.9634    -3.8404    -0.5898 C.2     
  13 S13           -2.8660    -4.7816     0.5901 S.3     
  14 C14           -3.7641    -5.5847    -0.6914 C.2     
  15 C15           -3.3525    -5.1197    -1.8877 C.2     
  16 C16           -2.3661    -4.1572    -1.8238 C.2     
  17 C17           -4.8087    -6.6109    -0.4879 C.ar    
  18 C18           -5.4548    -7.1791    -1.5856 C.ar    
  19 C19           -6.4320    -8.1401    -1.3874 C.ar    
  20 C20           -6.7663    -8.5357    -0.0993 C.ar    
  21 C21           -6.1266    -7.9732     0.9900 C.ar    
  22 C22           -5.1479    -7.0188     0.8035 C.ar    
  23 O23           -7.0643    -8.6960    -2.4542 O.3     
  24 C24           -8.0616    -9.6810    -2.1764 C.3     
  25 H25            1.0048     1.8381     0.0023 H       
  26 H26           -0.5450     1.8219    -0.8730 H       
  27 H27           -0.5280     1.8123     0.9069 H       
  28 H28            0.7883    -0.9307    -2.9835 H       
  29 H29           -1.4804    -1.8399    -2.0505 H       
  30 H30           -2.2071    -1.7432     1.0811 H       
  31 H31           -1.1573    -2.9394     1.8845 H       
  32 H32            1.2322    -2.7780     0.0418 H       
  33 H33            0.4485    -4.2871     0.5677 H       
  34 H34            0.6857    -3.9650    -1.1667 H       
  35 H35           -3.7649    -5.4702    -2.8223 H       
  36 H36           -1.9452    -3.6989    -2.7065 H       
  37 H37           -5.1941    -6.8703    -2.5871 H       
  38 H38           -7.5290    -9.2851     0.0525 H       
  39 H39           -6.3912    -8.2847     1.9897 H       
  40 H40           -4.6499    -6.5817     1.6564 H       
  41 H41           -7.6097   -10.5136    -1.6374 H       
  42 H42           -8.8495    -9.2384    -1.5669 H       
  43 H43           -8.4863   -10.0422    -3.1130 H       
@<TRIPOS>BOND
   1    1    7 1
   2    1   25 1
   3    1   26 1
   4    1   27 1
   5    2    8 2
   6    2   28 1
   7    3    4 1
   8    3    8 1
   9    3   29 1
  10    4    5 1
  11    4    9 1
  12    4   12 1
  13    5    6 1
  14    5   30 1
  15    5   31 1
  16    6    7 am
  17    6   10 2
  18    6   11 2
  19    7    8 1
  20    9   32 1
  21    9   33 1
  22    9   34 1
  23   12   13 1
  24   12   16 2
  25   13   14 1
  26   14   15 2
  27   14   17 1
  28   15   16 1
  29   15   35 1
  30   16   36 1
  31   17   18 ar
  32   17   22 ar
  33   18   19 ar
  34   18   37 1
  35   19   20 ar
  36   19   23 1
  37   20   21 ar
  38   20   38 1
  39   21   22 ar
  40   21   39 1
  41   22   40 1
  42   23   24 1
  43   24   41 1
  44   24   42 1
  45   24   43 1

#	End of record

