#	Name: ASD01230136
#	Creating user name:	WinNT
#	Creation time:	15. 06. 2019 19:11

#	Modifying user name:	WinNT
#	Modification time:	15. 06. 2019 19:11

#	Program:	/corina/corina34_cracker 3.40 0067  02.08.2006

@<TRIPOS>MOLECULE
ASD01230136
  55   58    0    0    0
SMALL
NO_CHARGES


@<TRIPOS>ATOM
   1 P1             0.0208     1.4523     0.0680 P.3     
   2 O2             0.2771     0.0014     0.2076 O.2     
   3 O3             1.4216     2.2341    -0.0688 O.3     
   4 O4            -0.8713     1.7157    -1.2462 O.3     
   5 N5            -0.8025     2.0098     1.4259 N.3     
   6 O6            -0.4267     4.8324     3.1796 O.3     
   7 C7             0.1059     4.1670     2.1448 C.2     
   8 C8            -0.9876     3.4659     1.3683 C.3     
   9 C9            -2.2984     3.8699     2.0793 C.3     
  10 C10           -1.8450     5.0717     2.9391 C.3     
  11 O11            1.2825     4.1327     1.8724 O.2     
  12 C12            2.2198     1.7682    -1.0658 C.ar    
  13 C13            3.3222     0.9803    -0.7629 C.ar    
  14 C14            4.1322     0.5079    -1.7783 C.ar    
  15 C15            3.8447     0.8198    -3.0956 C.ar    
  16 C16            2.7468     1.6050    -3.3986 C.ar    
  17 C17            1.9308     2.0744    -2.3869 C.ar    
  18 Cl18           4.8634     0.2254    -4.3693 Cl      
  19 Cl19           3.6832     0.5895     0.8895 Cl      
  20 C20           -2.0761     0.9997    -1.5253 C.3     
  21 O21           -1.8022     1.1486    -3.9477 O.3     
  22 C22           -2.6693     1.4949    -2.8458 C.3     
  23 C23           -3.9981     0.7662    -3.1452 C.3     
  24 C24           -3.9794     0.5655    -4.6771 C.3     
  25 C25           -2.6415     1.1967    -5.1220 C.3     
  26 O26           -5.1109     1.5756    -2.7598 O.3     
  27 F27           -4.0079    -0.7969    -4.9934 F       
  28 F28           -5.0570     1.2307    -5.2718 F       
  29 C29           -1.6968    -0.8677    -5.9960 C.2     
  30 N30           -1.1530    -1.6016    -6.9653 N.2     
  31 C31           -0.9402    -1.0844    -8.1682 C.2     
  32 C32           -1.2937     0.2567    -8.4227 C.2     
  33 C33           -1.8456     0.9898    -7.4270 C.2     
  34 N34           -2.0449     0.4148    -6.2078 N.am    
  35 O35           -1.8870    -1.3678    -4.8997 O.2     
  36 N36           -0.3774    -1.8518    -9.1615 N.pl3   
  37 H37           -1.6875     1.5367     1.5317 H       
  38 H38           -0.9967     3.8075     0.3332 H       
  39 H39           -3.0549     4.1736     1.3557 H       
  40 H40           -2.6648     3.0586     2.7084 H       
  41 H41           -2.3925     5.0936     3.8814 H       
  42 H42           -1.9865     6.0048     2.3938 H       
  43 H43            4.9902    -0.1047    -1.5436 H       
  44 H44            2.5247     1.8478    -4.4273 H       
  45 H45            1.0712     2.6833    -2.6247 H       
  46 H46           -1.8564    -0.0651    -1.6023 H       
  47 H47           -2.7922     1.1657    -0.7204 H       
  48 H48           -2.8271     2.5728    -2.8114 H       
  49 H49           -4.0295    -0.1962    -2.6343 H       
  50 H50           -2.7950     2.2290    -5.4367 H       
  51 H51           -5.9712     1.1663    -2.9256 H       
  52 H52           -1.1266     0.6925    -9.3966 H       
  53 H53           -2.1245     2.0192    -7.5972 H       
  54 H54           -0.1350    -2.7740    -8.9834 H       
  55 H55           -0.2231    -1.4708   -10.0401 H       
@<TRIPOS>BOND
   1    1    2 2
   2    1    3 1
   3    1    4 1
   4    1    5 1
   5    3   12 1
   6    4   20 1
   7    5    8 1
   8    5   37 1
   9    6    7 1
  10    6   10 1
  11    7    8 1
  12    7   11 2
  13    8    9 1
  14    8   38 1
  15    9   10 1
  16    9   39 1
  17    9   40 1
  18   10   41 1
  19   10   42 1
  20   12   13 ar
  21   12   17 ar
  22   13   14 ar
  23   13   19 1
  24   14   15 ar
  25   14   43 1
  26   15   16 ar
  27   15   18 1
  28   16   17 ar
  29   16   44 1
  30   17   45 1
  31   20   22 1
  32   20   46 1
  33   20   47 1
  34   21   22 1
  35   21   25 1
  36   22   23 1
  37   22   48 1
  38   23   24 1
  39   23   26 1
  40   23   49 1
  41   24   25 1
  42   24   27 1
  43   24   28 1
  44   25   34 1
  45   25   50 1
  46   26   51 1
  47   29   30 1
  48   29   34 am
  49   29   35 2
  50   30   31 2
  51   31   32 1
  52   31   36 1
  53   32   33 2
  54   32   52 1
  55   33   34 1
  56   33   53 1
  57   36   54 1
  58   36   55 1

#	End of record

