#	Name: ASD04910092
#	Creating user name:	WinNT
#	Creation time:	15. 06. 2019 20:55

#	Modifying user name:	WinNT
#	Modification time:	15. 06. 2019 20:55

#	Program:	/corina/corina34_cracker 3.40 0067  02.08.2006

@<TRIPOS>MOLECULE
ASD04910092
  24   24    0    0    0
SMALL
NO_CHARGES


@<TRIPOS>ATOM
   1 C1            -0.0187     1.5258     0.0104 C.3     
   2 C2             0.0021    -0.0041     0.0020 C.3     
   3 C3             0.6310    -0.5127     1.3007 C.3     
   4 C4             0.6518    -2.0426     1.2923 C.3     
   5 O5             1.3220     2.0204     0.0003 O.3     
   6 C6            -0.7475     2.0250    -1.2105 C.ar    
   7 C7            -1.8177     2.8873    -1.0620 C.ar    
   8 C8            -2.4813     3.3413    -2.1911 C.ar    
   9 C9            -2.0415     2.9087    -3.4340 C.ar    
  10 C10           -0.9636     2.0454    -3.5039 C.ar    
  11 N11           -0.3535     1.6383    -2.4079 N.ar    
  12 Br12          -2.9055     3.4917    -5.0118 Br      
  13 H13           -0.5289     1.8773     0.9072 H       
  14 H14           -1.0175    -0.3808    -0.0798 H       
  15 H15            0.5883    -0.3548    -0.8473 H       
  16 H16            1.6506    -0.1360     1.3826 H       
  17 H17            0.0448    -0.1620     2.1500 H       
  18 H18            1.0998    -2.4050     2.2175 H       
  19 H19           -0.3678    -2.4193     1.2104 H       
  20 H20            1.2380    -2.3933     0.4429 H       
  21 H21            1.8365     1.7462    -0.7712 H       
  22 H22           -2.1330     3.2031    -0.0785 H       
  23 H23           -3.3208     4.0153    -2.1054 H       
  24 H24           -0.6151     1.7035    -4.4672 H       
@<TRIPOS>BOND
   1    1    2 1
   2    1    5 1
   3    1    6 1
   4    1   13 1
   5    2    3 1
   6    2   14 1
   7    2   15 1
   8    3    4 1
   9    3   16 1
  10    3   17 1
  11    4   18 1
  12    4   19 1
  13    4   20 1
  14    5   21 1
  15    6    7 ar
  16    6   11 ar
  17    7    8 ar
  18    7   22 1
  19    8    9 ar
  20    8   23 1
  21    9   10 ar
  22    9   12 1
  23   10   11 ar
  24   10   24 1

#	End of record

