#	Name: ASD00192030
#	Creating user name:	WinNT
#	Creation time:	15. 06. 2019 18:33

#	Modifying user name:	WinNT
#	Modification time:	15. 06. 2019 18:33

#	Program:	/corina/corina34_cracker 3.40 0067  02.08.2006

@<TRIPOS>MOLECULE
ASD00192030
  24   24    0    0    0
SMALL
NO_CHARGES


@<TRIPOS>ATOM
   1 C1            -0.0115     1.4678     0.0718 C.2     
   2 C2             0.0052    -0.0045     0.0320 C.ar    
   3 C3             1.2195    -0.6937    -0.1191 C.ar    
   4 C4             1.2214    -2.0824    -0.1546 C.ar    
   5 C5             0.0353    -2.7786    -0.0422 C.ar    
   6 C6            -1.1646    -2.1016     0.1070 C.ar    
   7 C7            -1.1866    -0.7248     0.1503 C.ar    
   8 O8             1.0340     2.0873     0.0792 O.2     
   9 O9            -1.1861     2.1280     0.0943 O.3     
  10 N10            2.4114     0.0091    -0.2328 N.pl3   
  11 C11            3.6874    -0.7105    -0.2487 C.3     
  12 C12            4.8190     0.2762    -0.3797 C.2     
  13 N13            6.0616    -0.1500    -0.4148 N.pl3   
  14 O14            6.3180    -1.4394    -0.3356 O.2     
  15 O15            7.0505     0.7122    -0.5293 O.2     
  16 H16            2.1522    -2.6177    -0.2706 H       
  17 H17            0.0422    -3.8582    -0.0711 H       
  18 H18           -2.0871    -2.6565     0.1937 H       
  19 H19           -2.1243    -0.2026     0.2709 H       
  20 H20           -1.1465     3.0939     0.1202 H       
  21 H21            2.3993     0.9766    -0.3018 H       
  22 H22            3.7999    -1.2712     0.6793 H       
  23 H23            3.7059    -1.3988    -1.0936 H       
  24 H24            4.6087     1.3335    -0.4446 H       
@<TRIPOS>BOND
   1    1    2 1
   2    1    8 2
   3    1    9 1
   4    2    3 ar
   5    2    7 ar
   6    3    4 ar
   7    3   10 1
   8    4    5 ar
   9    4   16 1
  10    5    6 ar
  11    5   17 1
  12    6    7 ar
  13    6   18 1
  14    7   19 1
  15    9   20 1
  16   10   11 1
  17   10   21 1
  18   11   12 1
  19   11   22 1
  20   11   23 1
  21   12   13 1
  22   12   24 1
  23   13   14 2
  24   13   15 2

#	End of record

