#	Name: ASD08170305
#	Creating user name:	WinNT
#	Creation time:	15. 06. 2019 21:17

#	Modifying user name:	WinNT
#	Modification time:	15. 06. 2019 21:17

#	Program:	/corina/corina34_cracker 3.40 0067  02.08.2006

@<TRIPOS>MOLECULE
ASD08170305
  68   71    0    0    0
SMALL
NO_CHARGES


@<TRIPOS>ATOM
   1 C1            -0.0162     1.3436     0.0094 C.2     
   2 N2             0.0021    -0.0041     0.0020 N.am    
   3 C3             1.2158    -0.6830    -0.0132 C.2     
   4 S4             1.4076    -2.3853    -0.0242 S.3     
   5 C5             3.1580    -2.1679    -0.0404 C.2     
   6 C6             4.1900    -3.2660    -0.0570 C.3     
   7 C7             5.9649    -5.1406     2.7999 C.3     
   8 C8             6.9968    -6.2387     2.7833 C.2     
   9 S9             6.6713    -7.9723     2.7767 S.3     
  10 C10            8.3583    -8.2694     2.7582 C.2     
  11 N11            2.3916    -0.1314    -0.0272 N.2     
  12 N12            3.3971    -0.8949    -0.0360 N.2     
  13 N13            8.2821    -6.0790     2.7658 N.2     
  14 N14            8.9817    -7.1299     2.7585 N.2     
  15 O15            1.0258     1.9642     0.0028 O.2     
  16 C16           -1.3314     2.0792     0.0197 C.3     
  17 C17            4.5536    -3.6458     1.3798 C.3     
  18 C18            5.6013    -4.7607     1.3631 C.3     
  19 N19            8.9606    -9.5229     2.7455 N.am    
  20 C20           10.3044    -9.6248     2.7315 C.2     
  21 C21           10.9570   -10.9831     2.7177 C.3     
  22 O22           10.9885    -8.6233     2.7299 O.2     
  23 C23           -1.0722     3.5871     0.0266 C.3     
  24 C24           12.4780   -10.8180     2.7033 C.3     
  25 C25           13.1426   -12.1929     2.8151 C.3     
  26 C26           12.9076   -10.1542     1.3930 C.3     
  27 C27           14.6626   -12.0241     2.7396 C.3     
  28 C28           15.0288   -11.3254     1.4282 C.3     
  29 N29           14.3692   -10.0147     1.3696 N.3     
  30 C30           -0.3911     3.9945    -1.2818 C.3     
  31 N31           -0.1612     5.4449    -1.2845 N.3     
  32 C32           -1.4280     6.1835    -1.2071 C.3     
  33 C33           -2.1401     5.8414     0.1036 C.3     
  34 C34           -2.4026     4.3338     0.1579 C.3     
  35 H35           -0.8313    -0.5005     0.0073 H       
  36 H36            3.7851    -4.1373    -0.5717 H       
  37 H37            5.0822    -2.9183    -0.5777 H       
  38 H38            5.0727    -5.4882     3.3206 H       
  39 H39            6.3698    -4.2692     3.3146 H       
  40 H40           -1.9035     1.8130    -0.8691 H       
  41 H41           -1.8951     1.8033     0.9108 H       
  42 H42            4.9585    -2.7745     1.8946 H       
  43 H43            3.6614    -3.9935     1.9006 H       
  44 H44            6.4935    -4.4131     0.8423 H       
  45 H45            5.1964    -5.6320     0.8483 H       
  46 H46            8.4135   -10.3239     2.7467 H       
  47 H47           10.6602   -11.5378     3.6077 H       
  48 H48           10.6423   -11.5284     1.8279 H       
  49 H49           -0.4270     3.8416     0.8674 H       
  50 H50           12.7846   -10.1962     3.5444 H       
  51 H51           12.8738   -12.6510     3.7669 H       
  52 H52           12.8055   -12.8281     1.9960 H       
  53 H53           12.5881   -10.7700     0.5522 H       
  54 H54           12.4474    -9.1691     1.3170 H       
  55 H55           15.0040   -11.4210     3.5809 H       
  56 H56           15.1397   -13.0034     2.7757 H       
  57 H57           16.1092   -11.1908     1.3777 H       
  58 H58           14.6993   -11.9356     0.5872 H       
  59 H59           14.6699    -9.4945     0.5590 H       
  60 H60            0.5632     3.4754    -1.3715 H       
  61 H61           -1.0305     3.7266    -2.1229 H       
  62 H62            0.4605     5.7138    -0.5367 H       
  63 H63           -1.2269     7.2542    -1.2424 H       
  64 H64           -2.0626     5.9053    -2.0485 H       
  65 H65           -1.5120     6.1320     0.9457 H       
  66 H66           -3.0877     6.3777     0.1536 H       
  67 H67           -3.0624     4.0492    -0.6617 H       
  68 H68           -2.8707     4.0796     1.1088 H       
@<TRIPOS>BOND
   1    1    2 am
   2    1   15 2
   3    1   16 1
   4    2    3 1
   5    2   35 1
   6    3    4 1
   7    3   11 2
   8    4    5 1
   9    5    6 1
  10    5   12 2
  11    6   17 1
  12    6   36 1
  13    6   37 1
  14    7    8 1
  15    7   18 1
  16    7   38 1
  17    7   39 1
  18    8    9 1
  19    8   13 2
  20    9   10 1
  21   10   19 1
  22   10   14 2
  23   11   12 1
  24   13   14 1
  25   16   23 1
  26   16   40 1
  27   16   41 1
  28   17   18 1
  29   17   42 1
  30   17   43 1
  31   18   44 1
  32   18   45 1
  33   19   20 am
  34   19   46 1
  35   20   21 1
  36   20   22 2
  37   21   24 1
  38   21   47 1
  39   21   48 1
  40   23   30 1
  41   23   34 1
  42   23   49 1
  43   24   25 1
  44   24   26 1
  45   24   50 1
  46   25   27 1
  47   25   51 1
  48   25   52 1
  49   26   29 1
  50   26   53 1
  51   26   54 1
  52   27   28 1
  53   27   55 1
  54   27   56 1
  55   28   29 1
  56   28   57 1
  57   28   58 1
  58   29   59 1
  59   30   31 1
  60   30   60 1
  61   30   61 1
  62   31   32 1
  63   31   62 1
  64   32   33 1
  65   32   63 1
  66   32   64 1
  67   33   34 1
  68   33   65 1
  69   33   66 1
  70   34   67 1
  71   34   68 1

#	End of record

