#	Name: ASD05380084
#	Creating user name:	WinNT
#	Creation time:	15. 06. 2019 20:59

#	Modifying user name:	WinNT
#	Modification time:	15. 06. 2019 20:59

#	Program:	/corina/corina34_cracker 3.40 0067  02.08.2006

@<TRIPOS>MOLECULE
ASD05380084
  52   56    0    0    0
SMALL
NO_CHARGES


@<TRIPOS>ATOM
   1 C1            -0.1319     1.5041    -0.3731 C.ar    
   2 C2             0.0090     0.1896     0.1255 C.ar    
   3 C3             0.9838     2.1983    -0.8359 C.ar    
   4 C4             2.2215     1.5935    -0.8032 C.ar    
   5 C5             2.3635     0.3017    -0.3143 C.ar    
   6 C6             1.2737    -0.4013     0.1487 C.ar    
   7 N7            -1.0913    -0.4670     0.5709 N.2     
   8 C8            -2.2673     0.0828     0.5495 C.2     
   9 N9            -2.4956     1.3419     0.0871 N.am    
  10 C10           -1.4757     2.1003    -0.3780 C.2     
  11 C11           -3.7967     1.8602     0.0988 C.ar    
  12 C12           -4.2529     2.5686     1.2022 C.ar    
  13 C13           -4.6300     1.6713    -0.9955 C.ar    
  14 C14           -5.9148     2.1844    -0.9823 C.ar    
  15 C15           -6.3695     2.8865     0.1212 C.ar    
  16 C16           -5.5383     3.0802     1.2116 C.ar    
  17 C17           -3.4389    -0.7141     1.0626 C.3     
  18 N18           -3.2604    -2.1254     0.7122 N.pl3   
  19 C19           -4.3628    -2.9537     0.5938 C.ar    
  20 N20           -5.5902    -2.4850     0.7946 N.ar    
  21 O21           -1.6653     3.2284    -0.7943 O.2     
  22 C22           -4.2108    -4.3083     0.2529 C.ar    
  23 C23           -5.3673    -5.0997     0.1476 C.ar    
  24 N24           -6.5531    -4.5435     0.3723 N.ar    
  25 C25           -6.6477    -3.2680     0.6839 C.ar    
  26 N26           -3.1530    -5.1087    -0.0221 N.2     
  27 C27           -3.5761    -6.3114    -0.2830 C.2     
  28 N28           -4.9354    -6.3570    -0.1913 N.pl3   
  29 C29           -3.5246    -0.5732     2.5836 C.3     
  30 C30           -4.7840    -1.2786     3.0910 C.3     
  31 F31           -5.9842     3.7655     2.2871 F       
  32 F32           -6.7260     2.0008    -2.0468 F       
  33 C33            0.8380     3.6003    -1.3690 C.3     
  34 H34            3.0885     2.1287    -1.1612 H       
  35 H35            3.3410    -0.1573    -0.2966 H       
  36 H36            1.3965    -1.4055     0.5267 H       
  37 H37           -3.6048     2.7198     2.0529 H       
  38 H38           -4.2755     1.1243    -1.8566 H       
  39 H39           -7.3725     3.2868     0.1299 H       
  40 H40           -4.3579    -0.3410     0.6107 H       
  41 H41           -2.3697    -2.4792     0.5631 H       
  42 H42           -7.6269    -2.8462     0.8559 H       
  43 H43           -2.9435    -7.1497    -0.5349 H       
  44 H44           -5.4947    -7.1359    -0.3380 H       
  45 H45           -2.6451    -1.0267     3.0407 H       
  46 H46           -3.5681     0.4832     2.8488 H       
  47 H47           -4.7406    -2.3349     2.8258 H       
  48 H48           -4.8451    -1.1782     4.1746 H       
  49 H49           -5.6635    -0.8251     2.6339 H       
  50 H50            0.8460     4.3072    -0.5393 H       
  51 H51            1.6663     3.8210    -2.0423 H       
  52 H52           -0.1038     3.6869    -1.9109 H       
@<TRIPOS>BOND
   1    1    2 ar
   2    1    3 ar
   3    1   10 1
   4    2    7 1
   5    2    6 ar
   6    3    4 ar
   7    3   33 1
   8    4    5 ar
   9    4   34 1
  10    5    6 ar
  11    5   35 1
  12    6   36 1
  13    7    8 2
  14    8    9 1
  15    8   17 1
  16    9   10 am
  17    9   11 1
  18   10   21 2
  19   11   12 ar
  20   11   13 ar
  21   12   16 ar
  22   12   37 1
  23   13   14 ar
  24   13   38 1
  25   14   15 ar
  26   14   32 1
  27   15   16 ar
  28   15   39 1
  29   16   31 1
  30   17   18 1
  31   17   29 1
  32   17   40 1
  33   18   19 1
  34   18   41 1
  35   19   20 ar
  36   19   22 ar
  37   20   25 ar
  38   22   23 ar
  39   22   26 1
  40   23   24 ar
  41   23   28 1
  42   24   25 ar
  43   25   42 1
  44   26   27 2
  45   27   28 1
  46   27   43 1
  47   28   44 1
  48   29   30 1
  49   29   45 1
  50   29   46 1
  51   30   47 1
  52   30   48 1
  53   30   49 1
  54   33   50 1
  55   33   51 1
  56   33   52 1

#	End of record

