#	Name: ASD03092023
#	Creating user name:	WinNT
#	Creation time:	15. 06. 2019 20:31

#	Modifying user name:	WinNT
#	Modification time:	15. 06. 2019 20:31

#	Program:	/corina/corina34_cracker 3.40 0067  02.08.2006

@<TRIPOS>MOLECULE
ASD03092023
  43   45    0    0    0
SMALL
NO_CHARGES


@<TRIPOS>ATOM
   1 N1             0.2826     0.8892    -0.4013 N.pl3   
   2 C2             0.0771    -0.3648     0.0928 C.2     
   3 C3            -1.2643    -0.5050     0.3084 C.2     
   4 C4            -1.8854     0.6937    -0.0645 C.2     
   5 N5            -0.9613     1.5278    -0.4823 N.2     
   6 C6             1.5755     1.4680    -0.7750 C.3     
   7 C7             1.8105     1.2624    -2.2493 C.2     
   8 N8             2.9438     1.7160    -2.8207 N.am    
   9 N9            -3.2584     0.9596     0.0025 N.pl3   
  10 C10           -3.7375     2.2404    -0.2895 C.ar    
  11 C11           -5.0170     2.4033    -0.8039 C.ar    
  12 C12           -5.4888     3.6714    -1.0915 C.ar    
  13 C13           -4.6843     4.7782    -0.8661 C.ar    
  14 C14           -3.4087     4.6160    -0.3538 C.ar    
  15 C15           -2.9363     3.3517    -0.0600 C.ar    
  16 F16           -6.7332     3.8316    -1.5924 F       
  17 C17            1.1162    -1.3863     0.3478 C.ar    
  18 C18            0.8908    -2.4316     1.2507 C.ar    
  19 C19            1.8872    -3.3624     1.4583 C.ar    
  20 N20            3.0388    -3.2760     0.8200 N.ar    
  21 C21            3.2922    -2.3070    -0.0391 C.ar    
  22 C22            2.3498    -1.3376    -0.3114 C.ar    
  23 C23            3.1723     1.5161    -4.2539 C.3     
  24 F24           -5.1461     6.0163    -1.1473 F       
  25 O25            0.9799     0.6889    -2.9216 O.2     
  26 C26            3.9472     2.4087    -2.0086 C.3     
  27 H27           -1.7580    -1.3834     0.6970 H       
  28 H28            1.5737     2.5351    -0.5527 H       
  29 H29            2.3691     0.9803    -0.2091 H       
  30 H30           -3.8772     0.2554     0.2516 H       
  31 H31           -5.6430     1.5409    -0.9796 H       
  32 H32           -2.7835     5.4793    -0.1796 H       
  33 H33           -1.9409     3.2265     0.3400 H       
  34 H34           -0.0491    -2.5081     1.7772 H       
  35 H35            1.7228    -4.1727     2.1531 H       
  36 H36            4.2489    -2.2753    -0.5392 H       
  37 H37            2.5640    -0.5474    -1.0157 H       
  38 H38            2.7697     2.3642    -4.8077 H       
  39 H39            4.2426     1.4336    -4.4432 H       
  40 H40            2.6746     0.6018    -4.5772 H       
  41 H41            4.6552     1.6829    -1.6088 H       
  42 H42            4.4786     3.1322    -2.6269 H       
  43 H43            3.4542     2.9266    -1.1859 H       
@<TRIPOS>BOND
   1    1    2 1
   2    1    6 1
   3    1    5 1
   4    2    3 2
   5    2   17 1
   6    3    4 1
   7    3   27 1
   8    4    5 2
   9    4    9 1
  10    6    7 1
  11    6   28 1
  12    6   29 1
  13    7    8 am
  14    7   25 2
  15    8   23 1
  16    8   26 1
  17    9   10 1
  18    9   30 1
  19   10   11 ar
  20   10   15 ar
  21   11   12 ar
  22   11   31 1
  23   12   13 ar
  24   12   16 1
  25   13   14 ar
  26   13   24 1
  27   14   15 ar
  28   14   32 1
  29   15   33 1
  30   17   18 ar
  31   17   22 ar
  32   18   19 ar
  33   18   34 1
  34   19   20 ar
  35   19   35 1
  36   20   21 ar
  37   21   22 ar
  38   21   36 1
  39   22   37 1
  40   23   38 1
  41   23   39 1
  42   23   40 1
  43   26   41 1
  44   26   42 1
  45   26   43 1

#	End of record

