#	Name: ASD02038354
#	Creating user name:	WinNT
#	Creation time:	15. 06. 2019 20:16

#	Modifying user name:	WinNT
#	Modification time:	15. 06. 2019 20:16

#	Program:	/corina/corina34_cracker 3.40 0067  02.08.2006

@<TRIPOS>MOLECULE
ASD02038354
  48   49    0    0    0
SMALL
NO_CHARGES


@<TRIPOS>ATOM
   1 N1            -0.0137     1.3935     0.0094 N.am    
   2 C2            -2.2675    -8.4253    -1.3625 C.3     
   3 C3            -3.3685    -8.9362    -2.2941 C.3     
   4 N4            -3.4116   -10.3996    -2.2426 N.pl3   
   5 N5            -2.2243    -6.9618    -1.4141 N.am    
   6 C6            -1.3258    -6.2875    -0.6695 C.2     
   7 C7            -1.2814    -4.7821    -0.7225 C.3     
   8 O8            -0.5529    -6.8923     0.0431 O.2     
   9 C9            -0.1804    -4.2713     0.2090 C.3     
  10 C10           -0.1360    -2.7658     0.1561 C.ar    
  11 C11           -0.9037    -2.0218     1.0331 C.ar    
  12 C12           -0.8654    -0.6420     0.9873 C.ar    
  13 C13           -0.0545    -0.0017     0.0588 C.ar    
  14 C14            0.7154    -0.7523    -0.8208 C.ar    
  15 C15            0.6767    -2.1317    -0.7657 C.ar    
  16 C16           -4.3433   -11.0988    -3.0145 C.ar    
  17 C17           -4.3852   -12.4863    -2.9666 C.ar    
  18 C18           -5.3080   -13.1750    -3.7308 C.ar    
  19 C19           -6.1901   -12.4823    -4.5437 C.ar    
  20 C20           -6.1497   -11.1004    -4.5926 C.ar    
  21 C21           -5.2326   -10.4071    -3.8266 C.ar    
  22 Cl22          -5.3612   -14.9092    -3.6724 Cl      
  23 Cl23          -7.3479   -13.3499    -5.5031 Cl      
  24 S24            0.8104     2.2394     1.1703 S.o2    
  25 O25            0.6513     3.5998     0.7919 O.2     
  26 O26            0.2838     1.7540     2.3976 O.2     
  27 C27            2.5368     1.7203     0.9688 C.3     
  28 H28           -0.4647     1.8668    -0.7072 H       
  29 H29           -2.4765    -8.7469    -0.3423 H       
  30 H30           -1.3061    -8.8286    -1.6809 H       
  31 H31           -4.3298    -8.5329    -1.9758 H       
  32 H32           -3.1594    -8.6145    -3.3143 H       
  33 H33           -2.7935   -10.8833    -1.6726 H       
  34 H34           -2.8425    -6.4782    -1.9840 H       
  35 H35           -1.0723    -4.4605    -1.7427 H       
  36 H36           -2.2427    -4.3789    -0.4042 H       
  37 H37           -0.3895    -4.5929     1.2293 H       
  38 H38            0.7809    -4.6745    -0.1093 H       
  39 H39           -1.5343    -2.5202     1.7545 H       
  40 H40           -1.4655    -0.0615     1.6723 H       
  41 H41            1.3469    -0.2576    -1.5439 H       
  42 H42            1.2753    -2.7158    -1.4490 H       
  43 H43           -3.6972   -13.0264    -2.3331 H       
  44 H44           -6.8386   -10.5628    -5.2273 H       
  45 H45           -5.2021    -9.3283    -3.8653 H       
  46 H46            2.8490     1.8893    -0.0618 H       
  47 H47            3.1710     2.2992     1.6401 H       
  48 H48            2.6277     0.6605     1.2068 H       
@<TRIPOS>BOND
   1    1   13 1
   2    1   24 am
   3    1   28 1
   4    2    3 1
   5    2    5 1
   6    2   29 1
   7    2   30 1
   8    3    4 1
   9    3   31 1
  10    3   32 1
  11    4   16 1
  12    4   33 1
  13    5    6 am
  14    5   34 1
  15    6    8 2
  16    6    7 1
  17    7    9 1
  18    7   35 1
  19    7   36 1
  20    9   10 1
  21    9   37 1
  22    9   38 1
  23   10   11 ar
  24   10   15 ar
  25   11   12 ar
  26   11   39 1
  27   12   13 ar
  28   12   40 1
  29   13   14 ar
  30   14   15 ar
  31   14   41 1
  32   15   42 1
  33   16   17 ar
  34   16   21 ar
  35   17   18 ar
  36   17   43 1
  37   18   19 ar
  38   18   22 1
  39   19   20 ar
  40   19   23 1
  41   20   21 ar
  42   20   44 1
  43   21   45 1
  44   24   25 2
  45   24   26 2
  46   24   27 1
  47   27   46 1
  48   27   47 1
  49   27   48 1

#	End of record

