#	Name: ASD01884812
#	Creating user name:	WinNT
#	Creation time:	15. 06. 2019 19:48

#	Modifying user name:	WinNT
#	Modification time:	15. 06. 2019 19:48

#	Program:	/corina/corina34_cracker 3.40 0067  02.08.2006

@<TRIPOS>MOLECULE
ASD01884812
  48   51    0    0    0
SMALL
NO_CHARGES


@<TRIPOS>ATOM
   1 C1            -0.4402     1.2691     0.2480 C.3     
   2 C2            -0.1581    -0.2333     0.1831 C.3     
   3 H3            -1.0917    -0.7842     0.2972 H       
   4 C4             0.4747    -0.5758    -1.1647 C.3     
   5 N5             1.0451    -1.9181    -1.1924 N.am    
   6 C6             1.7309    -2.4194    -0.1366 C.2     
   7 O7             2.3759    -3.4481    -0.2202 O.2     
   8 C8             1.6538    -1.6553     1.1103 C.2     
   9 C9             2.3471    -1.7632     2.2917 C.2     
  10 N10            3.3411    -2.6885     2.6143 N.am    
  11 C11            3.9242    -2.6551     3.8289 C.2     
  12 O12            3.5843    -1.8189     4.6437 O.2     
  13 C13            4.9747    -3.6329     4.1698 C.ar    
  14 C14            5.5844    -3.6110     5.4335 C.ar    
  15 C15            6.5546    -4.5372     5.7066 C.ar    
  16 C16            6.9061    -5.4674     4.7302 C.ar    
  17 N17            7.8868    -6.4060     5.0032 N.pl3   
  18 N18            6.3141    -5.4666     3.5434 N.ar    
  19 C19            5.3725    -4.5973     3.2419 C.ar    
  20 C20            1.8337    -0.7344     3.1056 C.2     
  21 N21            0.9132    -0.0985     2.4219 N.2     
  22 N22            0.7658    -0.6057     1.2615 N.pl3   
  23 C23            0.8807    -2.7062    -2.3357 C.ar    
  24 C24            0.0913    -3.8480    -2.2865 C.ar    
  25 C25           -0.0690    -4.6241    -3.4175 C.ar    
  26 C26            0.5558    -4.2659    -4.5980 C.ar    
  27 C27            1.3427    -3.1300    -4.6503 C.ar    
  28 C28            1.5018    -2.3459    -3.5246 C.ar    
  29 C29            0.3790    -5.1155    -5.8301 C.3     
  30 F30           -0.7305    -4.6639    -6.5527 F       
  31 F31            1.5243    -5.0236    -6.6282 F       
  32 F32            0.1791    -6.4478    -5.4530 F       
  33 H33            0.4938     1.8193     0.1338 H       
  34 H34           -1.1250     1.5451    -0.5538 H       
  35 H35           -0.8902     1.5130     1.2103 H       
  36 H36           -0.2871    -0.5008    -1.9407 H       
  37 H37            1.2631     0.1463    -1.3772 H       
  38 H38            3.6122    -3.3555     1.9643 H       
  39 H39            5.2950    -2.8797     6.1737 H       
  40 H40            7.0435    -4.5467     6.6696 H       
  41 H41            8.3239    -6.4129     5.8691 H       
  42 H42            8.1367    -7.0566     4.3286 H       
  43 H43            4.9074    -4.6275     2.2677 H       
  44 H44            2.1434    -0.5094     4.1154 H       
  45 H45           -0.3963    -4.1287    -1.3646 H       
  46 H46           -0.6827    -5.5120    -3.3798 H       
  47 H47            1.8296    -2.8532    -5.5738 H       
  48 H48            2.1127    -1.4563    -3.5674 H       
@<TRIPOS>BOND
   1    1    2 1
   2    1   33 1
   3    1   34 1
   4    1   35 1
   5    2    3 1
   6    2   22 1
   7    2    4 1
   8    4    5 1
   9    4   36 1
  10    4   37 1
  11    5    6 am
  12    5   23 1
  13    6    7 2
  14    6    8 1
  15    8   22 1
  16    8    9 2
  17    9   10 1
  18    9   20 1
  19   10   11 am
  20   10   38 1
  21   11   12 2
  22   11   13 1
  23   13   19 ar
  24   13   14 ar
  25   14   15 ar
  26   14   39 1
  27   15   16 ar
  28   15   40 1
  29   16   17 1
  30   16   18 ar
  31   17   41 1
  32   17   42 1
  33   18   19 ar
  34   19   43 1
  35   20   21 2
  36   20   44 1
  37   21   22 1
  38   23   28 ar
  39   23   24 ar
  40   24   25 ar
  41   24   45 1
  42   25   26 ar
  43   25   46 1
  44   26   27 ar
  45   26   29 1
  46   27   28 ar
  47   27   47 1
  48   28   48 1
  49   29   30 1
  50   29   31 1
  51   29   32 1

#	End of record

