#	Name: ASD01890442
#	Creating user name:	WinNT
#	Creation time:	15. 06. 2019 19:51

#	Modifying user name:	WinNT
#	Modification time:	15. 06. 2019 19:51

#	Program:	/corina/corina34_cracker 3.40 0067  02.08.2006

@<TRIPOS>MOLECULE
ASD01890442
  37   39    0    0    0
SMALL
NO_CHARGES


@<TRIPOS>ATOM
   1 C1            -0.8634    -0.2180    -1.0815 C.2     
   2 C2            -0.0695     0.1286     0.1516 C.3     
   3 C3             1.2898    -0.5715     0.0965 C.3     
   4 C4             2.1534    -0.1015     1.2687 C.3     
   5 O5            -0.3535    -0.8630    -1.9669 O.2     
   6 O6            -2.1388     0.1850    -1.1939 O.3     
   7 C7             1.0908    -2.0627     0.1853 C.ar    
   8 C8             1.5228    -2.8798    -0.8427 C.ar    
   9 C9             1.3406    -4.2475    -0.7618 C.ar    
  10 C10            0.7256    -4.7987     0.3482 C.ar    
  11 C11            0.2935    -3.9804     1.3767 C.ar    
  12 C12            0.4814    -2.6134     1.2972 C.ar    
  13 Cl13           0.4959    -6.5164     0.4503 Cl      
  14 C14            2.4657     1.3639     1.1068 C.2     
  15 N15            3.0289     1.8948     0.0610 N.2     
  16 C16            3.1630     3.2335     0.2446 C.ar    
  17 C17            2.6331     3.5281     1.5119 C.ar    
  18 N18            2.1944     2.3248     2.0303 N.pl3   
  19 C19            3.6875     4.2651    -0.5388 C.ar    
  20 C20            3.6801     5.5573    -0.0624 C.ar    
  21 C21            3.1553     5.8436     1.1908 C.ar    
  22 C22            2.6341     4.8367     1.9767 C.ar    
  23 Cl23           1.9796     5.2048     3.5419 Cl      
  24 Cl24           4.3325     6.8380    -1.0361 Cl      
  25 H25            0.0791     1.2075     0.1967 H       
  26 H26           -0.6122    -0.2008     1.0376 H       
  27 H27            1.7869    -0.3266    -0.8422 H       
  28 H28            1.6138    -0.2570     2.2029 H       
  29 H29            3.0826    -0.6712     1.2868 H       
  30 H30           -2.6075    -0.0614    -2.0031 H       
  31 H31            2.0025    -2.4494    -1.7093 H       
  32 H32            1.6778    -4.8858    -1.5651 H       
  33 H33           -0.1866    -4.4101     2.2435 H       
  34 H34            0.1481    -1.9749     2.1020 H       
  35 H35            1.7730     2.1901     2.8935 H       
  36 H36            4.0977     4.0497    -1.5144 H       
  37 H37            3.1555     6.8611     1.5528 H       
@<TRIPOS>BOND
   1    1    2 1
   2    1    5 2
   3    1    6 1
   4    2    3 1
   5    2   25 1
   6    2   26 1
   7    3    4 1
   8    3    7 1
   9    3   27 1
  10    4   14 1
  11    4   28 1
  12    4   29 1
  13    6   30 1
  14    7    8 ar
  15    7   12 ar
  16    8    9 ar
  17    8   31 1
  18    9   10 ar
  19    9   32 1
  20   10   11 ar
  21   10   13 1
  22   11   12 ar
  23   11   33 1
  24   12   34 1
  25   14   15 2
  26   14   18 1
  27   15   16 1
  28   16   17 ar
  29   16   19 ar
  30   17   18 1
  31   17   22 ar
  32   18   35 1
  33   19   20 ar
  34   19   36 1
  35   20   21 ar
  36   20   24 1
  37   21   22 ar
  38   21   37 1
  39   22   23 1

#	End of record

