#	Name: ASD01141044
#	Creating user name:	WinNT
#	Creation time:	15. 06. 2019 19:01

#	Modifying user name:	WinNT
#	Modification time:	15. 06. 2019 19:01

#	Program:	/corina/corina34_cracker 3.40 0067  02.08.2006

@<TRIPOS>MOLECULE
ASD01141044
  61   64    0    0    0
SMALL
NO_CHARGES


@<TRIPOS>ATOM
   1 C1            -0.0235     1.5618     0.0096 C.3     
   2 C2            -0.0199     0.0125    -0.0040 C.3     
   3 C3             1.4688     1.9641    -0.0014 C.3     
   4 C4             1.4760    -0.4156     0.0681 C.3     
   5 C5             2.0883     0.7933     0.7918 C.3     
   6 C6             1.7645     3.2690     0.6968 C.3     
   7 C7             1.8946     1.9995    -1.4666 C.3     
   8 C8             3.5760     0.8772     0.8935 C.3     
   9 C9             3.2412     3.3652     1.1049 C.3     
  10 C10            4.0952     2.2628     0.5106 C.3     
  11 C11            4.3237    -0.1765     0.0803 C.3     
  12 C12            5.5661     2.3718     0.9319 C.3     
  13 C13            5.8143    -0.0929     0.4414 C.3     
  14 C14            6.0434     1.0210     1.4577 C.3     
  15 C15            5.7369     3.4291     2.0195 C.3     
  16 C16            6.3741     2.7805    -0.3054 C.3     
  17 C17            7.5193     1.0982     1.8487 C.3     
  18 H18            5.4795     0.7807     2.3713 H       
  19 C19            7.1982     3.5134     2.4583 C.3     
  20 C20            7.6999     2.1544     2.9400 C.3     
  21 H21            8.7616     2.2314     3.1901 H       
  22 O22            6.9762     1.7630     4.1091 O.3     
  23 H23            7.0467     2.3887     4.8430 H       
  24 C24           -0.6855     2.0857    -1.1932 C.1     
  25 C25           -1.2144     2.5042    -2.1541 C.1     
  26 C26           -1.8774     3.0290    -3.3590 C.3     
  27 C27           -1.8677     4.5585    -3.3213 C.3     
  28 O28           -1.1803     2.5768    -4.5216 O.3     
  29 H29           -0.4951     1.9378     0.9115 H       
  30 H30           -0.5568    -0.3723     0.8607 H       
  31 H31           -0.4673    -0.3566    -0.9248 H       
  32 H32            1.5800    -1.3158     0.6762 H       
  33 H33            1.8952    -0.5644    -0.9173 H       
  34 H34            1.6655     0.8091     1.8196 H       
  35 H35            1.5125     4.1062     0.0336 H       
  36 H36            1.1338     3.3529     1.5928 H       
  37 H37            1.2248     2.6543    -2.0239 H       
  38 H38            2.9148     2.3762    -1.5394 H       
  39 H39            1.8484     0.9931    -1.8828 H       
  40 H40            3.8315     0.7081     1.9595 H       
  41 H41            3.6323     4.3408     0.7867 H       
  42 H42            3.3059     3.3268     2.2004 H       
  43 H43            4.1137     2.3593    -0.5800 H       
  44 H44            3.9472    -1.1685     0.3263 H       
  45 H45            4.1969     0.0157    -0.9833 H       
  46 H46            6.1195    -1.0475     0.8839 H       
  47 H47            6.4014     0.0771    -0.4569 H       
  48 H48            5.4234     4.4022     1.6338 H       
  49 H49            5.1168     3.1715     2.8802 H       
  50 H50            6.2469     2.0309    -1.0864 H       
  51 H51            6.0208     3.7460    -0.6675 H       
  52 H52            7.4292     2.8553    -0.0420 H       
  53 H53            7.8292     0.1247     2.2466 H       
  54 H54            8.1397     1.3331     0.9908 H       
  55 H55            7.8225     3.8718     1.6422 H       
  56 H56            7.2759     4.2308     3.2848 H       
  57 H57           -2.9071     2.6729    -3.3913 H       
  58 H58           -0.8380     4.9146    -3.2890 H       
  59 H59           -2.3587     4.9471    -4.2135 H       
  60 H60           -2.3994     4.9035    -2.4345 H       
  61 H61           -0.2557     2.8572    -4.5597 H       
@<TRIPOS>BOND
   1    1    2 1
   2    1    3 1
   3    1   24 1
   4    1   29 1
   5    2    4 1
   6    2   30 1
   7    2   31 1
   8    3    5 1
   9    3    6 1
  10    3    7 1
  11    4    5 1
  12    4   32 1
  13    4   33 1
  14    5    8 1
  15    5   34 1
  16    6    9 1
  17    6   35 1
  18    6   36 1
  19    7   37 1
  20    7   38 1
  21    7   39 1
  22    8   10 1
  23    8   11 1
  24    8   40 1
  25    9   10 1
  26    9   41 1
  27    9   42 1
  28   10   12 1
  29   10   43 1
  30   11   13 1
  31   11   44 1
  32   11   45 1
  33   12   14 1
  34   12   15 1
  35   12   16 1
  36   13   14 1
  37   13   46 1
  38   13   47 1
  39   14   17 1
  40   14   18 1
  41   15   19 1
  42   15   48 1
  43   15   49 1
  44   16   50 1
  45   16   51 1
  46   16   52 1
  47   17   20 1
  48   17   53 1
  49   17   54 1
  50   19   20 1
  51   19   55 1
  52   19   56 1
  53   20   21 1
  54   20   22 1
  55   22   23 1
  56   24   25 3
  57   25   26 1
  58   26   27 1
  59   26   28 1
  60   26   57 1
  61   27   58 1
  62   27   59 1
  63   27   60 1
  64   28   61 1

#	End of record

