#	Name: ASD03082372
#	Creating user name:	WinNT
#	Creation time:	15. 06. 2019 20:27

#	Modifying user name:	WinNT
#	Modification time:	15. 06. 2019 20:27

#	Program:	/corina/corina34_cracker 3.40 0067  02.08.2006

@<TRIPOS>MOLECULE
ASD03082372
  46   48    0    0    0
SMALL
NO_CHARGES


@<TRIPOS>ATOM
   1 C1            -2.3605     1.1905     1.2020 C.ar    
   2 C2            -2.3280    -0.0191     0.5197 C.ar    
   3 C3            -3.4929    -0.5281    -0.0413 C.ar    
   4 C4            -4.6782     0.1694     0.0810 C.ar    
   5 C5            -4.7068     1.3738     0.7606 C.ar    
   6 C6            -3.5496     1.8830     1.3205 C.ar    
   7 N7            -1.1269    -0.7219     0.3975 N.pl3   
   8 C8            -1.1407    -2.1162     0.2851 C.2     
   9 C9            -0.0237    -2.9348     0.0452 C.2     
  10 N10           -2.1982    -2.8864     0.3910 N.2     
  11 N11           -1.7910    -4.2154     0.2171 N.pl3   
  12 C12           -0.4488    -4.2174     0.0060 C.2     
  13 C13           -2.6188    -5.3413     0.2579 C.ar    
  14 C14           -2.2211    -6.4969     0.9271 C.ar    
  15 C15           -3.8658    -5.3347    -0.3648 C.ar    
  16 C16           -4.6530    -6.4659    -0.3011 C.ar    
  17 N17           -4.2386    -7.5433     0.3385 N.ar    
  18 C18           -3.0675    -7.5868     0.9446 C.ar    
  19 C19           -6.0034    -6.4711    -0.9700 C.3     
  20 H20           -2.7655    -8.4883     1.4569 H       
  21 C21            0.4117    -5.4318    -0.2303 C.3     
  22 C22            1.0563    -5.8507     1.0659 C.2     
  23 N23            1.8749    -6.9209     1.0964 N.am    
  24 O24            0.8384    -5.2247     2.0815 O.2     
  25 C25            2.5015    -7.3281     2.3564 C.3     
  26 C26           -3.5859     3.1953     2.0605 C.3     
  27 F27           -4.8895     3.7028     2.0463 F       
  28 F28           -3.1773     2.9961     3.3836 F       
  29 F29           -2.7244     4.1054     1.4384 F       
  30 H30           -1.4578     1.5869     1.6430 H       
  31 H31           -3.4711    -1.4681    -0.5727 H       
  32 H32           -5.5840    -0.2256    -0.3547 H       
  33 H33           -5.6352     1.9176     0.8542 H       
  34 H34           -0.2834    -0.2431     0.3906 H       
  35 H35            0.9943    -2.5984    -0.0851 H       
  36 H36           -1.2636    -6.5392     1.4250 H       
  37 H37           -4.2110    -4.4562    -0.8897 H       
  38 H38           -5.8988    -6.8206    -1.9972 H       
  39 H39           -6.6753    -7.1356    -0.4268 H       
  40 H40           -6.4129    -5.4610    -0.9698 H       
  41 H41           -0.2057    -6.2464    -0.6090 H       
  42 H42            1.1852    -5.1926    -0.9601 H       
  43 H43            2.0491    -7.4216     0.2840 H       
  44 H44            1.7280    -7.5673     3.0862 H       
  45 H45            3.1239    -8.2065     2.1855 H       
  46 H46            3.1189    -6.5135     2.7351 H       
@<TRIPOS>BOND
   1    1    2 ar
   2    1    6 ar
   3    1   30 1
   4    2    3 ar
   5    2    7 1
   6    3    4 ar
   7    3   31 1
   8    4    5 ar
   9    4   32 1
  10    5    6 ar
  11    5   33 1
  12    6   26 1
  13    7    8 1
  14    7   34 1
  15    8    9 1
  16    8   10 2
  17    9   12 2
  18    9   35 1
  19   10   11 1
  20   11   12 1
  21   11   13 1
  22   12   21 1
  23   13   14 ar
  24   13   15 ar
  25   14   18 ar
  26   14   36 1
  27   15   16 ar
  28   15   37 1
  29   16   17 ar
  30   16   19 1
  31   17   18 ar
  32   18   20 1
  33   19   38 1
  34   19   39 1
  35   19   40 1
  36   21   22 1
  37   21   41 1
  38   21   42 1
  39   22   23 am
  40   22   24 2
  41   23   25 1
  42   23   43 1
  43   25   44 1
  44   25   45 1
  45   25   46 1
  46   26   27 1
  47   26   28 1
  48   26   29 1

#	End of record

