#	Name: ASD01940021
#	Creating user name:	WinNT
#	Creation time:	15. 06. 2019 20:11

#	Modifying user name:	WinNT
#	Modification time:	15. 06. 2019 20:11

#	Program:	/corina/corina34_cracker 3.40 0067  02.08.2006

@<TRIPOS>MOLECULE
ASD01940021
  50   52    0    0    0
SMALL
NO_CHARGES


@<TRIPOS>ATOM
   1 C1             0.1272     1.3820     0.1180 C.ar    
   2 C2             0.0733     0.1539    -0.5278 C.ar    
   3 C3            -1.0941    -0.5847    -0.5120 C.ar    
   4 C4            -2.2127    -0.1008     0.1488 C.ar    
   5 C5            -2.1605     1.1279     0.7961 C.ar    
   6 C6            -0.9913     1.8650     0.7854 C.ar    
   7 N7             1.3096     2.1301     0.1015 N.pl3   
   8 C8             1.2535     3.5114     0.0512 C.2     
   9 C9             2.3145     4.4003     0.1494 C.2     
  10 C10            1.9316     5.7396     0.0607 C.2     
  11 N11            0.6652     5.9781    -0.0983 N.2     
  12 S12           -0.1452     4.4910    -0.1540 S.3     
  13 O13            2.8407     6.7459     0.1375 O.3     
  14 C14            3.7109     3.9716     0.3305 C.2     
  15 N15            4.2233     3.8092     1.6009 N.pl3   
  16 N16            4.4654     3.7450    -0.7123 N.2     
  17 C17            5.6131     3.3825     1.7811 C.3     
  18 C18            6.5329     4.6039     1.7250 C.3     
  19 C19            5.7630     2.6932     3.1387 C.3     
  20 O20            5.5193     3.6384     4.1824 O.3     
  21 O21           -3.3616    -0.8286     0.1633 O.3     
  22 C22           -4.3429    -0.4893    -0.7136 C.ar    
  23 C23           -5.5753    -1.1264    -0.6589 C.ar    
  24 C24           -6.5716    -0.7786    -1.5521 C.ar    
  25 C25           -6.3409     0.2020    -2.4990 C.ar    
  26 C26           -5.1141     0.8376    -2.5552 C.ar    
  27 C27           -4.1169     0.4982    -1.6615 C.ar    
  28 Cl28          -5.8648    -2.3585     0.5293 Cl      
  29 F29           -3.2506     1.5992     1.4401 F       
  30 C30           -7.9098    -1.4692    -1.4939 C.3     
  31 F31           -8.7456    -0.9512    -2.4890 F       
  32 F32           -7.7354    -2.8420    -1.6993 F       
  33 F33           -8.4906    -1.2555    -0.2392 F       
  34 H34            0.9442    -0.2238    -1.0429 H       
  35 H35           -1.1355    -1.5394    -1.0152 H       
  36 H36           -0.9500     2.8200     1.2882 H       
  37 H37            2.1686     1.6802     0.1254 H       
  38 H38            3.2090     7.0092    -0.7170 H       
  39 H39            3.6633     3.9774     2.3748 H       
  40 H40            5.3856     3.4625    -0.5930 H       
  41 H41            5.8852     2.6861     0.9880 H       
  42 H42            6.2609     5.3004     2.5181 H       
  43 H43            7.5670     4.2865     1.8591 H       
  44 H44            6.4261     5.0951     0.7578 H       
  45 H45            5.0447     1.8767     3.2130 H       
  46 H46            6.7740     2.2975     3.2357 H       
  47 H47            5.5973     3.2698     5.0730 H       
  48 H48           -7.1202     0.4718    -3.1964 H       
  49 H49           -4.9368     1.6033    -3.2960 H       
  50 H50           -3.1592     0.9955    -1.7060 H       
@<TRIPOS>BOND
   1    1    2 ar
   2    1    7 1
   3    1    6 ar
   4    2    3 ar
   5    2   34 1
   6    3    4 ar
   7    3   35 1
   8    4    5 ar
   9    4   21 1
  10    5    6 ar
  11    5   29 1
  12    6   36 1
  13    7    8 1
  14    7   37 1
  15    8    9 2
  16    8   12 1
  17    9   10 1
  18    9   14 1
  19   10   11 2
  20   10   13 1
  21   11   12 1
  22   13   38 1
  23   14   15 1
  24   14   16 2
  25   15   17 1
  26   15   39 1
  27   16   40 1
  28   17   18 1
  29   17   19 1
  30   17   41 1
  31   18   42 1
  32   18   43 1
  33   18   44 1
  34   19   20 1
  35   19   45 1
  36   19   46 1
  37   20   47 1
  38   21   22 1
  39   22   23 ar
  40   22   27 ar
  41   23   24 ar
  42   23   28 1
  43   24   25 ar
  44   24   30 1
  45   25   26 ar
  46   25   48 1
  47   26   27 ar
  48   26   49 1
  49   27   50 1
  50   30   31 1
  51   30   32 1
  52   30   33 1

#	End of record

