#	Name: ASD01410176
#	Creating user name:	WinNT
#	Creation time:	15. 06. 2019 19:16

#	Modifying user name:	WinNT
#	Modification time:	15. 06. 2019 19:16

#	Program:	/corina/corina34_cracker 3.40 0067  02.08.2006

@<TRIPOS>MOLECULE
ASD01410176
  45   48    0    0    0
SMALL
NO_CHARGES


@<TRIPOS>ATOM
   1 C1           -10.0409    -3.4013     0.1960 C.ar    
   2 C2            -8.9731    -4.2895     0.1579 C.ar    
   3 C3            -7.6764    -3.8091     0.1145 C.ar    
   4 C4            -7.4499    -2.4269     0.1093 C.ar    
   5 C5            -8.5294    -1.5289     0.1478 C.ar    
   6 C6            -9.8228    -2.0315     0.1853 C.ar    
   7 C7            -6.2283    -1.6073     0.0696 C.2     
   8 C8            -6.7129    -0.2205     0.0890 C.2     
   9 O9            -8.0651    -0.2601     0.1347 O.3     
  10 O10           -5.0720    -1.9931     0.0297 O.2     
  11 C11           -5.9419     0.9009     0.0648 C.2     
  12 C12           -6.5504     2.1773    -0.0310 C.2     
  13 O13          -11.3108    -3.8789     0.2384 O.3     
  14 O14           -6.6301    -4.6721     0.0777 O.3     
  15 C15           -7.8829     2.4077    -0.2162 C.2     
  16 N16           -5.8909     3.3885     0.0542 N.pl3   
  17 C17           -6.8105     4.4044    -0.0834 C.ar    
  18 C18           -8.0760     3.8085    -0.2555 C.ar    
  19 C19           -6.7032     5.7913    -0.0779 C.ar    
  20 C20           -7.8299     6.5665    -0.2432 C.ar    
  21 C21           -9.0760     5.9772    -0.4160 C.ar    
  22 C22           -9.2076     4.6190    -0.4203 C.ar    
  23 C23           -4.4506     3.5632     0.2574 C.3     
  24 C24           -3.7329     3.4922    -1.0919 C.3     
  25 C25           -2.2204     3.5503    -0.8687 C.3     
  26 C26           -1.5069     3.6042    -2.2211 C.3     
  27 H27           -9.1552    -5.3540     0.1625 H       
  28 H28          -10.6626    -1.3531     0.2151 H       
  29 H29           -4.8664     0.8180     0.1185 H       
  30 H30          -11.6487    -4.0189     1.1336 H       
  31 H31           -6.3568    -4.9210    -0.8159 H       
  32 H32           -8.6516     1.6557    -0.3153 H       
  33 H33           -5.7390     6.2592     0.0561 H       
  34 H34           -7.7437     7.6431    -0.2382 H       
  35 H35           -9.9492     6.5998    -0.5443 H       
  36 H36          -10.1804     4.1696    -0.5556 H       
  37 H37           -4.2637     4.5334     0.7178 H       
  38 H38           -4.0773     2.7736     0.9096 H       
  39 H39           -3.9908     2.5586    -1.5919 H       
  40 H40           -4.0412     4.3338    -1.7122 H       
  41 H41           -1.9722     4.4408    -0.2912 H       
  42 H42           -1.8992     2.6627    -0.3236 H       
  43 H43           -0.4294     3.6456    -2.0620 H       
  44 H44           -1.7551     2.7136    -2.7985 H       
  45 H45           -1.8281     4.4918    -2.7661 H       
@<TRIPOS>BOND
   1    1    2 ar
   2    1   13 1
   3    1    6 ar
   4    2    3 ar
   5    2   27 1
   6    3    4 ar
   7    3   14 1
   8    4    5 ar
   9    4    7 1
  10    5    6 ar
  11    5    9 1
  12    6   28 1
  13    7    8 1
  14    7   10 2
  15    8    9 1
  16    8   11 2
  17   11   12 1
  18   11   29 1
  19   12   16 1
  20   12   15 2
  21   13   30 1
  22   14   31 1
  23   15   18 1
  24   15   32 1
  25   16   17 1
  26   16   23 1
  27   17   18 ar
  28   17   19 ar
  29   18   22 ar
  30   19   20 ar
  31   19   33 1
  32   20   21 ar
  33   20   34 1
  34   21   22 ar
  35   21   35 1
  36   22   36 1
  37   23   24 1
  38   23   37 1
  39   23   38 1
  40   24   25 1
  41   24   39 1
  42   24   40 1
  43   25   26 1
  44   25   41 1
  45   25   42 1
  46   26   43 1
  47   26   44 1
  48   26   45 1

#	End of record

