#	Name: ASD04882004
#	Creating user name:	WinNT
#	Creation time:	15. 06. 2019 20:53

#	Modifying user name:	WinNT
#	Modification time:	15. 06. 2019 20:53

#	Program:	/corina/corina34_cracker 3.40 0067  02.08.2006

@<TRIPOS>MOLECULE
ASD04882004
  77   82    0    0    0
SMALL
NO_CHARGES


@<TRIPOS>ATOM
   1 C1            -0.3876     2.8248     0.8471 C.ar    
   2 C2            -0.5542     1.4514     0.8163 C.ar    
   3 C3             0.5427     0.6172     0.6899 C.ar    
   4 C4             1.8111     1.1501     0.5937 C.ar    
   5 C5             1.9871     2.5360     0.6241 C.ar    
   6 C6             0.8747     3.3721     0.7519 C.ar    
   7 C7             3.3010     3.0968     0.5252 C.1     
   8 C8             4.3782     3.5565     0.4441 C.1     
   9 C9             5.6921     4.1172     0.3452 C.ar    
  10 C10            5.8681     5.5031     0.3755 C.ar    
  11 C11            7.1367     6.0360     0.2802 C.ar    
  12 C12            8.2336     5.2018     0.1548 C.ar    
  13 C13            8.0670     3.8284     0.1240 C.ar    
  14 C14            6.8050     3.2810     0.2236 C.ar    
  15 C15            9.6163     5.7919     0.0507 C.3     
  16 S16           10.0760     6.0623    -1.7072 S.3     
  17 C17           11.8158     5.5172    -1.4755 C.3     
  18 C18           11.7246     4.6788    -0.2162 C.2     
  19 N19           10.6274     4.8312     0.5157 N.am    
  20 O20           12.6062     3.9106     0.1057 O.2     
  21 C21           12.2836     4.6703    -2.6608 C.3     
  22 C22           12.3458     5.5287    -3.8979 C.2     
  23 N23           12.7352     4.9923    -5.0714 N.am    
  24 O24           12.0456     6.7022    -3.8375 O.2     
  25 C25           12.7957     5.8267    -6.2740 C.3     
  26 C26           13.2635     4.9799    -7.4593 C.3     
  27 C27           13.3258     5.8382    -8.6964 C.2     
  28 C28           10.4393     4.1000     1.6942 C.ar    
  29 C29           10.4935     2.7154     1.6667 C.ar    
  30 C30           10.3054     1.9912     2.8440 C.ar    
  31 C31           10.0638     2.6658     4.0418 C.ar    
  32 C32           10.0117     4.0450     4.0585 C.ar    
  33 C33           10.2037     4.7626     2.8930 C.ar    
  34 C34           10.3612     0.5138     2.8230 C.2     
  35 N35           10.1791    -0.1837     3.9618 N.am    
  36 O36           10.5714    -0.0717     1.7787 O.2     
  37 C37           12.3666     5.9695    -9.6263 C.2     
  38 N38           12.7796     6.8335   -10.6037 N.pl3   
  39 C39           14.0468     7.2908   -10.3193 C.ar    
  40 C40           14.4420     6.6925    -9.1091 C.ar    
  41 C41           14.9163     8.1656   -10.9629 C.ar    
  42 C42           16.1515     8.4300   -10.4136 C.ar    
  43 C43           16.5393     7.8321    -9.2222 C.ar    
  44 C44           15.6983     6.9757    -8.5695 C.ar    
  45 C45           17.8958     8.1360    -8.6402 C.3     
  46 H46           -1.2487     3.4699     0.9415 H       
  47 H47           -1.5451     1.0285     0.8916 H       
  48 H48            0.4051    -0.4537     0.6669 H       
  49 H49            2.6663     0.4979     0.4954 H       
  50 H50            1.0032     4.4441     0.7757 H       
  51 H51            5.0129     6.1554     0.4731 H       
  52 H52            7.2742     7.1069     0.3032 H       
  53 H53            8.9277     3.1834     0.0258 H       
  54 H54            6.6765     2.2089     0.1993 H       
  55 H55            9.6793     6.7236     0.6129 H       
  56 H56           12.4737     6.3730    -1.3251 H       
  57 H57           13.2732     4.2650    -2.4497 H       
  58 H58           11.5823     3.8515    -2.8216 H       
  59 H59           12.9753     4.0537    -5.1197 H       
  60 H60           11.8061     6.2320    -6.4852 H       
  61 H61           13.4970     6.6455    -6.1132 H       
  62 H62           14.2531     4.5746    -7.2482 H       
  63 H63           12.5623     4.1611    -7.6201 H       
  64 H64           10.6805     2.1988     0.7369 H       
  65 H65            9.9172     2.1087     4.9553 H       
  66 H66            9.8246     4.5652     4.9863 H       
  67 H67           10.1622     5.8416     2.9124 H       
  68 H68           10.0114     0.2835     4.7952 H       
  69 H69           10.2158    -1.1529     3.9480 H       
  70 H70           11.4107     5.4672    -9.6063 H       
  71 H71           12.2575     7.0860   -11.3812 H       
  72 H72           14.6239     8.6355   -11.8903 H       
  73 H73           16.8252     9.1091   -10.9150 H       
  74 H74           16.0068     6.5142    -7.6431 H       
  75 H75           17.8211     8.9958    -7.9744 H       
  76 H76           18.2524     7.2721    -8.0794 H       
  77 H77           18.5949     8.3600    -9.4459 H       
@<TRIPOS>BOND
   1    1    2 ar
   2    1    6 ar
   3    1   46 1
   4    2    3 ar
   5    2   47 1
   6    3    4 ar
   7    3   48 1
   8    4    5 ar
   9    4   49 1
  10    5    6 ar
  11    5    7 1
  12    6   50 1
  13    7    8 3
  14    8    9 1
  15    9   10 ar
  16    9   14 ar
  17   10   11 ar
  18   10   51 1
  19   11   12 ar
  20   11   52 1
  21   12   13 ar
  22   12   15 1
  23   13   14 ar
  24   13   53 1
  25   14   54 1
  26   15   16 1
  27   15   19 1
  28   15   55 1
  29   16   17 1
  30   17   18 1
  31   17   21 1
  32   17   56 1
  33   18   19 am
  34   18   20 2
  35   19   28 1
  36   21   22 1
  37   21   57 1
  38   21   58 1
  39   22   23 am
  40   22   24 2
  41   23   25 1
  42   23   59 1
  43   25   26 1
  44   25   60 1
  45   25   61 1
  46   26   27 1
  47   26   62 1
  48   26   63 1
  49   27   37 2
  50   27   40 1
  51   28   29 ar
  52   28   33 ar
  53   29   30 ar
  54   29   64 1
  55   30   31 ar
  56   30   34 1
  57   31   32 ar
  58   31   65 1
  59   32   33 ar
  60   32   66 1
  61   33   67 1
  62   34   35 am
  63   34   36 2
  64   35   68 1
  65   35   69 1
  66   37   38 1
  67   37   70 1
  68   38   39 1
  69   38   71 1
  70   39   40 ar
  71   39   41 ar
  72   40   44 ar
  73   41   42 ar
  74   41   72 1
  75   42   43 ar
  76   42   73 1
  77   43   44 ar
  78   43   45 1
  79   44   74 1
  80   45   75 1
  81   45   76 1
  82   45   77 1

#	End of record

