#	Name: ASD01530063
#	Creating user name:	WinNT
#	Creation time:	15. 06. 2019 19:22

#	Modifying user name:	WinNT
#	Modification time:	15. 06. 2019 19:22

#	Program:	/corina/corina34_cracker 3.40 0067  02.08.2006

@<TRIPOS>MOLECULE
ASD01530063
  68   73    0    0    0
SMALL
NO_CHARGES


@<TRIPOS>ATOM
   1 C1             8.3165     6.2374    -0.7832 C.ar    
   2 C2             9.5289     5.6283    -0.5497 C.ar    
   3 C3             9.5874     4.3613     0.0176 C.ar    
   4 C4             8.4441     3.6971     0.3539 C.ar    
   5 C5             7.1358     5.5800    -0.4482 C.ar    
   6 N6             5.8076     5.9180    -0.5564 N.pl3   
   7 C7             7.1979     4.2957     0.1267 C.ar    
   8 C8             5.8637     3.8817     0.3575 C.2     
   9 C9             5.0424     4.8786    -0.0638 C.2     
  10 C10            3.5732     4.8551    -0.0048 C.2     
  11 N11            2.8848     6.0082     0.1099 N.am    
  12 O12            2.9792     3.7950    -0.0595 O.2     
  13 C13            0.9980     7.0001    -1.0770 C.3     
  14 C14            1.4179     6.0155     0.0215 C.3     
  15 C15            3.5874     7.2798     0.3317 C.3     
  16 C16            3.1721     8.2671    -0.7661 C.3     
  17 N17            1.7055     8.2752    -0.8601 N.am    
  18 C18            1.0192     9.4294    -0.7444 C.2     
  19 O19           -0.1913     9.4252    -0.8186 O.2     
  20 C20            1.7561    10.7252    -0.5230 C.3     
  21 C21            0.7501    11.8740    -0.4275 C.3     
  22 C22            1.4982    13.1896    -0.2026 C.3     
  23 C23            0.5073    14.3211    -0.1086 C.2     
  24 N24            0.9409    15.5818     0.0897 N.am    
  25 O25           -0.6802    14.0974    -0.2113 O.2     
  26 C26           -0.0102    16.7029     0.1909 C.3     
  27 C27            2.3762    15.8765     0.2171 C.3     
  28 C28            2.8123    16.7609    -0.9562 C.3     
  29 C29            0.5431    17.8406    -0.6321 C.2     
  30 C30           -0.1101    19.0703    -1.0267 C.ar    
  31 C31            1.8007    17.8670    -1.1417 C.2     
  32 N32            1.9939    19.0359    -1.8323 N.pl3   
  33 C33            0.8460    19.7941    -1.7848 C.ar    
  34 C34           -1.3908    19.5817    -0.7951 C.ar    
  35 C35            0.5290    21.0408    -2.3205 C.ar    
  36 C36           -0.7452    21.5227    -2.0760 C.ar    
  37 C37           -1.6749    20.8117    -1.3349 C.ar    
  38 H38            8.2816     7.2241    -1.2209 H       
  39 H39           10.4434     6.1401    -0.8104 H       
  40 H40           10.5469     3.8978     0.1936 H       
  41 H41            8.4995     2.7122     0.7937 H       
  42 H42            5.4642     6.7498    -0.9186 H       
  43 H43            5.5543     2.9414     0.7895 H       
  44 H44            1.2660     6.5954    -2.0529 H       
  45 H45           -0.0785     7.1641    -1.0292 H       
  46 H46            1.0614     5.0160    -0.2275 H       
  47 H47            0.9954     6.3301     0.9757 H       
  48 H48            3.3159     7.6824     1.3076 H       
  49 H49            4.6640     7.1155     0.2877 H       
  50 H50            3.5280     9.2659    -0.5135 H       
  51 H51            3.5981     7.9545    -1.7194 H       
  52 H52            2.3274    10.6646     0.4034 H       
  53 H53            2.4344    10.9046    -1.3571 H       
  54 H54            0.1788    11.9346    -1.3538 H       
  55 H55            0.0718    11.6946     0.4066 H       
  56 H56            2.0695    13.1290     0.7237 H       
  57 H57            2.1765    13.3690    -1.0368 H       
  58 H58           -0.9817    16.4010    -0.2004 H       
  59 H59           -0.1088    17.0122     1.2314 H       
  60 H60            2.5589    16.3998     1.1556 H       
  61 H61            2.9422    14.9451     0.2016 H       
  62 H62            3.7901    17.1929    -0.7435 H       
  63 H63            2.8671    16.1609    -1.8646 H       
  64 H64            2.8154    19.2882    -2.2822 H       
  65 H65           -2.1221    19.0349    -0.2183 H       
  66 H66            1.2449    21.6052    -2.8995 H       
  67 H67           -1.0242    22.4860    -2.4767 H       
  68 H68           -2.6543    21.2386    -1.1767 H       
@<TRIPOS>BOND
   1    1    2 ar
   2    1    5 ar
   3    1   38 1
   4    2    3 ar
   5    2   39 1
   6    3    4 ar
   7    3   40 1
   8    4    7 ar
   9    4   41 1
  10    5    7 ar
  11    5    6 1
  12    6    9 1
  13    6   42 1
  14    7    8 1
  15    8    9 2
  16    8   43 1
  17    9   10 1
  18   10   11 am
  19   10   12 2
  20   11   15 1
  21   11   14 1
  22   13   14 1
  23   13   17 1
  24   13   44 1
  25   13   45 1
  26   14   46 1
  27   14   47 1
  28   15   16 1
  29   15   48 1
  30   15   49 1
  31   16   17 1
  32   16   50 1
  33   16   51 1
  34   17   18 am
  35   18   19 2
  36   18   20 1
  37   20   21 1
  38   20   52 1
  39   20   53 1
  40   21   22 1
  41   21   54 1
  42   21   55 1
  43   22   23 1
  44   22   56 1
  45   22   57 1
  46   23   24 am
  47   23   25 2
  48   24   27 1
  49   24   26 1
  50   26   29 1
  51   26   58 1
  52   26   59 1
  53   27   28 1
  54   27   60 1
  55   27   61 1
  56   28   31 1
  57   28   62 1
  58   28   63 1
  59   29   31 2
  60   29   30 1
  61   30   33 ar
  62   30   34 ar
  63   31   32 1
  64   32   33 1
  65   32   64 1
  66   33   35 ar
  67   34   37 ar
  68   34   65 1
  69   35   36 ar
  70   35   66 1
  71   36   37 ar
  72   36   67 1
  73   37   68 1

#	End of record

