#	Name: ASD03092270
#	Creating user name:	WinNT
#	Creation time:	15. 06. 2019 20:32

#	Modifying user name:	WinNT
#	Modification time:	15. 06. 2019 20:32

#	Program:	/corina/corina34_cracker 3.40 0067  02.08.2006

@<TRIPOS>MOLECULE
ASD03092270
  38   40    0    0    0
SMALL
NO_CHARGES


@<TRIPOS>ATOM
   1 C1            -0.0167     1.3789     0.0096 C.ar    
   2 C2             0.0021    -0.0041     0.0020 C.ar    
   3 N3             1.1413    -0.6698    -0.0124 N.ar    
   4 C4             2.3057    -0.0554    -0.0203 C.ar    
   5 C5             2.3727     1.3386    -0.0134 C.ar    
   6 C6             1.1808     2.0726     0.0019 C.ar    
   7 C7             3.6803     2.0284    -0.0217 C.2     
   8 N8             4.8208     1.3105    -0.0360 N.am    
   9 O9             3.7267     3.2430    -0.0156 O.2     
  10 C10           -1.2998    -0.7630     0.0109 C.3     
  11 F11           -1.7158    -0.9908    -1.3053 F       
  12 F12           -1.1210    -1.9882     0.6621 F       
  13 F13           -2.2713    -0.0146     0.6841 F       
  14 C14            6.1166     1.9940    -0.0442 C.3     
  15 C15            7.2237     0.9717    -0.0598 C.ar    
  16 C16            7.7138     0.5155    -1.2641 C.ar    
  17 C17            7.7433     0.5035     1.1389 C.ar    
  18 C18            8.7478    -0.4231     1.1453 C.ar    
  19 C19            9.2556    -0.9029    -0.0632 C.ar    
  20 C20            8.7358    -0.4276    -1.2812 C.ar    
  21 C21           10.2990    -1.8682    -0.4177 C.2     
  22 C22           10.3444    -1.9224    -1.7581 C.2     
  23 N23            9.4182    -1.0679    -2.2914 N.pl3   
  24 C24           11.2805    -2.7918    -2.5575 C.3     
  25 F25           12.4639    -2.0908    -2.8133 F       
  26 F26           11.5731    -3.9518    -1.8323 F       
  27 F27           10.6735    -3.1398    -3.7690 F       
  28 H28           -0.9560     1.9118     0.0170 H       
  29 H29            3.2169    -0.6351    -0.0317 H       
  30 H30            1.1954     3.1525     0.0072 H       
  31 H31            4.7838     0.3412    -0.0408 H       
  32 H32            6.1900     2.6228    -0.9316 H       
  33 H33            6.2064     2.6132     0.8483 H       
  34 H34            7.3053     0.8887    -2.1916 H       
  35 H35            7.3510     0.8747     2.0742 H       
  36 H36            9.1475    -0.7826     2.0820 H       
  37 H37           10.9152    -2.4293     0.2692 H       
  38 H38            9.2643    -0.9341    -3.2397 H       
@<TRIPOS>BOND
   1    1    2 ar
   2    1    6 ar
   3    1   28 1
   4    2    3 ar
   5    2   10 1
   6    3    4 ar
   7    4    5 ar
   8    4   29 1
   9    5    6 ar
  10    5    7 1
  11    6   30 1
  12    7    8 am
  13    7    9 2
  14    8   14 1
  15    8   31 1
  16   10   11 1
  17   10   12 1
  18   10   13 1
  19   14   15 1
  20   14   32 1
  21   14   33 1
  22   15   16 ar
  23   15   17 ar
  24   16   20 ar
  25   16   34 1
  26   17   18 ar
  27   17   35 1
  28   18   19 ar
  29   18   36 1
  30   19   20 ar
  31   19   21 1
  32   20   23 1
  33   21   22 2
  34   21   37 1
  35   22   23 1
  36   22   24 1
  37   23   38 1
  38   24   25 1
  39   24   26 1
  40   24   27 1

#	End of record

