#	Name: ASD01881598
#	Creating user name:	WinNT
#	Creation time:	15. 06. 2019 19:43

#	Modifying user name:	WinNT
#	Modification time:	15. 06. 2019 19:43

#	Program:	/corina/corina34_cracker 3.40 0067  02.08.2006

@<TRIPOS>MOLECULE
ASD01881598
  62   65    0    0    0
SMALL
NO_CHARGES


@<TRIPOS>ATOM
   1 C1             1.0043    -0.4326     1.2703 C.3     
   2 C2             0.0817    -0.1397     0.0854 C.3     
   3 C3            -1.1711    -1.0121     0.1866 C.3     
   4 O4            -0.2948     1.2386     0.1043 O.3     
   5 C5             0.2617    -1.3236    -2.1173 C.ar    
   6 C6             0.8042    -0.4455    -1.2013 C.ar    
   7 C7             2.0332     0.1562    -1.4847 C.ar    
   8 C8             2.6611    -0.1616    -2.6925 C.ar    
   9 C9             2.0485    -1.0501    -3.5518 C.ar    
  10 N10            0.8872    -1.5965    -3.2462 N.ar    
  11 C11            2.6544     1.1069    -0.5299 C.ar    
  12 C12            3.9178     0.8442    -0.0035 C.ar    
  13 C13            4.4908     1.7319     0.8842 C.ar    
  14 C14            3.8132     2.8806     1.2521 C.ar    
  15 C15            2.5591     3.1461     0.7332 C.ar    
  16 C16            1.9792     2.2684    -0.1607 C.ar    
  17 C17            5.8569     1.4492     1.4543 C.3     
  18 O18            6.8546     2.0223     0.6068 O.3     
  19 N19           12.1543     1.4996     1.8889 N.pl3   
  20 N20           12.6511     2.2058     0.7834 N.2     
  21 N21           11.6695     2.6053     0.0543 N.2     
  22 C22           10.4969     2.2146     0.5922 C.ar    
  23 C23           10.7831     1.5033     1.7704 C.ar    
  24 C24            9.1610     2.3870     0.2042 C.ar    
  25 C25            8.1515     1.8570     0.9809 C.ar    
  26 C26            8.4509     1.1543     2.1455 C.ar    
  27 C27            9.7483     0.9795     2.5370 C.ar    
  28 C28           12.9404     0.8756     2.9561 C.3     
  29 C29           13.1577     1.8842     4.0859 C.3     
  30 C30           11.8029     2.3264     4.6424 C.3     
  31 C31           13.9787     1.2325     5.2004 C.3     
  32 C32           13.9089     3.1022     3.5447 C.3     
  33 Br33           8.7450     3.3398    -1.3753 Br      
  34 H34            1.2283    -1.4989     1.3014 H       
  35 H35            1.9309     0.1302     1.1572 H       
  36 H36            0.5109    -0.1379     2.1965 H       
  37 H37           -1.6936    -0.7910     1.1173 H       
  38 H38           -1.8283    -0.8035    -0.6575 H       
  39 H39           -0.8838    -2.0635     0.1722 H       
  40 H40           -0.8812     1.4961    -0.6203 H       
  41 H41           -0.6856    -1.7970    -1.9051 H       
  42 H42            3.6117     0.2822    -2.9493 H       
  43 H43            2.5258    -1.3015    -4.4875 H       
  44 H44            4.4473    -0.0526    -0.2895 H       
  45 H45            4.2653     3.5724     1.9474 H       
  46 H46            2.0343     4.0440     1.0244 H       
  47 H47            1.0018     2.4791    -0.5690 H       
  48 H48            5.9322     1.8852     2.4504 H       
  49 H49            6.0086     0.3717     1.5169 H       
  50 H50            7.6510     0.7449     2.7446 H       
  51 H51            9.9701     0.4333     3.4419 H       
  52 H52           12.4052     0.0078     3.3416 H       
  53 H53           13.9056     0.5606     2.5596 H       
  54 H54           11.2677     1.4586     5.0279 H       
  55 H55           11.9577     3.0449     5.4473 H       
  56 H56           11.2180     2.7907     3.8484 H       
  57 H57           14.9440     0.9174     4.8039 H       
  58 H58           14.1336     1.9510     6.0053 H       
  59 H59           13.4436     0.3647     5.5859 H       
  60 H60           13.3240     3.5665     2.7507 H       
  61 H61           14.0637     3.8208     4.3495 H       
  62 H62           14.8741     2.7872     3.1482 H       
@<TRIPOS>BOND
   1    1    2 1
   2    1   34 1
   3    1   35 1
   4    1   36 1
   5    2    3 1
   6    2    4 1
   7    2    6 1
   8    3   37 1
   9    3   38 1
  10    3   39 1
  11    4   40 1
  12    5    6 ar
  13    5   10 ar
  14    5   41 1
  15    6    7 ar
  16    7    8 ar
  17    7   11 1
  18    8    9 ar
  19    8   42 1
  20    9   10 ar
  21    9   43 1
  22   11   12 ar
  23   11   16 ar
  24   12   13 ar
  25   12   44 1
  26   13   14 ar
  27   13   17 1
  28   14   15 ar
  29   14   45 1
  30   15   16 ar
  31   15   46 1
  32   16   47 1
  33   17   18 1
  34   17   48 1
  35   17   49 1
  36   18   25 1
  37   19   20 1
  38   19   23 1
  39   19   28 1
  40   20   21 2
  41   21   22 1
  42   22   23 ar
  43   22   24 ar
  44   23   27 ar
  45   24   25 ar
  46   24   33 1
  47   25   26 ar
  48   26   27 ar
  49   26   50 1
  50   27   51 1
  51   28   29 1
  52   28   52 1
  53   28   53 1
  54   29   30 1
  55   29   31 1
  56   29   32 1
  57   30   54 1
  58   30   55 1
  59   30   56 1
  60   31   57 1
  61   31   58 1
  62   31   59 1
  63   32   60 1
  64   32   61 1
  65   32   62 1

#	End of record

