#	Name: ASD04230123
#	Creating user name:	WinNT
#	Creation time:	15. 06. 2019 20:48

#	Modifying user name:	WinNT
#	Modification time:	15. 06. 2019 20:48

#	Program:	/corina/corina34_cracker 3.40 0067  02.08.2006

@<TRIPOS>MOLECULE
ASD04230123
  45   48    0    0    0
SMALL
NO_CHARGES


@<TRIPOS>ATOM
   1 C1            -0.0201     1.3790     0.0494 C.ar    
   2 C2            -0.0003    -0.0082     0.0381 C.ar    
   3 C3             1.1849    -0.6862     0.0293 C.ar    
   4 C4             2.3957     0.0212     0.0422 C.ar    
   5 C5             2.3815     1.4276     0.0205 C.ar    
   6 C6             1.1610     2.0997     0.0379 C.ar    
   7 C7             3.6343    -0.6710     0.0720 C.2     
   8 C8             4.7887     0.0708     0.2852 C.2     
   9 C9             4.6293     1.5213     0.4957 C.2     
  10 O10            3.5429     2.1221    -0.0390 O.3     
  11 C11            6.1166    -0.5650     0.3009 C.2     
  12 N12            7.2188     0.1818     0.5104 N.am    
  13 O13            6.2189    -1.7642     0.1248 O.2     
  14 C14            8.4677    -0.4350     0.6376 C.ar    
  15 C15            9.6061     0.1931     0.1477 C.ar    
  16 C16           10.8419    -0.4134     0.2716 C.ar    
  17 C17           10.9522    -1.6463     0.8827 C.ar    
  18 C18            9.8153    -2.2838     1.3771 C.ar    
  19 C19            8.5709    -1.6713     1.2579 C.ar    
  20 C20            9.9320    -3.6095     2.0333 C.ar    
  21 O21            5.4495     2.1572     1.1309 O.2     
  22 C22            8.8023    -4.2533     2.5298 C.ar    
  23 N23            8.9017    -5.4308     3.1138 N.ar    
  24 C24           10.0657    -6.0442     3.2510 C.ar    
  25 C25           11.2380    -5.4643     2.7801 C.ar    
  26 C26           11.1785    -4.2330     2.1566 C.ar    
  27 O27           10.1160    -7.2554     3.8600 O.3     
  28 O28            1.1309     3.4591     0.0425 O.3     
  29 C29           -0.1564     4.0794     0.0605 C.3     
  30 H30           -0.9655     1.9009     0.0629 H       
  31 H31           -0.9306    -0.5567     0.0365 H       
  32 H32            1.1898    -1.7661     0.0129 H       
  33 H33            3.6777    -1.7412    -0.0665 H       
  34 H34            7.1460     1.1470     0.5731 H       
  35 H35            9.5251     1.1576    -0.3315 H       
  36 H36           11.7239     0.0786    -0.1110 H       
  37 H37           11.9194    -2.1173     0.9774 H       
  38 H38            7.6873    -2.1613     1.6395 H       
  39 H39            7.8346    -3.7831     2.4360 H       
  40 H40           12.1839    -5.9725     2.8965 H       
  41 H41           12.0734    -3.7594     1.7808 H       
  42 H42           10.0133    -8.0037     3.2563 H       
  43 H43           -0.7178     3.7769    -0.8234 H       
  44 H44           -0.6956     3.7714     0.9564 H       
  45 H45           -0.0376     5.1629     0.0624 H       
@<TRIPOS>BOND
   1    1    2 ar
   2    1    6 ar
   3    1   30 1
   4    2    3 ar
   5    2   31 1
   6    3    4 ar
   7    3   32 1
   8    4    5 ar
   9    4    7 1
  10    5    6 ar
  11    5   10 1
  12    6   28 1
  13    7    8 2
  14    7   33 1
  15    8    9 1
  16    8   11 1
  17    9   10 1
  18    9   21 2
  19   11   12 am
  20   11   13 2
  21   12   14 1
  22   12   34 1
  23   14   15 ar
  24   14   19 ar
  25   15   16 ar
  26   15   35 1
  27   16   17 ar
  28   16   36 1
  29   17   18 ar
  30   17   37 1
  31   18   19 ar
  32   18   20 1
  33   19   38 1
  34   20   22 ar
  35   20   26 ar
  36   22   23 ar
  37   22   39 1
  38   23   24 ar
  39   24   25 ar
  40   24   27 1
  41   25   26 ar
  42   25   40 1
  43   26   41 1
  44   27   42 1
  45   28   29 1
  46   29   43 1
  47   29   44 1
  48   29   45 1

#	End of record

