#	Name: ASD03731172
#	Creating user name:	WinNT
#	Creation time:	15. 06. 2019 20:45

#	Modifying user name:	WinNT
#	Modification time:	15. 06. 2019 20:45

#	Program:	/corina/corina34_cracker 3.40 0067  02.08.2006

@<TRIPOS>MOLECULE
ASD03731172
  58   63    0    0    0
SMALL
NO_CHARGES


@<TRIPOS>ATOM
   1 N1            -0.0205     1.3455    -0.0324 N.am    
   2 C2             0.0004    -0.0020    -0.0233 C.2     
   3 O3             1.0625    -0.5937    -0.0446 O.2     
   4 N4            -1.1558    -0.6938     0.0094 N.am    
   5 C5            -1.1402    -2.0907    -0.1041 C.ar    
   6 C6            -2.0846    -2.8573     0.5754 C.ar    
   7 C7            -2.0647    -4.2373     0.4592 C.ar    
   8 C8            -1.1091    -4.8514    -0.3296 C.ar    
   9 C9            -0.1719    -4.0915    -1.0040 C.ar    
  10 C10           -0.1883    -2.7132    -0.8974 C.ar    
  11 O11           -3.0233    -2.2521     1.3511 O.3     
  12 C12           -3.9594    -3.1012     2.0180 C.3     
  13 F13           -3.2732    -3.9733     2.8699 F       
  14 F14           -4.8465    -2.3201     2.7664 F       
  15 F15           -4.6749    -3.8413     1.0707 F       
  16 C16            1.2363     2.0974    -0.0679 C.3     
  17 C17            0.9334     3.5972    -0.0713 C.3     
  18 O18            7.5748     2.0665    -2.3603 O.3     
  19 C19            8.9433     2.4178    -2.6379 C.3     
  20 O20            8.8534     3.7552    -3.1636 O.3     
  21 C21            7.7225     4.2887    -2.6147 C.ar    
  22 C22            6.9363     3.2497    -2.1218 C.ar    
  23 C23            7.2939     5.5983    -2.4928 C.ar    
  24 C24            6.0779     5.8881    -1.8811 C.ar    
  25 C25            5.2975     4.8412    -1.4001 C.ar    
  26 C26            5.7249     3.5349    -1.5146 C.ar    
  27 O27            5.4856     7.0941    -1.6466 O.3     
  28 C28            4.0510     5.4627    -0.8292 C.3     
  29 C29            4.0830     6.8921    -1.3872 C.3     
  30 N30            2.1903     4.3491    -0.1068 N.am    
  31 C31            2.8087     4.7278    -1.2431 C.2     
  32 C32            4.0410     5.4477     0.6707 C.ar    
  33 C33            4.8898     5.9476     1.6328 C.ar    
  34 C34            4.5998     5.7681     2.9737 C.ar    
  35 C35            3.4561     5.0850     3.3451 C.ar    
  36 C36            2.6032     4.5815     2.3851 C.ar    
  37 C37            2.8869     4.7578     1.0330 C.ar    
  38 O38            2.4348     4.5166    -2.3774 O.2     
  39 H39           -0.8679     1.8175    -0.0194 H       
  40 H40           -1.9988    -0.2249     0.1114 H       
  41 H41           -2.7953    -4.8340     0.9851 H       
  42 H42           -1.0949    -5.9276    -0.4188 H       
  43 H43            0.5727    -4.5754    -1.6187 H       
  44 H44            0.5424    -2.1216    -1.4289 H       
  45 H45            1.8331     1.8493     0.8098 H       
  46 H46            1.7903     1.8366    -0.9696 H       
  47 H47            0.3366     3.8454    -0.9489 H       
  48 H48            0.3794     3.8580     0.8305 H       
  49 H49            9.5352     2.4049    -1.7228 H       
  50 H50            9.3690     1.7424    -3.3801 H       
  51 H51            7.9069     6.4011    -2.8749 H       
  52 H52            5.1131     2.7323    -1.1300 H       
  53 H53            3.7196     7.6049    -0.6469 H       
  54 H54            3.5050     6.9609    -2.3088 H       
  55 H55            5.7825     6.4806     1.3405 H       
  56 H56            5.2649     6.1609     3.7285 H       
  57 H57            3.2298     4.9448     4.3917 H       
  58 H58            1.7123     4.0487     2.6829 H       
@<TRIPOS>BOND
   1    1    2 am
   2    1   16 1
   3    1   39 1
   4    2    3 2
   5    2    4 am
   6    4    5 1
   7    4   40 1
   8    5    6 ar
   9    5   10 ar
  10    6    7 ar
  11    6   11 1
  12    7    8 ar
  13    7   41 1
  14    8    9 ar
  15    8   42 1
  16    9   10 ar
  17    9   43 1
  18   10   44 1
  19   11   12 1
  20   12   13 1
  21   12   14 1
  22   12   15 1
  23   16   17 1
  24   16   45 1
  25   16   46 1
  26   17   30 1
  27   17   47 1
  28   17   48 1
  29   18   19 1
  30   18   22 1
  31   19   20 1
  32   19   49 1
  33   19   50 1
  34   20   21 1
  35   21   22 ar
  36   21   23 ar
  37   22   26 ar
  38   23   24 ar
  39   23   51 1
  40   24   25 ar
  41   24   27 1
  42   25   26 ar
  43   25   28 1
  44   26   52 1
  45   27   29 1
  46   28   29 1
  47   28   31 1
  48   28   32 1
  49   29   53 1
  50   29   54 1
  51   30   31 am
  52   30   37 1
  53   31   38 2
  54   32   33 ar
  55   32   37 ar
  56   33   34 ar
  57   33   55 1
  58   34   35 ar
  59   34   56 1
  60   35   36 ar
  61   35   57 1
  62   36   37 ar
  63   36   58 1

#	End of record

