#	Name: ASD01811368
#	Creating user name:	WinNT
#	Creation time:	15. 06. 2019 19:26

#	Modifying user name:	WinNT
#	Modification time:	15. 06. 2019 19:26

#	Program:	/corina/corina34_cracker 3.40 0067  02.08.2006

@<TRIPOS>MOLECULE
ASD01811368
  30   32    0    0    0
SMALL
NO_CHARGES


@<TRIPOS>ATOM
   1 C1            -0.0174     1.4316     0.0099 C.3     
   2 O2             0.0021    -0.0041     0.0020 O.3     
   3 C3             1.2264    -0.3536    -0.6705 C.3     
   4 C4             2.1823     0.7890    -0.4154 C.ar    
   5 C5             3.5505     0.8996    -0.5221 C.ar    
   6 C6             4.1761     2.1095    -0.2126 C.ar    
   7 C7             3.4076     3.1991     0.2031 C.ar    
   8 C8             2.0373     3.0752     0.3058 C.ar    
   9 C9             1.4241     1.8759    -0.0015 C.ar    
  10 N10           -2.8312     2.0449     0.0398 N.3     
  11 C11           -2.2079     1.5176    -1.1809 C.3     
  12 C12           -0.7400     1.9500    -1.2324 C.3     
  13 C13           -0.7161     1.9371     1.2709 C.3     
  14 C14           -2.1849     1.5058     1.2432 C.3     
  15 C15            5.5987     2.2321    -0.3207 C.1     
  16 N16            6.7273     2.3293    -0.4064 N.1     
  17 H17            1.6295    -1.2793    -0.2596 H       
  18 H18            1.0491    -0.4630    -1.7404 H       
  19 H19            4.1386     0.0528    -0.8439 H       
  20 H20            3.8854     4.1372     0.4442 H       
  21 H21            1.4428     3.9175     0.6274 H       
  22 H22           -2.8201     3.0539     0.0446 H       
  23 H23           -2.2661     0.4292    -1.1776 H       
  24 H24           -2.7321     1.9068    -2.0538 H       
  25 H25           -0.6819     3.0381    -1.2598 H       
  26 H26           -0.2702     1.5374    -2.1253 H       
  27 H27           -0.2296     1.5152     2.1504 H       
  28 H28           -0.6570     3.0248     1.3085 H       
  29 H29           -2.6921     1.8867     2.1296 H       
  30 H30           -2.2437     0.4175     1.2306 H       
@<TRIPOS>BOND
   1    1    2 1
   2    1    9 1
   3    1   12 1
   4    1   13 1
   5    2    3 1
   6    3    4 1
   7    3   17 1
   8    3   18 1
   9    4    5 ar
  10    4    9 ar
  11    5    6 ar
  12    5   19 1
  13    6    7 ar
  14    6   15 1
  15    7    8 ar
  16    7   20 1
  17    8    9 ar
  18    8   21 1
  19   10   11 1
  20   10   14 1
  21   10   22 1
  22   11   12 1
  23   11   23 1
  24   11   24 1
  25   12   25 1
  26   12   26 1
  27   13   14 1
  28   13   27 1
  29   13   28 1
  30   14   29 1
  31   14   30 1
  32   15   16 3

#	End of record

