#	Name: ASD04590011
#	Creating user name:	WinNT
#	Creation time:	15. 06. 2019 20:50

#	Modifying user name:	WinNT
#	Modification time:	15. 06. 2019 20:50

#	Program:	/corina/corina34_cracker 3.40 0067  02.08.2006

@<TRIPOS>MOLECULE
ASD04590011
  26   27    0    0    0
SMALL
NO_CHARGES


@<TRIPOS>ATOM
   1 N1            -0.0169     1.2803    -0.0128 N.pl3   
   2 N2             0.0010    -0.0043    -0.0132 N.2     
   3 C3             1.2453    -0.4394    -0.0245 C.2     
   4 C4             2.0817     0.7021    -0.0320 C.2     
   5 C5             1.2435     1.7649    -0.0242 C.2     
   6 C6             1.6831    -1.8498    -0.0283 C.2     
   7 O7             2.8689    -2.1182    -0.0387 O.2     
   8 N8             0.7682    -2.8394    -0.0201 N.am    
   9 C9             1.1780    -4.1715    -0.1364 C.ar    
  10 C10            0.4937    -5.1718     0.5420 C.ar    
  11 C11            0.9007    -6.4864     0.4247 C.ar    
  12 C12            1.9881    -6.8071    -0.3671 C.ar    
  13 C13            2.6715    -5.8135    -1.0438 C.ar    
  14 C14            2.2665    -4.4977    -0.9350 C.ar    
  15 N15            3.4794     0.7268    -0.0447 N.4     
  16 H16           -0.8202     1.8239    -0.0091 H       
  17 H17            1.5294     2.8064    -0.0274 H       
  18 H18           -0.1745    -2.6277     0.0663 H       
  19 H19           -0.3554    -4.9220     1.1608 H       
  20 H20            0.3693    -7.2647     0.9522 H       
  21 H21            2.3045    -7.8358    -0.4568 H       
  22 H22            3.5204    -6.0673    -1.6614 H       
  23 H23            2.7981    -3.7226    -1.4670 H       
  24 H24            3.8070     0.7329    -0.9990 H       
  25 H25            3.8055     1.5564     0.4281 H       
  26 H26            3.8346    -0.0910     0.4276 H       
@<TRIPOS>BOND
   1    1    2 1
   2    1    5 1
   3    1   16 1
   4    2    3 2
   5    3    4 1
   6    3    6 1
   7    4    5 2
   8    4   15 1
   9    5   17 1
  10    6    7 2
  11    6    8 am
  12    8    9 1
  13    8   18 1
  14    9   10 ar
  15    9   14 ar
  16   10   11 ar
  17   10   19 1
  18   11   12 ar
  19   11   20 1
  20   12   13 ar
  21   12   21 1
  22   13   14 ar
  23   13   22 1
  24   14   23 1
  25   15   24 1
  26   15   25 1
  27   15   26 1

#	End of record

