#	Name: ASD08178492
#	Creating user name:	WinNT
#	Creation time:	15. 06. 2019 21:19

#	Modifying user name:	WinNT
#	Modification time:	15. 06. 2019 21:19

#	Program:	/corina/corina34_cracker 3.40 0067  02.08.2006

@<TRIPOS>MOLECULE
ASD08178492
  83   86    0    0    0
SMALL
NO_CHARGES


@<TRIPOS>ATOM
   1 N1            -0.0168     1.3902     0.0097 N.am    
   2 C2            -0.2173     0.0103     0.0231 C.ar    
   3 C3             0.8683    -0.8557    -0.0926 C.ar    
   4 N4            -1.4399    -0.4832     0.1513 N.ar    
   5 N5            -1.6667    -1.7463     0.1686 N.ar    
   6 C6            -0.7002    -2.6368     0.0602 C.ar    
   7 C7             0.6159    -2.2190    -0.0733 C.ar    
   8 C8            -1.0247    -4.1082     0.0874 C.3     
   9 C9            -1.8115    -4.4335     1.3586 C.3     
  10 C10           -2.1410    -5.9273     1.3862 C.3     
  11 C11           -2.9278    -6.2527     2.6574 C.3     
  12 C12           -3.2523    -7.7241     2.6845 C.2     
  13 N13           -2.5213    -8.6581     3.2049 N.2     
  14 N14           -2.9690    -9.8359     3.1257 N.2     
  15 C15           -4.1130   -10.0077     2.5350 C.2     
  16 S16           -4.6995    -8.4828     2.0200 S.3     
  17 N17           -4.7575   -11.2270     2.3553 N.am    
  18 C18           -4.1929   -12.3617     2.8139 C.2     
  19 C19           -4.8913   -13.6828     2.6192 C.3     
  20 O20           -3.1229   -12.3195     3.3832 O.2     
  21 C21           -4.0568   -14.7853     3.2184 C.2     
  22 C22           -1.0750     2.2250     0.0167 C.2     
  23 C23           -0.8601     3.7130     0.1198 C.3     
  24 O24           -2.2000     1.7786    -0.0599 O.2     
  25 C25           -2.1935     4.4152     0.1067 C.ar    
  26 C26           -2.8562     4.6617     1.2951 C.ar    
  27 C27           -2.7499     4.8170    -1.0920 C.ar    
  28 C28           -3.9776     5.4634    -1.1035 C.ar    
  29 C29           -4.6431     5.7045     0.0895 C.ar    
  30 C30           -4.0797     5.3052     1.2863 C.ar    
  31 C31           -4.1336   -15.2529     4.5377 C.2     
  32 N32           -3.2588   -16.2117     4.6876 N.2     
  33 N33           -2.5910   -16.3915     3.4692 N.am    
  34 C34           -3.1072   -15.5006     2.5771 C.2     
  35 C35           -2.6885   -15.3367     1.1388 C.3     
  36 C36           -5.0665   -14.7367     5.6028 C.3     
  37 C37           -1.6160   -17.2887     3.2223 C.2     
  38 O38           -1.1112   -17.3487     2.1198 O.2     
  39 O39           -1.2021   -18.1178     4.1977 O.3     
  40 C40           -0.1484   -19.0582     3.8605 C.3     
  41 C41            1.0983   -18.2898     3.4175 C.3     
  42 C42            0.1864   -19.9101     5.0865 C.3     
  43 C43           -0.6196   -19.9654     2.7222 C.3     
  44 O44           -4.5270     5.8601    -2.2815 O.3     
  45 C45           -5.7930     6.5198    -2.2173 C.3     
  46 F46           -5.6749     7.6819    -1.4474 F       
  47 F47           -6.2092     6.8569    -3.5098 F       
  48 F48           -6.7344     5.6663    -1.6320 F       
  49 H49            0.8842     1.7494    -0.0006 H       
  50 H50            1.8745    -0.4770    -0.1944 H       
  51 H51            1.4199    -2.9345    -0.1636 H       
  52 H52           -1.6240    -4.3643    -0.7864 H       
  53 H53           -0.0997    -4.6845     0.0751 H       
  54 H54           -1.2123    -4.1774     2.2323 H       
  55 H55           -2.7366    -3.8571     1.3708 H       
  56 H56           -2.7402    -6.1835     0.5124 H       
  57 H57           -1.2159    -6.5037     1.3739 H       
  58 H58           -2.3286    -5.9966     3.5311 H       
  59 H59           -3.8529    -5.6763     2.6696 H       
  60 H60           -5.6133   -11.2607     1.9000 H       
  61 H61           -5.8640   -13.6554     3.1104 H       
  62 H62           -5.0274   -13.8683     1.5537 H       
  63 H63           -0.3385     3.9413     1.0493 H       
  64 H64           -0.2620     4.0532    -0.7255 H       
  65 H65           -2.4174     4.3507     2.2316 H       
  66 H66           -2.2297     4.6284    -2.0195 H       
  67 H67           -5.5986     6.2077     0.0832 H       
  68 H68           -4.5974     5.4927     2.2154 H       
  69 H69           -3.2916   -15.9898     0.5081 H       
  70 H70           -2.8348   -14.3005     0.8336 H       
  71 H71           -1.6362   -15.6011     1.0343 H       
  72 H72           -5.9985   -15.3013     5.5741 H       
  73 H73           -4.6009   -14.8536     6.5813 H       
  74 H74           -5.2749   -13.6820     5.4232 H       
  75 H75            1.4340   -17.6434     4.2285 H       
  76 H76            1.8894   -18.9957     3.1644 H       
  77 H77            0.8598   -17.6829     2.5441 H       
  78 H78           -0.7017   -20.4575     5.4021 H       
  79 H79            0.9775   -20.6160     4.8334 H       
  80 H80            0.5221   -19.2637     5.8974 H       
  81 H81           -0.8581   -19.3585     1.8488 H       
  82 H82            0.1715   -20.6714     2.4691 H       
  83 H83           -1.5077   -20.5128     3.0378 H       
@<TRIPOS>BOND
   1    1    2 1
   2    1   22 am
   3    1   49 1
   4    2    3 ar
   5    2    4 ar
   6    3    7 ar
   7    3   50 1
   8    4    5 ar
   9    5    6 ar
  10    6    7 ar
  11    6    8 1
  12    7   51 1
  13    8    9 1
  14    8   52 1
  15    8   53 1
  16    9   10 1
  17    9   54 1
  18    9   55 1
  19   10   11 1
  20   10   56 1
  21   10   57 1
  22   11   12 1
  23   11   58 1
  24   11   59 1
  25   12   13 2
  26   12   16 1
  27   13   14 1
  28   14   15 2
  29   15   16 1
  30   15   17 1
  31   17   18 am
  32   17   60 1
  33   18   19 1
  34   18   20 2
  35   19   21 1
  36   19   61 1
  37   19   62 1
  38   21   31 1
  39   21   34 2
  40   22   23 1
  41   22   24 2
  42   23   25 1
  43   23   63 1
  44   23   64 1
  45   25   26 ar
  46   25   27 ar
  47   26   30 ar
  48   26   65 1
  49   27   28 ar
  50   27   66 1
  51   28   29 ar
  52   28   44 1
  53   29   30 ar
  54   29   67 1
  55   30   68 1
  56   31   32 2
  57   31   36 1
  58   32   33 1
  59   33   34 1
  60   33   37 am
  61   34   35 1
  62   35   69 1
  63   35   70 1
  64   35   71 1
  65   36   72 1
  66   36   73 1
  67   36   74 1
  68   37   38 2
  69   37   39 1
  70   39   40 1
  71   40   41 1
  72   40   42 1
  73   40   43 1
  74   41   75 1
  75   41   76 1
  76   41   77 1
  77   42   78 1
  78   42   79 1
  79   42   80 1
  80   43   81 1
  81   43   82 1
  82   43   83 1
  83   44   45 1
  84   45   46 1
  85   45   47 1
  86   45   48 1

#	End of record

