#	Name: ASD01900679
#	Creating user name:	WinNT
#	Creation time:	15. 06. 2019 19:52

#	Modifying user name:	WinNT
#	Modification time:	15. 06. 2019 19:52

#	Program:	/corina/corina34_cracker 3.40 0067  02.08.2006

@<TRIPOS>MOLECULE
ASD01900679
  35   38    0    0    0
SMALL
NO_CHARGES


@<TRIPOS>ATOM
   1 C1            -0.0183     1.4025     0.1324 C.ar    
   2 C2            -0.0081     0.0176     0.1214 C.ar    
   3 C3             1.1829    -0.6778     0.0625 C.ar    
   4 C4             2.3875     0.0113     0.0135 C.ar    
   5 C5             2.3724     1.4127     0.0292 C.ar    
   6 O6             3.5588    -0.6564    -0.0561 O.3     
   7 C7             4.7336    -0.0514     0.1904 C.2     
   8 C8             4.8725     1.2953     0.2216 C.2     
   9 C9             3.6750     2.1247    -0.0105 C.2     
  10 C10            5.9226    -0.8906     0.4381 C.ar    
  11 N11            7.0974    -0.3037     0.6847 N.ar    
  12 C12            8.1925    -0.9843     0.9129 C.ar    
  13 C13            8.1675    -2.3906     0.9058 C.ar    
  14 C14            6.9378    -3.0535     0.6478 C.ar    
  15 C15            5.7954    -2.2710     0.4156 C.ar    
  16 C16            9.3208    -3.1508     1.1456 C.ar    
  17 C17            9.2413    -4.5257     1.1268 C.ar    
  18 C18            8.0265    -5.1701     0.8715 C.ar    
  19 C19            6.8921    -4.4566     0.6361 C.ar    
  20 C20            1.1700     2.1048     0.0864 C.ar    
  21 O21           10.3571    -5.2652     1.3588 O.3     
  22 N22            3.7558     3.4132    -0.2380 N.2     
  23 O23            2.5973     4.1421    -0.6007 O.3     
  24 H24           -0.9575     1.9343     0.1725 H       
  25 H25           -0.9417    -0.5239     0.1596 H       
  26 H26            1.1779    -1.7578     0.0550 H       
  27 H27            5.8338     1.7496     0.4114 H       
  28 H28            9.1187    -0.4638     1.1069 H       
  29 H29            4.8405    -2.7341     0.2155 H       
  30 H30           10.2637    -2.6625     1.3430 H       
  31 H31            7.9883    -6.2494     0.8615 H       
  32 H32            5.9609    -4.9673     0.4399 H       
  33 H33            1.1640     3.1847     0.0946 H       
  34 H34           10.4995    -5.4807     2.2907 H       
  35 H35            2.7557     5.0847    -0.7478 H       
@<TRIPOS>BOND
   1    1    2 ar
   2    1   20 ar
   3    1   24 1
   4    2    3 ar
   5    2   25 1
   6    3    4 ar
   7    3   26 1
   8    4    5 ar
   9    4    6 1
  10    5   20 ar
  11    5    9 1
  12    6    7 1
  13    7    8 2
  14    7   10 1
  15    8    9 1
  16    8   27 1
  17    9   22 2
  18   10   11 ar
  19   10   15 ar
  20   11   12 ar
  21   12   13 ar
  22   12   28 1
  23   13   14 ar
  24   13   16 ar
  25   14   15 ar
  26   14   19 ar
  27   15   29 1
  28   16   17 ar
  29   16   30 1
  30   17   18 ar
  31   17   21 1
  32   18   19 ar
  33   18   31 1
  34   19   32 1
  35   20   33 1
  36   21   34 1
  37   22   23 1
  38   23   35 1

#	End of record

