#	Name: ASD01200016
#	Creating user name:	WinNT
#	Creation time:	15. 06. 2019 19:08

#	Modifying user name:	WinNT
#	Modification time:	15. 06. 2019 19:08

#	Program:	/corina/corina34_cracker 3.40 0067  02.08.2006

@<TRIPOS>MOLECULE
ASD01200016
  46   48    0    0    0
SMALL
NO_CHARGES


@<TRIPOS>ATOM
   1 C1             0.0890     1.2520     0.0197 C.ar    
   2 N2             0.0600    -0.1419    -0.0992 N.am    
   3 C3             1.1841    -0.8148    -0.4156 C.2     
   4 N4             1.1795    -2.1624    -0.4368 N.am    
   5 C5             2.3388    -2.8563    -0.7632 C.2     
   6 O6             2.2024    -0.2061    -0.6820 O.2     
   7 S7             2.4751    -4.5593    -0.8286 S.3     
   8 C8             4.1700    -4.4165    -1.2876 C.2     
   9 C9             4.4742    -3.1190    -1.3489 C.2     
  10 N10            3.4724    -2.3064    -1.0677 N.2     
  11 C11           -0.2759     1.8561     1.2157 C.ar    
  12 C12           -0.2458     3.2322     1.3299 C.ar    
  13 C13            0.1472     4.0083     0.2550 C.ar    
  14 C14            0.5108     3.4098    -0.9374 C.ar    
  15 C15            0.4883     2.0340    -1.0562 C.ar    
  16 S16            0.1843     5.7635     0.4049 S.o2    
  17 C17           -1.1922    -0.8699     0.1204 C.3     
  18 C18           -1.9575    -0.9781    -1.2000 C.3     
  19 C19           -3.1909    -1.8807    -1.0220 C.3     
  20 C20           -4.4238    -1.0100    -1.3408 C.3     
  21 C21           -3.8693     0.1160    -2.2483 C.3     
  22 C22           -2.4839     0.4096    -1.6208 C.3     
  23 O23            0.0083     6.2325    -0.9249 O.2     
  24 O24           -0.7731     6.0492     1.4153 O.2     
  25 C25            1.8601     6.1323     0.9933 C.3     
  26 H26            0.3671    -2.6480    -0.2243 H       
  27 H27            4.8450    -5.2363    -1.4847 H       
  28 H28            5.4594    -2.7622    -1.6106 H       
  29 H29           -0.5833     1.2506     2.0554 H       
  30 H30           -0.5298     3.7026     2.2597 H       
  31 H31            0.8169     4.0187    -1.7752 H       
  32 H32            0.7726     1.5671    -1.9877 H       
  33 H33           -0.9706    -1.8694     0.4948 H       
  34 H34           -1.8002    -0.3352     0.8500 H       
  35 H35           -1.3076    -1.3827    -1.9759 H       
  36 H36           -3.1400    -2.7229    -1.7120 H       
  37 H37           -3.2443    -2.2417     0.0051 H       
  38 H38           -5.1755    -1.5932    -1.8727 H       
  39 H39           -4.8420    -0.5911    -0.4255 H       
  40 H40           -3.7620    -0.2331    -3.2753 H       
  41 H41           -4.5082     0.9980    -2.2038 H       
  42 H42           -2.5888     1.0577    -0.7508 H       
  43 H43           -1.8198     0.8623    -2.3571 H       
  44 H44            2.5880     5.7704     0.2671 H       
  45 H45            1.9735     7.2094     1.1155 H       
  46 H46            2.0258     5.6385     1.9508 H       
@<TRIPOS>BOND
   1    1    2 1
   2    1   11 ar
   3    1   15 ar
   4    2    3 am
   5    2   17 1
   6    3    4 am
   7    3    6 2
   8    4    5 1
   9    4   26 1
  10    5    7 1
  11    5   10 2
  12    7    8 1
  13    8    9 2
  14    8   27 1
  15    9   10 1
  16    9   28 1
  17   11   12 ar
  18   11   29 1
  19   12   13 ar
  20   12   30 1
  21   13   14 ar
  22   13   16 1
  23   14   15 ar
  24   14   31 1
  25   15   32 1
  26   16   23 2
  27   16   24 2
  28   16   25 1
  29   17   18 1
  30   17   33 1
  31   17   34 1
  32   18   19 1
  33   18   22 1
  34   18   35 1
  35   19   20 1
  36   19   36 1
  37   19   37 1
  38   20   21 1
  39   20   38 1
  40   20   39 1
  41   21   22 1
  42   21   40 1
  43   21   41 1
  44   22   42 1
  45   22   43 1
  46   25   44 1
  47   25   45 1
  48   25   46 1

#	End of record

