#	Name: ASD01190090
#	Creating user name:	WinNT
#	Creation time:	15. 06. 2019 19:07

#	Modifying user name:	WinNT
#	Modification time:	15. 06. 2019 19:07

#	Program:	/corina/corina34_cracker 3.40 0067  02.08.2006

@<TRIPOS>MOLECULE
ASD01190090
  67   72    0    0    0
SMALL
NO_CHARGES


@<TRIPOS>ATOM
   1 C1            -0.0187     1.5258     0.0104 C.3     
   2 C2            -0.1821     2.0589     1.4352 C.3     
   3 N3             3.0228     3.3768    -0.9292 N.pl3   
   4 C4             2.0233     3.0449    -0.0561 C.2     
   5 C5             1.2021     2.1444    -0.6205 C.2     
   6 C6             1.7173     1.8775    -1.9649 C.ar    
   7 C7             1.3043     1.0500    -3.0135 C.ar    
   8 C8             2.0141     1.0197    -4.1767 C.ar    
   9 C9             3.1581     1.8141    -4.3298 C.ar    
  10 C10            3.5820     2.6427    -3.2958 C.ar    
  11 C11            2.8653     2.6801    -2.1074 C.ar    
  12 C12            3.9183     1.7712    -5.5957 C.2     
  13 C13            3.5175     0.9821    -6.5836 C.2     
  14 C14            4.0967     4.3347    -0.6548 C.3     
  15 C15            3.7111     5.6890    -1.1917 C.ar    
  16 C16            3.0246     6.5802    -0.3878 C.ar    
  17 C17            2.6700     7.8223    -0.8776 C.ar    
  18 C18            3.0033     8.1751    -2.1773 C.ar    
  19 C19            3.6922     7.2791    -2.9818 C.ar    
  20 C20            4.0495     6.0404    -2.4854 C.ar    
  21 O21            2.6552     9.3962    -2.6616 O.3     
  22 C22            3.0312     9.6913    -4.0083 C.3     
  23 N23            0.3352    -4.0852     0.0475 N.pl3   
  24 N24           -0.9056    -4.3834    -0.5253 N.2     
  25 C25           -1.5500    -3.2836    -0.7952 C.2     
  26 C26           -0.7100    -2.1620    -0.3873 C.ar    
  27 C27           -0.8589    -0.7711    -0.4248 C.ar    
  28 C28            0.1407     0.0277     0.0498 C.ar    
  29 C29            1.3043    -0.5271     0.5687 C.ar    
  30 C30            1.4729    -1.8821     0.6155 C.ar    
  31 C31            0.4702    -2.7221     0.1390 C.ar    
  32 C32            1.2848    -5.0263     0.4660 C.ar    
  33 C33            0.8724    -6.2335     1.0146 C.ar    
  34 C34            1.8101    -7.1598     1.4266 C.ar    
  35 C35            3.1609    -6.8855     1.2929 C.ar    
  36 C36            3.5743    -5.6823     0.7460 C.ar    
  37 C37            2.6398    -4.7556     0.3275 C.ar    
  38 F38            4.0767    -7.7929     1.6969 F       
  39 F39           -0.3300     3.4496     1.3986 F       
  40 F40           -1.3153     1.4846     2.0209 F       
  41 F41            0.9498     1.7300     2.1888 F       
  42 O42           -1.1748     1.8617    -0.7594 O.3     
  43 H43            1.9115     3.4471     0.9400 H       
  44 H44            0.4236     0.4350    -2.9017 H       
  45 H45            1.6930     0.3794    -4.9849 H       
  46 H46            4.4644     3.2535    -3.4169 H       
  47 H47            4.8005     2.3823    -5.7167 H       
  48 H48            4.0733     0.9508    -7.5090 H       
  49 H49            2.6353     0.3710    -6.4625 H       
  50 H50            4.2569     4.4026     0.4212 H       
  51 H51            5.0145     4.0000    -1.1383 H       
  52 H52            2.7650     6.3049     0.6237 H       
  53 H53            2.1334     8.5179    -0.2495 H       
  54 H54            3.9528     7.5514    -3.9939 H       
  55 H55            4.5899     5.3443    -3.1098 H       
  56 H56            2.5711     8.9674    -4.6809 H       
  57 H57            2.6936    10.6946    -4.2683 H       
  58 H58            4.1157     9.6370    -4.1030 H       
  59 H59           -2.5309    -3.2143    -1.2417 H       
  60 H60           -1.7599    -0.3322    -0.8273 H       
  61 H61            2.0850     0.1207     0.9391 H       
  62 H62            2.3823    -2.3005     1.0209 H       
  63 H63           -0.1810    -6.4476     1.1194 H       
  64 H64            1.4898    -8.0986     1.8537 H       
  65 H65            4.6283    -5.4701     0.6429 H       
  66 H66            2.9625    -3.8193    -0.1034 H       
  67 H67           -1.1402     1.5542    -1.6755 H       
@<TRIPOS>BOND
   1    1    2 1
   2    1    5 1
   3    1   28 1
   4    1   42 1
   5    2   39 1
   6    2   40 1
   7    2   41 1
   8    3    4 1
   9    3   11 1
  10    3   14 1
  11    4    5 2
  12    4   43 1
  13    5    6 1
  14    6    7 ar
  15    6   11 ar
  16    7    8 ar
  17    7   44 1
  18    8    9 ar
  19    8   45 1
  20    9   10 ar
  21    9   12 1
  22   10   11 ar
  23   10   46 1
  24   12   13 2
  25   12   47 1
  26   13   48 1
  27   13   49 1
  28   14   15 1
  29   14   50 1
  30   14   51 1
  31   15   16 ar
  32   15   20 ar
  33   16   17 ar
  34   16   52 1
  35   17   18 ar
  36   17   53 1
  37   18   19 ar
  38   18   21 1
  39   19   20 ar
  40   19   54 1
  41   20   55 1
  42   21   22 1
  43   22   56 1
  44   22   57 1
  45   22   58 1
  46   23   24 1
  47   23   31 1
  48   23   32 1
  49   24   25 2
  50   25   26 1
  51   25   59 1
  52   26   27 ar
  53   26   31 ar
  54   27   28 ar
  55   27   60 1
  56   28   29 ar
  57   29   30 ar
  58   29   61 1
  59   30   31 ar
  60   30   62 1
  61   32   33 ar
  62   32   37 ar
  63   33   34 ar
  64   33   63 1
  65   34   35 ar
  66   34   64 1
  67   35   36 ar
  68   35   38 1
  69   36   37 ar
  70   36   65 1
  71   37   66 1
  72   42   67 1

#	End of record

