#	Name: ASD01940335
#	Creating user name:	WinNT
#	Creation time:	15. 06. 2019 20:12

#	Modifying user name:	WinNT
#	Modification time:	15. 06. 2019 20:12

#	Program:	/corina/corina34_cracker 3.40 0067  02.08.2006

@<TRIPOS>MOLECULE
ASD01940335
  40   41    0    0    0
SMALL
NO_CHARGES


@<TRIPOS>ATOM
   1 C1             0.3775     0.5984     1.0623 C.ar    
   2 C2             0.0174    -0.0348    -0.1055 C.ar    
   3 C3             0.8610    -0.0056    -1.2085 C.ar    
   4 C4             2.0724     0.6602    -1.1449 C.ar    
   5 C5             2.4509     1.3045     0.0274 C.ar    
   6 C6             1.5981     1.2759     1.1422 C.ar    
   7 N7             3.6678     1.9737     0.0955 N.pl3   
   8 C8             1.9874     1.9555     2.3899 C.2     
   9 O9             3.0588     2.5266     2.4625 O.2     
  10 N10            1.1564     1.9445     3.4509 N.am    
  11 C11            4.7945     1.3257     0.6127 C.ar    
  12 C12            4.6735     0.0622     1.1745 C.ar    
  13 C13            5.7881    -0.5758     1.6843 C.ar    
  14 C14            7.0242     0.0424     1.6357 C.ar    
  15 C15            7.1499     1.3020     1.0766 C.ar    
  16 C16            6.0399     1.9438     0.5600 C.ar    
  17 O17            1.5306     2.5978     4.6502 O.3     
  18 C18            0.5555     2.5059     5.6908 C.3     
  19 O19            0.3995     4.0387     9.1151 O.3     
  20 C20           -0.0301     3.2519     8.0023 C.3     
  21 C21            1.0630     3.2429     6.9318 C.3     
  22 O22            2.2218     2.5786     7.4397 O.3     
  23 F23            6.1634     3.1711     0.0091 F       
  24 F24            2.8876     0.6838    -2.2220 F       
  25 F25            0.4971    -0.6308    -2.3495 F       
  26 I26            8.7102    -0.9299     2.4110 I       
  27 H27           -0.2847     0.5760     1.9152 H       
  28 H28           -0.9258    -0.5576    -0.1643 H       
  29 H29            3.7355     2.8899    -0.2158 H       
  30 H30            0.3019     1.4891     3.3930 H       
  31 H31            3.7088    -0.4217     1.2135 H       
  32 H32            5.6938    -1.5588     2.1218 H       
  33 H33            8.1165     1.7823     1.0405 H       
  34 H34           -0.3775     2.9588     5.3554 H       
  35 H35            0.3832     1.4579     5.9357 H       
  36 H36           -0.2456     4.0888     9.8338 H       
  37 H37           -0.2239     2.2312     8.3322 H       
  38 H38           -0.9426     3.6787     7.5862 H       
  39 H39            1.3195     4.2684     6.6658 H       
  40 H40            2.0670     1.6594     7.6971 H       
@<TRIPOS>BOND
   1    1    2 ar
   2    1    6 ar
   3    1   27 1
   4    2    3 ar
   5    2   28 1
   6    3    4 ar
   7    3   25 1
   8    4    5 ar
   9    4   24 1
  10    5    6 ar
  11    5    7 1
  12    6    8 1
  13    7   11 1
  14    7   29 1
  15    8    9 2
  16    8   10 am
  17   10   17 1
  18   10   30 1
  19   11   12 ar
  20   11   16 ar
  21   12   13 ar
  22   12   31 1
  23   13   14 ar
  24   13   32 1
  25   14   15 ar
  26   14   26 1
  27   15   16 ar
  28   15   33 1
  29   16   23 1
  30   17   18 1
  31   18   21 1
  32   18   34 1
  33   18   35 1
  34   19   20 1
  35   19   36 1
  36   20   21 1
  37   20   37 1
  38   20   38 1
  39   21   22 1
  40   21   39 1
  41   22   40 1

#	End of record

