#	Name: ASD04910236
#	Creating user name:	WinNT
#	Creation time:	15. 06. 2019 20:55

#	Modifying user name:	WinNT
#	Modification time:	15. 06. 2019 20:55

#	Program:	/corina/corina34_cracker 3.40 0067  02.08.2006

@<TRIPOS>MOLECULE
ASD04910236
  56   59    0    0    0
SMALL
NO_CHARGES


@<TRIPOS>ATOM
   1 C1            -0.0180     1.4730     0.0101 C.2     
   2 C2             0.0021    -0.0041     0.0020 C.ar    
   3 C3             1.2188    -0.6888    -0.0133 C.ar    
   4 C4             1.2303    -2.0682    -0.0203 C.ar    
   5 C5             0.0396    -2.7731    -0.0127 C.ar    
   6 C6            -1.1697    -2.1009     0.0020 C.ar    
   7 C7            -1.1956    -0.7217     0.0154 C.ar    
   8 O8             1.0256     2.0946     0.0035 O.2     
   9 O9            -1.1936     2.1307     0.0193 O.3     
  10 C10            0.0601    -4.2800    -0.0210 C.3     
  11 N11           -0.9827    -4.7874     0.8742 N.pl3   
  12 C12            0.2549    -6.8438     1.1732 C.ar    
  13 C13           -0.8558    -6.0569     1.4468 C.ar    
  14 C14           -1.8420    -6.5481     2.2998 C.ar    
  15 C15           -1.6739    -7.8093     2.8437 C.ar    
  16 C16           -0.5358    -8.5388     2.5239 C.ar    
  17 N17            0.3809    -8.0412     1.7101 N.ar    
  18 N18           -0.3569    -9.8153     3.0691 N.pl3   
  19 N19           -1.2359   -10.4714     3.9406 N.2     
  20 C20           -0.7280   -11.6418     4.2306 C.2     
  21 C21            0.4905   -11.7731     3.5555 C.2     
  22 C22            0.6971   -10.6414     2.8431 C.2     
  23 C23            1.4085   -12.9670     3.6081 C.3     
  24 F24            0.8564   -13.9434     4.4443 F       
  25 F25            1.5666   -13.4909     2.3206 F       
  26 F26            2.6549   -12.5752     4.1084 F       
  27 C27           -0.5124    -6.8149    -2.8605 C.3     
  28 C28           -0.1766    -6.3173    -1.4522 C.3     
  29 C29           -0.1970    -4.7857    -1.4419 C.3     
  30 C30           -1.5701    -4.3012    -1.9177 C.3     
  31 C31           -1.8520    -4.8766    -3.3080 C.3     
  32 O32           -1.7874    -6.3032    -3.2537 O.3     
  33 C33           -1.1373     3.5816     0.0269 C.3     
  34 H34            2.1488    -0.1398    -0.0199 H       
  35 H35            2.1707    -2.5992    -0.0321 H       
  36 H36           -2.0953    -2.6572     0.0071 H       
  37 H37           -2.1401    -0.1983     0.0318 H       
  38 H38            1.0339    -4.6320     0.3193 H       
  39 H39           -1.7613    -4.2429     1.0696 H       
  40 H40            1.0219    -6.4726     0.5096 H       
  41 H41           -2.7167    -5.9584     2.5312 H       
  42 H42           -2.4182    -8.2214     3.5091 H       
  43 H43           -1.1734   -12.3807     4.8803 H       
  44 H44            1.5475   -10.4319     2.2112 H       
  45 H45            0.2493    -6.4693    -3.5594 H       
  46 H46           -0.5413    -7.9046    -2.8638 H       
  47 H47           -0.9156    -6.6962    -0.7462 H       
  48 H48            0.8147    -6.6703    -1.1679 H       
  49 H49            0.5765    -4.4063    -2.1095 H       
  50 H50           -2.3372    -4.6393    -1.2210 H       
  51 H51           -1.5753    -3.2123    -1.9662 H       
  52 H52           -2.8460    -4.5699    -3.6336 H       
  53 H53           -1.1079    -4.5056    -4.0128 H       
  54 H54           -0.6055     3.9199     0.9162 H       
  55 H55           -0.6140     3.9295    -0.8637 H       
  56 H56           -2.1501     3.9844     0.0339 H       
@<TRIPOS>BOND
   1    1    2 1
   2    1    8 2
   3    1    9 1
   4    2    3 ar
   5    2    7 ar
   6    3    4 ar
   7    3   34 1
   8    4    5 ar
   9    4   35 1
  10    5    6 ar
  11    5   10 1
  12    6    7 ar
  13    6   36 1
  14    7   37 1
  15    9   33 1
  16   10   11 1
  17   10   29 1
  18   10   38 1
  19   11   13 1
  20   11   39 1
  21   12   13 ar
  22   12   17 ar
  23   12   40 1
  24   13   14 ar
  25   14   15 ar
  26   14   41 1
  27   15   16 ar
  28   15   42 1
  29   16   17 ar
  30   16   18 1
  31   18   19 1
  32   18   22 1
  33   19   20 2
  34   20   21 1
  35   20   43 1
  36   21   22 2
  37   21   23 1
  38   22   44 1
  39   23   24 1
  40   23   25 1
  41   23   26 1
  42   27   28 1
  43   27   32 1
  44   27   45 1
  45   27   46 1
  46   28   29 1
  47   28   47 1
  48   28   48 1
  49   29   30 1
  50   29   49 1
  51   30   31 1
  52   30   50 1
  53   30   51 1
  54   31   32 1
  55   31   52 1
  56   31   53 1
  57   33   54 1
  58   33   55 1
  59   33   56 1

#	End of record

