#	Name: ASD00061015
#	Creating user name:	WinNT
#	Creation time:	15. 06. 2019 18:29

#	Modifying user name:	WinNT
#	Modification time:	15. 06. 2019 18:29

#	Program:	/corina/corina34_cracker 3.40 0067  02.08.2006

@<TRIPOS>MOLECULE
ASD00061015
  40   42    0    0    0
SMALL
NO_CHARGES


@<TRIPOS>ATOM
   1 C1            -0.0167     1.3829     0.0096 C.ar    
   2 C2             0.0021    -0.0041     0.0020 C.ar    
   3 N3            -1.2094    -0.7085     0.0333 N.am    
   4 C4            -2.1318    -0.3697     0.9530 C.2     
   5 C5            -1.8178     0.6730     1.9890 C.3     
   6 C6            -1.9630     2.0763     1.4001 C.3     
   7 C7            -1.3324     2.1136     0.0066 C.3     
   8 C8             1.1718     2.0868     0.0021 C.ar    
   9 C9             2.3763     1.4078    -0.0237 C.ar    
  10 C10            2.3963     0.0251    -0.0421 C.ar    
  11 C11            1.2106    -0.6844    -0.0288 C.ar    
  12 O12           -3.2192    -0.9069     0.9455 O.2     
  13 C13           -1.4669    -1.7928    -0.9175 C.3     
  14 S14           -2.9591     0.4899     3.3871 S.3     
  15 C15           -2.5326    -1.0890     4.0427 C.ar    
  16 C16           -3.2079    -1.5886     5.1497 C.ar    
  17 C17           -2.8717    -2.8265     5.6610 C.ar    
  18 C18           -1.8631    -3.5692     5.0723 C.ar    
  19 C19           -1.1888    -3.0743     3.9697 C.ar    
  20 C20           -1.5243    -1.8395     3.4504 C.ar    
  21 Cl21          -1.4426    -5.1245     5.7187 Cl      
  22 C22           -0.9894    -3.0973    -0.3332 C.2     
  23 O23           -0.4857    -3.1190     0.7648 O.2     
  24 O24           -1.1236    -4.2350    -1.0326 O.3     
  25 H25           -0.7952     0.5345     2.3400 H       
  26 H26           -3.0200     2.3321     1.3274 H       
  27 H27           -1.4589     2.7952     2.0460 H       
  28 H28           -1.1689     3.1502    -0.2880 H       
  29 H29           -2.0062     1.6399    -0.7074 H       
  30 H30            1.1604     3.1666     0.0159 H       
  31 H31            3.3048     1.9594    -0.0298 H       
  32 H32            3.3394    -0.5006    -0.0666 H       
  33 H33            1.2247    -1.7642    -0.0430 H       
  34 H34           -2.5366    -1.8543    -1.1176 H       
  35 H35           -0.9341    -1.5946    -1.8476 H       
  36 H36           -3.9945    -1.0092     5.6099 H       
  37 H37           -3.3961    -3.2153     6.5213 H       
  38 H38           -0.4019    -3.6560     3.5127 H       
  39 H39           -0.9980    -1.4540     2.5897 H       
  40 H40           -0.8025    -5.0467    -0.6164 H       
@<TRIPOS>BOND
   1    1    2 ar
   2    1    8 ar
   3    1    7 1
   4    2    3 1
   5    2   11 ar
   6    3    4 am
   7    3   13 1
   8    4    5 1
   9    4   12 2
  10    5    6 1
  11    5   14 1
  12    5   25 1
  13    6    7 1
  14    6   26 1
  15    6   27 1
  16    7   28 1
  17    7   29 1
  18    8    9 ar
  19    8   30 1
  20    9   10 ar
  21    9   31 1
  22   10   11 ar
  23   10   32 1
  24   11   33 1
  25   13   22 1
  26   13   34 1
  27   13   35 1
  28   14   15 1
  29   15   16 ar
  30   15   20 ar
  31   16   17 ar
  32   16   36 1
  33   17   18 ar
  34   17   37 1
  35   18   19 ar
  36   18   21 1
  37   19   20 ar
  38   19   38 1
  39   20   39 1
  40   22   23 2
  41   22   24 1
  42   24   40 1

#	End of record

