#	Name: ASD01200372
#	Creating user name:	WinNT
#	Creation time:	15. 06. 2019 19:09

#	Modifying user name:	WinNT
#	Modification time:	15. 06. 2019 19:09

#	Program:	/corina/corina34_cracker 3.40 0067  02.08.2006

@<TRIPOS>MOLECULE
ASD01200372
  59   63    0    0    0
SMALL
NO_CHARGES


@<TRIPOS>ATOM
   1 C1            -0.2316     1.6899    -0.7021 C.ar    
   2 C2            -0.2583     0.3400    -1.0350 C.ar    
   3 C3             0.9392    -0.3789    -1.1702 C.ar    
   4 C4             2.1385     0.2333    -0.9776 C.ar    
   5 C5             2.1862     1.5946    -0.6412 C.ar    
   6 C6             0.9883     2.3240    -0.5038 C.ar    
   7 C7             3.2464     2.4946    -0.3817 C.2     
   8 N8             2.7443     3.6649    -0.1109 N.2     
   9 N9             1.3468     3.6076    -0.1753 N.pl3   
  10 C10            0.4278     4.7225     0.0669 C.3     
  11 C11            0.6264     5.2472     1.4903 C.3     
  12 C12            0.7073     5.8272    -0.9193 C.2     
  13 N13            0.1287     5.8064    -2.1364 N.am    
  14 O14            1.4530     6.7350    -0.6177 O.2     
  15 C15           -0.4287     6.3131     1.7928 C.3     
  16 C16           -2.8568     6.7245     2.1985 C.3     
  17 C17           -1.8173     5.6670     1.8180 C.3     
  18 C18           -0.1450     6.9412     3.1607 C.3     
  19 C19           -1.2491     7.9495     3.4894 C.3     
  20 O20           -2.5168     7.2903     3.4660 O.3     
  21 S21            3.6330    -0.6839    -1.1501 S.o2    
  22 O22            4.3509    -0.4122     0.0457 O.2     
  23 O23            3.2015    -2.0014    -1.4623 O.2     
  24 C24            4.4638     0.0685    -2.5764 C.3     
  25 C25            5.7570    -0.5857    -3.0667 C.3     
  26 C26            4.4724    -0.7215    -3.8866 C.3     
  27 C27            0.4646     6.7689    -3.0827 C.2     
  28 N28            1.3220     7.7275    -2.9093 N.2     
  29 S29           -0.2003     6.8767    -4.7104 S.3     
  30 C30            0.7972     8.2962    -5.0201 C.2     
  31 C31            1.5139     8.5506    -3.9231 C.2     
  32 F32            0.8337     9.0024    -6.1713 F       
  33 C33           -1.5523    -0.3399    -1.2466 C.2     
  34 O34           -1.5784    -1.5200    -1.5377 O.2     
  35 N35           -2.7041     0.3479    -1.1169 N.am    
  36 H36           -1.1538     2.2431    -0.6026 H       
  37 H37            0.9083    -1.4269    -1.4290 H       
  38 H38            4.2983     2.2510    -0.4039 H       
  39 H39           -0.5997     4.3791    -0.0537 H       
  40 H40            0.5251     4.4246     2.1982 H       
  41 H41            1.6208     5.6842     1.5810 H       
  42 H42           -0.5219     5.1201    -2.3524 H       
  43 H43           -0.3981     7.0850     1.0237 H       
  44 H44           -2.8708     7.5092     1.4421 H       
  45 H45           -3.8414     6.2608     2.2598 H       
  46 H46           -2.0502     5.2656     0.8317 H       
  47 H47           -1.8311     4.8617     2.5525 H       
  48 H48           -0.1250     6.1617     3.9224 H       
  49 H49            0.8180     7.4512     3.1348 H       
  50 H50           -1.0755     8.3684     4.4807 H       
  51 H51           -1.2421     8.7502     2.7499 H       
  52 H52            4.3922     1.1541    -2.6433 H       
  53 H53            6.5361     0.0694    -3.4566 H       
  54 H54            6.1086    -1.4683    -2.5323 H       
  55 H55            3.9789    -1.6933    -3.8916 H       
  56 H56            4.4063    -0.1556    -4.8159 H       
  57 H57            2.2076     9.3766    -3.8690 H       
  58 H58           -2.6832     1.2894    -0.8847 H       
  59 H59           -3.5539    -0.0987    -1.2559 H       
@<TRIPOS>BOND
   1    1    2 ar
   2    1    6 ar
   3    1   36 1
   4    2    3 ar
   5    2   33 1
   6    3    4 ar
   7    3   37 1
   8    4    5 ar
   9    4   21 1
  10    5    7 1
  11    5    6 ar
  12    6    9 1
  13    7    8 2
  14    7   38 1
  15    8    9 1
  16    9   10 1
  17   10   11 1
  18   10   12 1
  19   10   39 1
  20   11   15 1
  21   11   40 1
  22   11   41 1
  23   12   13 am
  24   12   14 2
  25   13   27 1
  26   13   42 1
  27   15   18 1
  28   15   17 1
  29   15   43 1
  30   16   17 1
  31   16   20 1
  32   16   44 1
  33   16   45 1
  34   17   46 1
  35   17   47 1
  36   18   19 1
  37   18   48 1
  38   18   49 1
  39   19   20 1
  40   19   50 1
  41   19   51 1
  42   21   22 2
  43   21   23 2
  44   21   24 1
  45   24   25 1
  46   24   26 1
  47   24   52 1
  48   25   26 1
  49   25   53 1
  50   25   54 1
  51   26   55 1
  52   26   56 1
  53   27   29 1
  54   27   28 2
  55   28   31 1
  56   29   30 1
  57   30   31 2
  58   30   32 1
  59   31   57 1
  60   33   34 2
  61   33   35 am
  62   35   58 1
  63   35   59 1

#	End of record

