#	Name: ASD08830063
#	Creating user name:	WinNT
#	Creation time:	15. 06. 2019 21:19

#	Modifying user name:	WinNT
#	Modification time:	15. 06. 2019 21:19

#	Program:	/corina/corina34_cracker 3.40 0067  02.08.2006

@<TRIPOS>MOLECULE
ASD08830063
  42   44    0    0    0
SMALL
NO_CHARGES


@<TRIPOS>ATOM
   1 C1            -0.0172     1.4144     0.0098 C.ar    
   2 C2             0.0021    -0.0041     0.0020 C.ar    
   3 C3             1.1962     2.1293     0.0021 C.ar    
   4 C4             2.3779     1.4629    -0.0128 C.ar    
   5 C5             2.4116     0.0549    -0.0212 C.ar    
   6 C6             1.2328    -0.6771    -0.0139 C.ar    
   7 C7             3.7064    -0.6449    -0.0379 C.2     
   8 C8             4.9898     0.1449    -0.0459 C.3     
   9 C9             6.1800    -0.8163    -0.0631 C.3     
  10 N10            7.4311    -0.0464    -0.0709 N.3     
  11 O11            3.7403    -1.8570    -0.0452 O.2     
  12 C12            8.5904    -0.9228     0.1511 C.3     
  13 C13           -1.2484     2.0870     0.0310 C.ar    
  14 C14           -1.2115    -0.7181     0.0108 C.ar    
  15 C15           -2.3930    -0.0497     0.0261 C.ar    
  16 C16           -2.4251     1.3561     0.0441 C.ar    
  17 C17            9.8737    -0.0913     0.0759 C.3     
  18 O18            9.8055     0.9691     1.0330 O.3     
  19 C19            8.6885     1.8425     0.8460 C.3     
  20 C20            7.3932     1.0306     0.9290 C.3     
  21 C21           -3.7246     2.0595     0.0605 C.2     
  22 O22           -3.7578     3.2736     0.0760 O.2     
  23 O23           -4.8723     1.3542     0.0583 O.3     
  24 H24            1.1860     3.2092     0.0076 H       
  25 H25            3.3039     2.0187    -0.0187 H       
  26 H26            1.2626    -1.7567    -0.0200 H       
  27 H27            5.0213     0.7780    -0.9326 H       
  28 H28            5.0387     0.7678     0.8472 H       
  29 H29            6.1486    -1.4494     0.8236 H       
  30 H30            6.1312    -1.4392    -0.9562 H       
  31 H31            8.5137    -1.3856     1.1350 H       
  32 H32            8.6132    -1.6974    -0.6154 H       
  33 H33           -1.2784     3.1665     0.0375 H       
  34 H34           -1.2024    -1.7980     0.0049 H       
  35 H35           -3.3196    -0.6045     0.0321 H       
  36 H36           10.7321    -0.7259     0.2963 H       
  37 H37            9.9777     0.3279    -0.9249 H       
  38 H38            8.6897     2.6065     1.6235 H       
  39 H39            8.7580     2.3179    -0.1324 H       
  40 H40            6.5420     1.6819     0.7304 H       
  41 H41            7.2974     0.5990     1.9254 H       
  42 H42           -5.6974     1.8583     0.0695 H       
@<TRIPOS>BOND
   1    1    2 ar
   2    1    3 ar
   3    1   13 ar
   4    2   14 ar
   5    2    6 ar
   6    3    4 ar
   7    3   24 1
   8    4    5 ar
   9    4   25 1
  10    5    6 ar
  11    5    7 1
  12    6   26 1
  13    7    8 1
  14    7   11 2
  15    8    9 1
  16    8   27 1
  17    8   28 1
  18    9   10 1
  19    9   29 1
  20    9   30 1
  21   10   12 1
  22   10   20 1
  23   12   17 1
  24   12   31 1
  25   12   32 1
  26   13   16 ar
  27   13   33 1
  28   14   15 ar
  29   14   34 1
  30   15   16 ar
  31   15   35 1
  32   16   21 1
  33   17   18 1
  34   17   36 1
  35   17   37 1
  36   18   19 1
  37   19   20 1
  38   19   38 1
  39   19   39 1
  40   20   40 1
  41   20   41 1
  42   21   22 2
  43   21   23 1
  44   23   42 1

#	End of record

