#	Name: ASD01030014
#	Creating user name:	WinNT
#	Creation time:	15. 06. 2019 18:58

#	Modifying user name:	WinNT
#	Modification time:	15. 06. 2019 18:58

#	Program:	/corina/corina34_cracker 3.40 0067  02.08.2006

@<TRIPOS>MOLECULE
ASD01030014
  24   24    0    0    0
SMALL
NO_CHARGES


@<TRIPOS>ATOM
   1 O1             0.2615     1.1687     1.1312 O.3     
   2 C2             0.1424    -0.0777     0.6244 C.2     
   3 C3            -1.0927    -0.9476     0.6469 C.3     
   4 C4            -2.2320    -0.2622    -0.1101 C.3     
   5 O5            -1.7976     0.0632    -1.4320 O.3     
   6 C6            -3.4340    -1.2058    -0.1861 C.3     
   7 O7            -4.5363    -0.5254    -0.7895 O.3     
   8 O8            -0.7349    -2.1703    -0.0051 O.3     
   9 C9             0.5532    -2.0828    -0.3874 C.2     
  10 O10            1.1689    -2.9553    -0.9704 O.2     
  11 C11            1.1001    -0.7861    -0.0050 C.2     
  12 S12            2.5069     1.1493    -0.3737 S.o2    
  13 O13            3.6508     1.3822    -1.1839 O.2     
  14 O14            1.2131     1.6408    -0.6960 O.2     
  15 O15            2.3728    -0.3611    -0.2435 O.3     
  16 O16            2.8411     1.6928     1.0081 O.3     
  17 H17            1.1010     1.6002     0.9210 H       
  18 H18           -1.3929    -1.1451     1.6760 H       
  19 H19           -2.5187     0.6500     0.4131 H       
  20 H20           -1.5265    -0.7025    -1.9566 H       
  21 H21           -3.1736    -2.0784    -0.7852 H       
  22 H22           -3.7099    -1.5245     0.8191 H       
  23 H23           -5.3348    -1.0647    -0.8703 H       
  24 H24            2.9489     2.6533     1.0375 H       
@<TRIPOS>BOND
   1    1    2 1
   2    1   17 1
   3    2    3 1
   4    2   11 2
   5    3    4 1
   6    3    8 1
   7    3   18 1
   8    4    5 1
   9    4    6 1
  10    4   19 1
  11    5   20 1
  12    6    7 1
  13    6   21 1
  14    6   22 1
  15    7   23 1
  16    8    9 1
  17    9   10 2
  18    9   11 1
  19   11   15 1
  20   12   13 2
  21   12   14 2
  22   12   15 1
  23   12   16 1
  24   16   24 1

#	End of record

