#	Name: ASD01884522
#	Creating user name:	WinNT
#	Creation time:	15. 06. 2019 19:48

#	Modifying user name:	WinNT
#	Modification time:	15. 06. 2019 19:48

#	Program:	/corina/corina34_cracker 3.40 0067  02.08.2006

@<TRIPOS>MOLECULE
ASD01884522
  36   38    0    0    0
SMALL
NO_CHARGES


@<TRIPOS>ATOM
   1 C1            -0.0164     1.3576     0.0095 C.2     
   2 C2             0.0021    -0.0041     0.0020 C.2     
   3 C3             1.2440    -0.6751    -0.0134 C.2     
   4 C4             2.4024     0.0465    -0.0206 C.2     
   5 N5             2.3700     1.4024    -0.0126 N.am    
   6 C6             1.1986     2.0652     0.0017 C.2     
   7 O7             1.1911     3.2857     0.0083 O.2     
   8 C8             3.6266     2.1554    -0.0196 C.3     
   9 C9             4.0511     2.4259    -1.4644 C.3     
  10 C10            1.2897    -2.1584    -0.0214 C.ar    
  11 C11            0.8124    -2.8774     1.0728 C.ar    
  12 C12            1.8048    -2.8351    -1.1254 C.ar    
  13 C13            1.8460    -4.2138    -1.1298 C.ar    
  14 C14            1.3747    -4.9272    -0.0363 C.ar    
  15 C15            0.8562    -4.2560     1.0626 C.ar    
  16 O16            1.4158    -6.2856    -0.0439 O.3     
  17 C17            0.9144    -6.9563     1.1140 C.3     
  18 C18            5.2837     3.3048    -1.6859 C.3     
  19 C19            5.3615     1.7989    -1.9449 C.3     
  20 H20           -0.9563     1.8895     0.0169 H       
  21 H21           -0.9217    -0.5635     0.0082 H       
  22 H22            3.3528    -0.4664    -0.0325 H       
  23 H23            3.4854     3.1026     0.5010 H       
  24 H24            4.4003     1.5759     0.4840 H       
  25 H25            3.2380     2.5082    -2.1857 H       
  26 H26            0.4089    -2.3558     1.9281 H       
  27 H27            2.1710    -2.2806    -1.9768 H       
  28 H28            2.2451    -4.7388    -1.9851 H       
  29 H29            0.4906    -4.8137     1.9121 H       
  30 H30           -0.1340    -6.6958     1.2593 H       
  31 H31            1.0055    -8.0339     0.9777 H       
  32 H32            1.4892    -6.6507     1.9883 H       
  33 H33            5.2817     3.9652    -2.5530 H       
  34 H34            5.7922     3.6905    -0.8022 H       
  35 H35            5.9211     1.1938    -1.2316 H       
  36 H36            5.4106     1.4686    -2.9824 H       
@<TRIPOS>BOND
   1    1    2 2
   2    1    6 1
   3    1   20 1
   4    2    3 1
   5    2   21 1
   6    3    4 2
   7    3   10 1
   8    4    5 1
   9    4   22 1
  10    5    6 am
  11    5    8 1
  12    6    7 2
  13    8    9 1
  14    8   23 1
  15    8   24 1
  16    9   18 1
  17    9   19 1
  18    9   25 1
  19   10   11 ar
  20   10   12 ar
  21   11   15 ar
  22   11   26 1
  23   12   13 ar
  24   12   27 1
  25   13   14 ar
  26   13   28 1
  27   14   15 ar
  28   14   16 1
  29   15   29 1
  30   16   17 1
  31   17   30 1
  32   17   31 1
  33   17   32 1
  34   18   19 1
  35   18   33 1
  36   18   34 1
  37   19   35 1
  38   19   36 1

#	End of record

