#	Name: ASD09610059
#	Creating user name:	WinNT
#	Creation time:	15. 06. 2019 21:22

#	Modifying user name:	WinNT
#	Modification time:	15. 06. 2019 21:22

#	Program:	/corina/corina34_cracker 3.40 0067  02.08.2006

@<TRIPOS>MOLECULE
ASD09610059
  30   31    0    0    0
SMALL
NO_CHARGES


@<TRIPOS>ATOM
   1 C1            -0.0169     1.3951     0.0097 C.ar    
   2 C2             0.0021    -0.0041     0.0020 C.ar    
   3 C3             1.2380    -0.6626    -0.0134 C.ar    
   4 C4             2.3908     0.1048    -0.0203 C.ar    
   5 C5             2.2877     1.4834    -0.0119 C.ar    
   6 N6             1.1106     2.0798     0.0026 N.ar    
   7 C7            -1.2586    -0.7725     0.0105 C.2     
   8 O8            -1.7881    -1.0833    -1.0389 O.2     
   9 N9            -1.8223    -1.1296     1.1814 N.am    
  10 I10            1.3403    -2.7551    -0.0249 I       
  11 F11           -1.1987     2.0496     0.0189 F       
  12 C12           -3.0732    -1.8921     1.1898 C.3     
  13 C13           -2.7621    -3.3838     1.0530 C.3     
  14 C14           -3.8018    -1.6477     2.4862 C.ar    
  15 C15           -5.1620    -1.3951     2.4689 C.ar    
  16 C16           -5.8229    -1.1720     3.6680 C.ar    
  17 C17           -5.0879    -1.2116     4.8440 C.ar    
  18 C18           -3.7309    -1.4702     4.7819 C.ar    
  19 N19           -3.1367    -1.6826     3.6240 N.ar    
  20 Cl20          -6.0302    -1.3572     0.9661 Cl      
  21 Br21          -5.9310    -0.9150     6.5105 Br      
  22 H22            3.3612    -0.3692    -0.0318 H       
  23 H23            3.1862     2.0827    -0.0173 H       
  24 H24           -1.3998    -0.8816     2.0187 H       
  25 H25           -3.6986    -1.5734     0.3559 H       
  26 H26           -2.2351    -3.5606     0.1153 H       
  27 H27           -2.1367    -3.7025     1.8869 H       
  28 H28           -3.6928    -3.9512     1.0592 H       
  29 H29           -6.8841    -0.9719     3.6856 H       
  30 H30           -3.1516    -1.5024     5.6929 H       
@<TRIPOS>BOND
   1    1    2 ar
   2    1    6 ar
   3    1   11 1
   4    2    3 ar
   5    2    7 1
   6    3    4 ar
   7    3   10 1
   8    4    5 ar
   9    4   22 1
  10    5    6 ar
  11    5   23 1
  12    7    8 2
  13    7    9 am
  14    9   12 1
  15    9   24 1
  16   12   13 1
  17   12   14 1
  18   12   25 1
  19   13   26 1
  20   13   27 1
  21   13   28 1
  22   14   15 ar
  23   14   19 ar
  24   15   16 ar
  25   15   20 1
  26   16   17 ar
  27   16   29 1
  28   17   18 ar
  29   17   21 1
  30   18   19 ar
  31   18   30 1

#	End of record

