#	Name: ASD00060054
#	Creating user name:	WinNT
#	Creation time:	15. 06. 2019 18:29

#	Modifying user name:	WinNT
#	Modification time:	15. 06. 2019 18:29

#	Program:	/corina/corina34_cracker 3.40 0067  02.08.2006

@<TRIPOS>MOLECULE
ASD00060054
  36   39    0    0    0
SMALL
NO_CHARGES


@<TRIPOS>ATOM
   1 C1            -0.5941     2.0819    -0.2671 C.ar    
   2 C2            -0.7859     0.7268    -0.1714 C.ar    
   3 C3             0.2913    -0.1271     0.0221 C.ar    
   4 C4             1.5668     0.3856     0.1192 C.ar    
   5 C5             0.7028     2.6291    -0.1706 C.ar    
   6 N6             1.0801     3.9219    -0.2408 N.2     
   7 C7             1.7790     1.7587     0.0237 C.ar    
   8 S8             3.2584     2.7121     0.1064 S.3     
   9 C9             2.3353     4.1903    -0.1252 C.2     
  10 N10            2.8778     5.4585    -0.1748 N.pl3   
  11 S11            4.5126     5.6667    -0.0121 S.o2    
  12 C12            4.9700     5.1165     1.3669 C.2     
  13 C13            5.2477     4.8994    -1.1454 C.2     
  14 C14            4.8995     7.3824    -0.1176 C.2     
  15 C15            5.0509     8.1423     0.9489 C.2     
  16 C16            5.0822     8.0666    -1.3874 C.ar    
  17 Cl17           0.0318    -1.8394     0.1423 Cl      
  18 S18            5.4298     9.7960     0.5076 S.3     
  19 C19            4.9971     7.5544    -2.7002 C.ar    
  20 C20            5.2036     8.3668    -3.7723 C.ar    
  21 C21            5.5012     9.7112    -3.5932 C.ar    
  22 C22            5.5899    10.2367    -2.3261 C.ar    
  23 C23            5.3813     9.4200    -1.2101 C.ar    
  24 H24           -1.4411     2.7338    -0.4218 H       
  25 H25           -1.7839     0.3208    -0.2469 H       
  26 H26            2.4044    -0.2794     0.2701 H       
  27 H27            2.3015     6.2277    -0.3050 H       
  28 H28            5.7550     4.3767     1.4198 H       
  29 H29            4.5029     5.4738     2.2728 H       
  30 H30            6.1944     5.2624    -1.5173 H       
  31 H31            4.8121     4.0030    -1.5613 H       
  32 H32            4.9532     7.7909     1.9655 H       
  33 H33            4.7668     6.5106    -2.8547 H       
  34 H34            5.1359     7.9622    -4.7713 H       
  35 H35            5.6638    10.3457    -4.4519 H       
  36 H36            5.8216    11.2830    -2.1920 H       
@<TRIPOS>BOND
   1    1    2 ar
   2    1    5 ar
   3    1   24 1
   4    2    3 ar
   5    2   25 1
   6    3    4 ar
   7    3   17 1
   8    4    7 ar
   9    4   26 1
  10    5    7 ar
  11    5    6 1
  12    6    9 2
  13    7    8 1
  14    8    9 1
  15    9   10 1
  16   10   11 1
  17   10   27 1
  18   11   12 2
  19   11   13 2
  20   11   14 1
  21   12   28 1
  22   12   29 1
  23   13   30 1
  24   13   31 1
  25   14   16 1
  26   14   15 2
  27   15   18 1
  28   15   32 1
  29   16   19 ar
  30   16   23 ar
  31   18   23 1
  32   19   20 ar
  33   19   33 1
  34   20   21 ar
  35   20   34 1
  36   21   22 ar
  37   21   35 1
  38   22   23 ar
  39   22   36 1

#	End of record

