#	Name: ASD01814698
#	Creating user name:	WinNT
#	Creation time:	15. 06. 2019 19:32

#	Modifying user name:	WinNT
#	Modification time:	15. 06. 2019 19:32

#	Program:	/corina/corina34_cracker 3.40 0067  02.08.2006

@<TRIPOS>MOLECULE
ASD01814698
  46   50    0    0    0
SMALL
NO_CHARGES


@<TRIPOS>ATOM
   1 C1             1.2129    -0.5588     0.0148 C.ar    
   2 C2             2.3787     0.2302     0.0120 C.ar    
   3 N3             2.2955     1.5744     0.0033 N.2     
   4 C4             1.1407     2.1761    -0.0033 C.2     
   5 C5            -0.1002     1.3937    -0.0007 C.2     
   6 N6            -0.0288     0.0445     0.0080 N.am    
   7 C7             3.6337    -0.3973     0.0189 C.ar    
   8 C8             3.7148    -1.7593     0.0282 C.ar    
   9 C9             2.5647    -2.5374     0.0305 C.ar    
  10 C10            1.3201    -1.9461     0.0302 C.ar    
  11 O11           -1.1817     1.9535    -0.0063 O.2     
  12 C12           -1.2496    -0.7653     0.0104 C.3     
  13 C13           -1.7572    -0.9129    -1.4009 C.ar    
  14 C14           -1.2890    -1.9443    -2.1985 C.ar    
  15 C15           -1.7517    -2.0843    -3.4933 C.ar    
  16 C16           -2.6916    -1.1850    -3.9966 C.ar    
  17 C17           -3.1597    -0.1483    -3.1895 C.ar    
  18 C18           -2.6946    -0.0202    -1.8942 C.ar    
  19 F19           -0.3784    -2.8145    -1.7100 F       
  20 F20           -3.1514     0.9802    -1.1095 F       
  21 C21           -3.1903    -1.3300    -5.3832 C.ar    
  22 C22           -2.3106    -1.4756    -6.4373 C.ar    
  23 C23           -2.7653    -1.6135    -7.7462 C.ar    
  24 C24           -4.0828    -1.6137    -8.0662 C.ar    
  25 C25           -5.0640    -1.4711    -7.0624 C.ar    
  26 C26           -4.6267    -1.3283    -5.6650 C.ar    
  27 C27           -5.7697    -1.2151    -4.9044 C.2     
  28 N28           -6.8236    -1.2841    -5.7310 N.pl3   
  29 N29           -6.3844    -1.4336    -7.0517 N.2     
  30 C30           -8.2259    -1.2039    -5.3147 C.3     
  31 H31            1.0963     3.2551    -0.0102 H       
  32 H32            4.5351     0.1975     0.0165 H       
  33 H33            4.6833    -2.2370     0.0335 H       
  34 H34            2.6464    -3.6143     0.0372 H       
  35 H35            0.4301    -2.5578     0.0373 H       
  36 H36           -1.0314    -1.7503     0.4229 H       
  37 H37           -2.0090    -0.2760     0.6203 H       
  38 H38           -1.3859    -2.8885    -4.1145 H       
  39 H39           -3.8872     0.5509    -3.5746 H       
  40 H40           -1.2482    -1.4824    -6.2428 H       
  41 H41           -2.0395    -1.7243    -8.5382 H       
  42 H42           -4.3836    -1.7235    -9.0977 H       
  43 H43           -5.8100    -1.0925    -3.8322 H       
  44 H44           -8.5497    -0.1632    -5.3273 H       
  45 H45           -8.8424    -1.7845    -6.0010 H       
  46 H46           -8.3290    -1.6043    -4.3062 H       
@<TRIPOS>BOND
   1    1    6 1
   2    1    2 ar
   3    1   10 ar
   4    2    3 1
   5    2    7 ar
   6    3    4 2
   7    4    5 1
   8    4   31 1
   9    5    6 am
  10    5   11 2
  11    6   12 1
  12    7    8 ar
  13    7   32 1
  14    8    9 ar
  15    8   33 1
  16    9   10 ar
  17    9   34 1
  18   10   35 1
  19   12   13 1
  20   12   36 1
  21   12   37 1
  22   13   14 ar
  23   13   18 ar
  24   14   15 ar
  25   14   19 1
  26   15   16 ar
  27   15   38 1
  28   16   17 ar
  29   16   21 1
  30   17   18 ar
  31   17   39 1
  32   18   20 1
  33   21   22 ar
  34   21   26 ar
  35   22   23 ar
  36   22   40 1
  37   23   24 ar
  38   23   41 1
  39   24   25 ar
  40   24   42 1
  41   25   29 2
  42   25   26 ar
  43   26   27 2
  44   27   28 1
  45   27   43 1
  46   28   29 1
  47   28   30 1
  48   30   44 1
  49   30   45 1
  50   30   46 1

#	End of record

