#	Name: ASD03930112
#	Creating user name:	WinNT
#	Creation time:	15. 06. 2019 20:47

#	Modifying user name:	WinNT
#	Modification time:	15. 06. 2019 20:47

#	Program:	/corina/corina34_cracker 3.40 0067  02.08.2006

@<TRIPOS>MOLECULE
ASD03930112
  54   57    0    0    0
SMALL
NO_CHARGES


@<TRIPOS>ATOM
   1 C1             2.9203     5.0287    -1.9956 C.ar    
   2 C2             2.2025     3.8482    -1.9603 C.ar    
   3 C3             2.8306     2.6697    -1.6070 C.ar    
   4 C4             4.1778     2.6668    -1.2875 C.ar    
   5 C5             4.8959     3.8477    -1.3228 C.ar    
   6 C6             4.2647     5.0278    -1.6775 C.ar    
   7 C7             5.0858     1.5281    -0.8750 C.3     
   8 C8             6.3201     2.2047    -0.2418 C.3     
   9 C9             6.3353     3.5829    -0.9364 C.3     
  10 N10            7.5401     1.4536    -0.5482 N.am    
  11 C11            0.7357     3.8468    -2.3064 C.3     
  12 N12            0.5735     3.6164    -3.7440 N.pl3   
  13 N13            1.1625     4.3659    -4.7705 N.2     
  14 C14            0.7838     3.8591    -5.9157 C.2     
  15 C15           -0.0571     2.7721    -5.6558 C.2     
  16 C16           -0.1652     2.6410    -4.3133 C.2     
  17 C17            1.1843     4.3602    -7.2794 C.3     
  18 F18            2.1218     5.3893    -7.1412 F       
  19 F19            1.7477     3.3117    -8.0145 F       
  20 F20            0.0551     4.8447    -7.9483 F       
  21 S21            8.7755     1.3961     0.5531 S.o2    
  22 O22            9.8003     0.6062    -0.0344 O.2     
  23 O23            8.9804     2.7305     0.9963 O.2     
  24 C24            8.1892     0.4930     1.9479 C.2     
  25 C25           -0.7205     1.8975    -6.6883 C.3     
  26 O26           -1.5005     0.8951    -6.0334 O.3     
  27 C27            7.8621    -0.8667     1.9696 C.2     
  28 N28            7.4670    -1.1728     3.1787 N.2     
  29 N29            7.5304    -0.0158     3.9659 N.pl3   
  30 C30            7.9815     0.9911     3.1888 C.2     
  31 C31            7.1752     0.0826     5.3838 C.3     
  32 F32            9.2849    -1.9491     0.4082 F       
  33 F33            7.4463    -3.0654     1.1780 F       
  34 C34            7.9491    -1.8153     0.8018 C.3     
  35 F35            7.1968    -1.3119    -0.2650 F       
  36 H36            2.4318     5.9503    -2.2759 H       
  37 H37            2.2690     1.7476    -1.5796 H       
  38 H38            4.8251     5.9506    -1.7056 H       
  39 H39            4.5865     0.8920    -0.1440 H       
  40 H40            5.3802     0.9442    -1.7470 H       
  41 H41            6.1918     2.3149     0.8350 H       
  42 H42            6.9658     3.5516    -1.8250 H       
  43 H43            6.6892     4.3498    -0.2474 H       
  44 H44            7.6242     0.9901    -1.3961 H       
  45 H45            0.2325     3.0545    -1.7523 H       
  46 H46            0.2989     4.8096    -2.0411 H       
  47 H47           -0.7448     1.8941    -3.7911 H       
  48 H48           -1.3677     2.5070    -7.3190 H       
  49 H49            0.0418     1.4201    -7.3039 H       
  50 H50           -1.9571     0.2946    -6.6382 H       
  51 H51            8.1415     2.0129     3.4998 H       
  52 H52            8.0552    -0.1214     5.9938 H       
  53 H53            6.8095     1.0868     5.5979 H       
  54 H54            6.3966    -0.6446     5.6146 H       
@<TRIPOS>BOND
   1    1    2 ar
   2    1    6 ar
   3    1   36 1
   4    2    3 ar
   5    2   11 1
   6    3    4 ar
   7    3   37 1
   8    4    5 ar
   9    4    7 1
  10    5    6 ar
  11    5    9 1
  12    6   38 1
  13    7    8 1
  14    7   39 1
  15    7   40 1
  16    8    9 1
  17    8   10 1
  18    8   41 1
  19    9   42 1
  20    9   43 1
  21   10   21 am
  22   10   44 1
  23   11   12 1
  24   11   45 1
  25   11   46 1
  26   12   13 1
  27   12   16 1
  28   13   14 2
  29   14   15 1
  30   14   17 1
  31   15   16 2
  32   15   25 1
  33   16   47 1
  34   17   18 1
  35   17   19 1
  36   17   20 1
  37   21   22 2
  38   21   23 2
  39   21   24 1
  40   24   27 1
  41   24   30 2
  42   25   26 1
  43   25   48 1
  44   25   49 1
  45   26   50 1
  46   27   28 2
  47   27   34 1
  48   28   29 1
  49   29   30 1
  50   29   31 1
  51   30   51 1
  52   31   52 1
  53   31   53 1
  54   31   54 1
  55   32   34 1
  56   33   34 1
  57   34   35 1

#	End of record

