#	Name: ASD01840244
#	Creating user name:	WinNT
#	Creation time:	15. 06. 2019 19:37

#	Modifying user name:	WinNT
#	Modification time:	15. 06. 2019 19:37

#	Program:	/corina/corina34_cracker 3.40 0067  02.08.2006

@<TRIPOS>MOLECULE
ASD01840244
  42   45    0    0    0
SMALL
NO_CHARGES


@<TRIPOS>ATOM
   1 C1            -1.2011     1.5038    -0.0872 C.3     
   2 C2            -0.7314     0.0718    -0.0933 C.ar    
   3 C3            -0.6890    -0.6259    -1.2892 C.ar    
   4 C4            -0.2585    -1.9359    -1.2925 C.ar    
   5 C5            -0.2001    -2.7225    -2.5766 C.3     
   6 C6             0.1265    -2.5246    -0.0701 C.ar    
   7 C7             0.0567    -1.7593     1.0922 C.ar    
   8 N8            -0.3640    -0.4921     1.0344 N.ar    
   9 S9             0.5849    -2.7067     2.4755 S.3     
  10 C10            0.8983    -4.1274     1.4910 C.2     
  11 C11            1.3547    -5.4667     1.5920 C.2     
  12 N12            1.7505    -6.1098     2.7715 N.pl3   
  13 C13            2.2024    -7.5028     2.7301 C.3     
  14 C14            2.5679    -7.9539     4.1208 C.2     
  15 C15            1.7316    -8.5258     4.9884 C.2     
  16 C16            2.2940    -8.8564     6.2092 C.2     
  17 C17            3.5870    -8.5530     6.3331 C.2     
  18 S18            4.1644    -7.8136     4.8453 S.3     
  19 N19            1.3431    -5.9993     0.3982 N.2     
  20 N20            0.8867    -5.0485    -0.5187 N.pl3   
  21 C21            0.7259    -5.2484    -1.9610 C.3     
  22 C22           -0.6917    -5.7447    -2.2522 C.3     
  23 O23           -0.8486    -5.9397    -3.6591 O.3     
  24 C24            0.6130    -3.8850     0.1782 C.2     
  25 H25           -0.3493     2.1662    -0.2415 H       
  26 H26           -1.9261     1.6518    -0.8875 H       
  27 H27           -1.6675     1.7290     0.8719 H       
  28 H28           -0.9905    -0.1486    -2.2099 H       
  29 H29            0.8217    -2.7232    -2.9561 H       
  30 H30           -0.5189    -3.7479    -2.3893 H       
  31 H31           -0.8609    -2.2653    -3.3131 H       
  32 H32            1.7254    -5.6330     3.6158 H       
  33 H33            1.4020    -8.1330     2.3423 H       
  34 H34            3.0745    -7.5827     2.0812 H       
  35 H35            0.6942    -8.7162     4.7560 H       
  36 H36            1.7286    -9.3243     7.0016 H       
  37 H37            4.1882    -8.7366     7.2113 H       
  38 H38            0.8941    -4.3045    -2.4796 H       
  39 H39            1.4481    -5.9873    -2.3082 H       
  40 H40           -0.8599    -6.6886    -1.7336 H       
  41 H41           -1.4139    -5.0058    -1.9051 H       
  42 H42           -1.7257    -6.2548    -3.9172 H       
@<TRIPOS>BOND
   1    1    2 1
   2    1   25 1
   3    1   26 1
   4    1   27 1
   5    2    8 ar
   6    2    3 ar
   7    3    4 ar
   8    3   28 1
   9    4    5 1
  10    4    6 ar
  11    5   29 1
  12    5   30 1
  13    5   31 1
  14    6   24 1
  15    6    7 ar
  16    7    8 ar
  17    7    9 1
  18    9   10 1
  19   10   24 2
  20   10   11 1
  21   11   12 1
  22   11   19 2
  23   12   13 1
  24   12   32 1
  25   13   14 1
  26   13   33 1
  27   13   34 1
  28   14   18 1
  29   14   15 2
  30   15   16 1
  31   15   35 1
  32   16   17 2
  33   16   36 1
  34   17   18 1
  35   17   37 1
  36   19   20 1
  37   20   21 1
  38   20   24 1
  39   21   22 1
  40   21   38 1
  41   21   39 1
  42   22   23 1
  43   22   40 1
  44   22   41 1
  45   23   42 1

#	End of record

