#	Name: ASD01914897
#	Creating user name:	WinNT
#	Creation time:	15. 06. 2019 20:04

#	Modifying user name:	WinNT
#	Modification time:	15. 06. 2019 20:04

#	Program:	/corina/corina34_cracker 3.40 0067  02.08.2006

@<TRIPOS>MOLECULE
ASD01914897
  59   61    0    0    0
SMALL
NO_CHARGES


@<TRIPOS>ATOM
   1 C1             0.6217     1.2664    -0.9677 C.ar    
   2 C2             0.6106    -0.0915    -0.6303 C.ar    
   3 C3             1.6429    -0.9165    -1.1100 C.ar    
   4 N4             2.6052    -0.4124    -1.8661 N.ar    
   5 C5             2.6332     0.8647    -2.1951 C.ar    
   6 C6             1.6526     1.7383    -1.7618 C.ar    
   7 N7             1.6533    -2.2629    -0.7895 N.3     
   8 C8             0.3993    -2.9101    -1.1954 C.3     
   9 C9             2.8024    -2.9437    -1.4084 C.3     
  10 C10            2.9485    -4.3283    -0.7721 C.3     
  11 C11            1.6184    -5.0288    -0.7721 C.2     
  12 C12            0.4785    -4.3910    -0.9586 C.2     
  13 C13            1.5864    -6.4832    -0.5555 C.2     
  14 N14            0.4262    -7.1577    -0.6804 N.am    
  15 O15            2.6069    -7.0772    -0.2638 O.2     
  16 C16            0.4244    -8.5581    -0.6568 C.ar    
  17 C17           -0.6130    -9.2612    -1.2552 C.ar    
  18 C18           -0.6152   -10.6416    -1.2316 C.ar    
  19 C19            0.4204   -11.3271    -0.6097 C.ar    
  20 C20            1.4581   -10.6238    -0.0117 C.ar    
  21 C21            1.4628    -9.2435    -0.0399 C.ar    
  22 C22           -0.4328    -0.6308     0.1889 C.1     
  23 N23           -1.2605    -1.0586     0.8388 N.1     
  24 C24            3.9581    -5.1527    -1.5733 C.3     
  25 C25            5.3613    -4.5771    -1.3714 C.3     
  26 N26            0.4181   -12.7258    -0.5854 N.pl3   
  27 C27            1.5104   -13.4488     0.0706 C.3     
  28 C28            1.1594   -13.6776     1.5421 C.3     
  29 C29           -0.6767   -13.4676    -1.2158 C.3     
  30 C30           -0.3265   -13.7487    -2.6784 C.3     
  31 H31           -0.1574     1.9291    -0.6209 H       
  32 H32            3.4369     1.2350    -2.8143 H       
  33 H33            1.6911     2.7809    -2.0406 H       
  34 H34           -0.4252    -2.4953    -0.6154 H       
  35 H35            0.2227    -2.7227    -2.2545 H       
  36 H36            2.6318    -3.0494    -2.4798 H       
  37 H37            3.7087    -2.3635    -1.2348 H       
  38 H38            3.3017    -4.2206     0.2534 H       
  39 H39           -0.4395    -4.9597    -0.9399 H       
  40 H40           -0.4074    -6.6733    -0.7865 H       
  41 H41           -1.4183    -8.7282    -1.7387 H       
  42 H42           -1.4223   -11.1884    -1.6963 H       
  43 H43            2.2632   -11.1567     0.4722 H       
  44 H44            2.2698    -8.6966     0.4248 H       
  45 H45            3.9367    -6.1870    -1.2297 H       
  46 H46            3.6991    -5.1159    -2.6314 H       
  47 H47            6.0721    -5.1284    -1.9869 H       
  48 H48            5.3681    -3.5264    -1.6611 H       
  49 H49            5.6432    -4.6666    -0.3223 H       
  50 H50            1.6570   -14.4102    -0.4217 H       
  51 H51            2.4267   -12.8624     0.0026 H       
  52 H52            1.0128   -12.7163     2.0344 H       
  53 H53            0.2431   -14.2641     1.6101 H       
  54 H54            1.9721   -14.2156     2.0301 H       
  55 H55           -0.8265   -14.4107    -0.6903 H       
  56 H56           -1.5910   -12.8760    -1.1683 H       
  57 H57           -0.1768   -12.8055    -3.2039 H       
  58 H58            0.5878   -14.3402    -2.7258 H       
  59 H59           -1.1411   -14.3006    -3.1474 H       
@<TRIPOS>BOND
   1    1    2 ar
   2    1    6 ar
   3    1   31 1
   4    2    3 ar
   5    2   22 1
   6    3    4 ar
   7    3    7 1
   8    4    5 ar
   9    5    6 ar
  10    5   32 1
  11    6   33 1
  12    7    8 1
  13    7    9 1
  14    8   12 1
  15    8   34 1
  16    8   35 1
  17    9   10 1
  18    9   36 1
  19    9   37 1
  20   10   11 1
  21   10   24 1
  22   10   38 1
  23   11   12 2
  24   11   13 1
  25   12   39 1
  26   13   14 am
  27   13   15 2
  28   14   16 1
  29   14   40 1
  30   16   17 ar
  31   16   21 ar
  32   17   18 ar
  33   17   41 1
  34   18   19 ar
  35   18   42 1
  36   19   20 ar
  37   19   26 1
  38   20   21 ar
  39   20   43 1
  40   21   44 1
  41   22   23 3
  42   24   25 1
  43   24   45 1
  44   24   46 1
  45   25   47 1
  46   25   48 1
  47   25   49 1
  48   26   27 1
  49   26   29 1
  50   27   28 1
  51   27   50 1
  52   27   51 1
  53   28   52 1
  54   28   53 1
  55   28   54 1
  56   29   30 1
  57   29   55 1
  58   29   56 1
  59   30   57 1
  60   30   58 1
  61   30   59 1

#	End of record

