#	Name: ASD08830171
#	Creating user name:	WinNT
#	Creation time:	15. 06. 2019 21:19

#	Modifying user name:	WinNT
#	Modification time:	15. 06. 2019 21:19

#	Program:	/corina/corina34_cracker 3.40 0067  02.08.2006

@<TRIPOS>MOLECULE
ASD08830171
  51   54    0    0    0
SMALL
NO_CHARGES


@<TRIPOS>ATOM
   1 C1            -0.0499     1.3780    -0.1305 C.ar    
   2 C2            -0.0394    -0.0198    -0.1269 C.ar    
   3 C3             1.1726     2.0472    -0.2324 C.ar    
   4 C4             2.3345     1.3084    -0.3248 C.ar    
   5 N5             2.3007    -0.0103    -0.3178 N.ar    
   6 C6             1.1680    -0.6802    -0.2233 C.ar    
   7 C7             1.1934    -2.1870    -0.2205 C.3     
   8 C8             1.9194    -2.6794    -1.4459 C.2     
   9 C9             2.0797    -4.1242    -1.6754 C.ar    
  10 C10            2.7527    -4.5851    -2.8113 C.ar    
  11 C11            1.5646    -5.0433    -0.7557 C.ar    
  12 C12            1.7188    -6.3954    -0.9778 C.ar    
  13 C13            2.3816    -6.8437    -2.1071 C.ar    
  14 C14            2.8987    -5.9403    -3.0193 C.ar    
  15 O15            2.3715    -1.8851    -2.2428 O.2     
  16 C16           -1.3251     2.1307    -0.0350 C.ar    
  17 C17           -1.3150     3.5218    -0.0402 C.ar    
  18 C18           -2.5165     4.2220     0.0494 C.ar    
  19 C19           -3.7223     3.5235     0.1437 C.ar    
  20 C20           -3.7241     2.1433     0.1487 C.ar    
  21 C21           -2.5358     1.4449     0.0543 C.ar    
  22 C22           -2.5149     5.7006     0.0451 C.2     
  23 N23           -3.4771     6.3736    -0.6165 N.am    
  24 O24           -1.6458     6.3091     0.6382 O.2     
  25 C25           -3.5697     7.8399    -0.5334 C.3     
  26 C26           -3.6569     8.4003    -1.9576 C.3     
  27 O27           -4.7098     7.7365    -2.6610 O.3     
  28 C28           -4.5094     6.3303    -2.8235 C.3     
  29 C29           -4.4624     5.6644    -1.4482 C.3     
  30 H30           -0.9628    -0.5745    -0.0494 H       
  31 H31            1.2076     3.1266    -0.2391 H       
  32 H32            3.2842     1.8166    -0.4043 H       
  33 H33            1.7081    -2.5401     0.6731 H       
  34 H34            0.1721    -2.5676    -0.2259 H       
  35 H35            3.1568    -3.8814    -3.5240 H       
  36 H36            1.0478    -4.6950     0.1264 H       
  37 H37            1.3216    -7.1065    -0.2685 H       
  38 H38            2.4997    -7.9040    -2.2751 H       
  39 H39            3.4143    -6.2979    -3.8983 H       
  40 H40           -0.3797     4.0570    -0.1129 H       
  41 H41           -4.6546     4.0642     0.2132 H       
  42 H42           -4.6586     1.6070     0.2225 H       
  43 H43           -2.5440     0.3649     0.0584 H       
  44 H44           -4.4617     8.1202     0.0267 H       
  45 H45           -2.6841     8.2361    -0.0366 H       
  46 H46           -3.8644     9.4695    -1.9161 H       
  47 H47           -2.7117     8.2319    -2.4737 H       
  48 H48           -5.3302     5.9104    -3.4049 H       
  49 H49           -3.5672     6.1545    -3.3427 H       
  50 H50           -4.1701     4.6199    -1.5559 H       
  51 H51           -5.4435     5.7249    -0.9772 H       
@<TRIPOS>BOND
   1    1    2 ar
   2    1    3 ar
   3    1   16 1
   4    2    6 ar
   5    2   30 1
   6    3    4 ar
   7    3   31 1
   8    4    5 ar
   9    4   32 1
  10    5    6 ar
  11    6    7 1
  12    7    8 1
  13    7   33 1
  14    7   34 1
  15    8    9 1
  16    8   15 2
  17    9   10 ar
  18    9   11 ar
  19   10   14 ar
  20   10   35 1
  21   11   12 ar
  22   11   36 1
  23   12   13 ar
  24   12   37 1
  25   13   14 ar
  26   13   38 1
  27   14   39 1
  28   16   17 ar
  29   16   21 ar
  30   17   18 ar
  31   17   40 1
  32   18   19 ar
  33   18   22 1
  34   19   20 ar
  35   19   41 1
  36   20   21 ar
  37   20   42 1
  38   21   43 1
  39   22   23 am
  40   22   24 2
  41   23   25 1
  42   23   29 1
  43   25   26 1
  44   25   44 1
  45   25   45 1
  46   26   27 1
  47   26   46 1
  48   26   47 1
  49   27   28 1
  50   28   29 1
  51   28   48 1
  52   28   49 1
  53   29   50 1
  54   29   51 1

#	End of record

