#	Name: ASD03950071
#	Creating user name:	WinNT
#	Creation time:	15. 06. 2019 20:48

#	Modifying user name:	WinNT
#	Modification time:	15. 06. 2019 20:48

#	Program:	/corina/corina34_cracker 3.40 0067  02.08.2006

@<TRIPOS>MOLECULE
ASD03950071
  61   64    0    0    0
SMALL
NO_CHARGES


@<TRIPOS>ATOM
   1 N1            -0.0169     1.3942     0.0097 N.pl3   
   2 N2             0.0021    -0.0041     0.0020 N.2     
   3 C3             1.2311    -0.4341    -0.0120 C.2     
   4 C4             2.1093     0.7334    -0.0141 C.ar    
   5 C5             3.4967     0.8990    -0.0268 C.ar    
   6 C6             4.0411     2.1756    -0.0256 C.ar    
   7 C7             3.2112     3.2979    -0.0112 C.ar    
   8 C8             1.8299     3.1501     0.0020 C.ar    
   9 C9             1.2663     1.8606    -0.0000 C.ar    
  10 C10            0.9576     4.3398     0.0177 C.2     
  11 O11           -0.2510     4.2074     0.0293 O.2     
  12 N12            1.5004     5.5734     0.0192 N.am    
  13 C13            5.5152     2.3486    -0.0391 C.ar    
  14 C14            6.0691     3.6272    -0.0380 C.ar    
  15 C15            7.4403     3.7823    -0.0501 C.ar    
  16 C16            8.2646     2.6713    -0.0634 C.ar    
  17 C17            7.7201     1.4000    -0.0651 C.ar    
  18 C18            6.3498     1.2333    -0.0472 C.ar    
  19 C19            8.0409     5.1644    -0.0494 C.3     
  20 N20            8.2491     5.6072     1.3358 N.3     
  21 C21            8.8347     6.9538     1.3757 C.3     
  22 N22            1.2107    -4.6672    -0.0344 N.am    
  23 C23            1.6135    -4.0361     1.2298 C.3     
  24 C24            1.1379    -2.5799     1.2275 C.3     
  25 C25            1.6687    -1.8761    -0.0235 C.3     
  26 C26            1.1162    -2.5666    -1.2725 C.3     
  27 C27            1.5916    -4.0227    -1.2986 C.3     
  28 S28            0.3495    -6.0817    -0.0344 S.o2    
  29 O29            0.6708    -6.6876    -1.2790 O.2     
  30 O30            0.6975    -6.7039     1.1948 O.2     
  31 C31           -1.3862    -5.5549    -0.0123 C.3     
  32 C32           -2.2932    -6.7870    -0.0106 C.3     
  33 H33           -0.8151     1.9454     0.0166 H       
  34 H34            4.1444     0.0349    -0.0373 H       
  35 H35            3.6454     4.2868    -0.0100 H       
  36 H36            2.4646     5.6790     0.0099 H       
  37 H37            0.9269     6.3556     0.0295 H       
  38 H38            5.4266     4.4952    -0.0279 H       
  39 H39            9.3372     2.7972    -0.0729 H       
  40 H40            8.3681     0.5361    -0.0763 H       
  41 H41            5.9257     0.2401    -0.0440 H       
  42 H42            8.9971     5.1454    -0.5723 H       
  43 H43            7.3647     5.8547    -0.5537 H       
  44 H44            7.3877     5.5718     1.8600 H       
  45 H45            8.1640     7.6565     0.8812 H       
  46 H46            8.9783     7.2570     2.4128 H       
  47 H47            9.7964     6.9471     0.8626 H       
  48 H48            1.1581    -4.5680     2.0651 H       
  49 H49            2.6991    -4.0658     1.3233 H       
  50 H50            0.0483    -2.5531     1.2253 H       
  51 H51            1.5130    -2.0733     2.1168 H       
  52 H52            2.7576    -1.9251    -0.0333 H       
  53 H53            0.0268    -2.5399    -1.2511 H       
  54 H54            1.4759    -2.0505    -2.1627 H       
  55 H55            2.6754    -4.0513    -1.4112 H       
  56 H56            1.1217    -4.5457    -2.1315 H       
  57 H57           -1.5750    -4.9635     0.8837 H       
  58 H58           -1.5942    -4.9518    -0.8961 H       
  59 H59           -2.1044    -7.3784    -0.9066 H       
  60 H60           -2.0852    -7.3901     0.8732 H       
  61 H61           -3.3361    -6.4705     0.0027 H       
@<TRIPOS>BOND
   1    1    2 1
   2    1    9 1
   3    1   33 1
   4    2    3 2
   5    3    4 1
   6    3   25 1
   7    4    5 ar
   8    4    9 ar
   9    5    6 ar
  10    5   34 1
  11    6    7 ar
  12    6   13 1
  13    7    8 ar
  14    7   35 1
  15    8    9 ar
  16    8   10 1
  17   10   11 2
  18   10   12 am
  19   12   36 1
  20   12   37 1
  21   13   14 ar
  22   13   18 ar
  23   14   15 ar
  24   14   38 1
  25   15   16 ar
  26   15   19 1
  27   16   17 ar
  28   16   39 1
  29   17   18 ar
  30   17   40 1
  31   18   41 1
  32   19   20 1
  33   19   42 1
  34   19   43 1
  35   20   21 1
  36   20   44 1
  37   21   45 1
  38   21   46 1
  39   21   47 1
  40   22   23 1
  41   22   27 1
  42   22   28 am
  43   23   24 1
  44   23   48 1
  45   23   49 1
  46   24   25 1
  47   24   50 1
  48   24   51 1
  49   25   26 1
  50   25   52 1
  51   26   27 1
  52   26   53 1
  53   26   54 1
  54   27   55 1
  55   27   56 1
  56   28   29 2
  57   28   30 2
  58   28   31 1
  59   31   32 1
  60   31   57 1
  61   31   58 1
  62   32   59 1
  63   32   60 1
  64   32   61 1

#	End of record

