#	Name: ASD01915927
#	Creating user name:	WinNT
#	Creation time:	15. 06. 2019 20:06

#	Modifying user name:	WinNT
#	Modification time:	15. 06. 2019 20:06

#	Program:	/corina/corina34_cracker 3.40 0067  02.08.2006

@<TRIPOS>MOLECULE
ASD01915927
  40   43    0    0    0
SMALL
NO_CHARGES


@<TRIPOS>ATOM
   1 C1            -0.0027     1.4784     0.2373 C.2     
   2 C2             0.0709     0.1237    -0.0267 C.2     
   3 C3            -1.1999    -0.6631    -0.3026 C.3     
   4 C4            -2.3564    -0.0097     0.4516 C.3     
   5 N5            -2.4009     1.4360     0.2671 N.am    
   6 C6            -1.2794     2.1930     0.2820 C.2     
   7 O7            -1.3297     3.4085     0.3297 O.2     
   8 S8             1.6187     2.0849     0.4946 S.3     
   9 C9             2.2544     0.5167     0.2430 C.2     
  10 N10            1.2984    -0.3293    -0.0068 N.2     
  11 C11            4.4803     1.2624     0.5843 C.3     
  12 C12            5.8881     0.7250     0.6020 C.ar    
  13 C13            6.6360     0.7084    -0.5603 C.ar    
  14 C14            6.4330     0.2541     1.7818 C.ar    
  15 C15            7.7264    -0.2391     1.7979 C.ar    
  16 C16            8.4729    -0.2601     0.6316 C.ar    
  17 C17            7.9277     0.2157    -0.5456 C.ar    
  18 O18            3.5686     0.2005     0.2960 O.3     
  19 C19           -3.6376     2.0577     0.0687 C.ar    
  20 F20            8.2602    -0.6992     2.9505 F       
  21 C21           -4.5714     2.0921     1.0955 C.ar    
  22 C22           -5.7939     2.7080     0.8957 C.ar    
  23 C23           -6.0855     3.2890    -0.3272 C.ar    
  24 C24           -5.1562     3.2554    -1.3505 C.ar    
  25 C25           -3.9319     2.6472    -1.1544 C.ar    
  26 F26           -6.7039     2.7424     1.8938 F       
  27 H27           -1.4100    -0.6545    -1.3722 H       
  28 H28           -1.0750    -1.6906     0.0390 H       
  29 H29           -3.2942    -0.4388     0.0987 H       
  30 H30           -2.2505    -0.2260     1.5146 H       
  31 H31            4.2427     1.6910     1.5579 H       
  32 H32            4.3951     2.0326    -0.1823 H       
  33 H33            6.2108     1.0804    -1.4808 H       
  34 H34            5.8501     0.2713     2.6908 H       
  35 H35            9.4820    -0.6446     0.6430 H       
  36 H36            8.5096     0.1991    -1.4553 H       
  37 H37           -4.3438     1.6382     2.0488 H       
  38 H38           -7.0405     3.7689    -0.4819 H       
  39 H39           -5.3865     3.7090    -2.3031 H       
  40 H40           -3.2071     2.6218    -1.9546 H       
@<TRIPOS>BOND
   1    1    2 2
   2    1    8 1
   3    1    6 1
   4    2    3 1
   5    2   10 1
   6    3    4 1
   7    3   27 1
   8    3   28 1
   9    4    5 1
  10    4   29 1
  11    4   30 1
  12    5    6 am
  13    5   19 1
  14    6    7 2
  15    8    9 1
  16    9   10 2
  17    9   18 1
  18   11   12 1
  19   11   18 1
  20   11   31 1
  21   11   32 1
  22   12   13 ar
  23   12   14 ar
  24   13   17 ar
  25   13   33 1
  26   14   15 ar
  27   14   34 1
  28   15   16 ar
  29   15   20 1
  30   16   17 ar
  31   16   35 1
  32   17   36 1
  33   19   21 ar
  34   19   25 ar
  35   21   22 ar
  36   21   37 1
  37   22   23 ar
  38   22   26 1
  39   23   24 ar
  40   23   38 1
  41   24   25 ar
  42   24   39 1
  43   25   40 1

#	End of record

