#	Name: ASD05513018
#	Creating user name:	WinNT
#	Creation time:	15. 06. 2019 21:01

#	Modifying user name:	WinNT
#	Modification time:	15. 06. 2019 21:01

#	Program:	/corina/corina34_cracker 3.40 0067  02.08.2006

@<TRIPOS>MOLECULE
ASD05513018
  29   31    0    0    0
SMALL
NO_CHARGES


@<TRIPOS>ATOM
   1 C1            -0.1882     1.1313    -0.9099 C.2     
   2 C2             0.0021    -0.0041     0.0020 C.2     
   3 C3             1.1412    -0.7444    -0.0622 C.2     
   4 C4             2.5215    -0.2570    -0.2597 C.ar    
   5 C5             3.3489    -1.3899    -0.2541 C.ar    
   6 N6             2.5725    -2.5294    -0.0677 N.am    
   7 C7             1.2702    -2.2211     0.0574 C.2     
   8 C8             3.0688     1.0138    -0.4313 C.ar    
   9 C9             4.4334     1.1545    -0.5964 C.ar    
  10 C10            5.2514     0.0375    -0.5916 C.ar    
  11 C11            4.7184    -1.2258    -0.4222 C.ar    
  12 O12            0.3608    -3.0082     0.2299 O.2     
  13 O13            0.5989     1.3208    -1.8177 O.2     
  14 C14           -1.3394     2.0401    -0.7283 C.ar    
  15 Cl15           2.0405     2.4125    -0.4380 Cl      
  16 C16           -2.2536     1.8302     0.3066 C.ar    
  17 N17           -3.2796     2.6395     0.4682 N.ar    
  18 C18           -3.4866     3.6705    -0.3287 C.ar    
  19 C19           -2.6265     3.9472    -1.3782 C.ar    
  20 C20           -1.5292     3.1303    -1.5879 C.ar    
  21 Br21          -2.9438     5.4298    -2.5083 Br      
  22 H22           -0.7625    -0.2511     0.7236 H       
  23 H23            2.9266    -3.4316    -0.0290 H       
  24 H24            4.8623     2.1367    -0.7297 H       
  25 H25            6.3171     0.1550    -0.7215 H       
  26 H26            5.3683    -2.0884    -0.4202 H       
  27 H27           -2.1180     0.9967     0.9798 H       
  28 H28           -4.3412     4.3089    -0.1600 H       
  29 H29           -0.8421     3.3228    -2.3987 H       
@<TRIPOS>BOND
   1    1    2 1
   2    1   13 2
   3    1   14 1
   4    2    3 2
   5    2   22 1
   6    3    4 1
   7    3    7 1
   8    4    5 ar
   9    4    8 ar
  10    5    6 1
  11    5   11 ar
  12    6    7 am
  13    6   23 1
  14    7   12 2
  15    8    9 ar
  16    8   15 1
  17    9   10 ar
  18    9   24 1
  19   10   11 ar
  20   10   25 1
  21   11   26 1
  22   14   16 ar
  23   14   20 ar
  24   16   17 ar
  25   16   27 1
  26   17   18 ar
  27   18   19 ar
  28   18   28 1
  29   19   20 ar
  30   19   21 1
  31   20   29 1

#	End of record

