#	Name: ASD03330902
#	Creating user name:	WinNT
#	Creation time:	15. 06. 2019 20:38

#	Modifying user name:	WinNT
#	Modification time:	15. 06. 2019 20:38

#	Program:	/corina/corina34_cracker 3.40 0067  02.08.2006

@<TRIPOS>MOLECULE
ASD03330902
  59   61    0    0    0
SMALL
NO_CHARGES


@<TRIPOS>ATOM
   1 N1            -0.2549     1.1907    -0.6682 N.pl3   
   2 C2            -0.3078    -0.1386    -0.3897 C.2     
   3 C3             0.8809    -1.0367    -0.1668 C.3     
   4 N4             1.8118    -0.3821     0.7656 N.3     
   5 C5             2.7703     0.4636     0.0515 C.3     
   6 C6             2.1298     1.0921    -1.1828 C.3     
   7 C7             0.9671     1.9946    -0.7609 C.3     
   8 C8            -1.5380     1.6257    -0.8296 C.2     
   9 N9            -2.3506     0.6129    -0.6410 N.2     
  10 C10           -1.6231    -0.4911    -0.3647 C.2     
  11 C11           -2.1569    -1.8362    -0.0866 C.2     
  12 O12           -1.3963    -2.7555     0.1494 O.2     
  13 N13           -3.4879    -2.0478    -0.0937 N.am    
  14 C14            2.5039    -1.3727     1.6008 C.3     
  15 C15           -5.3758    -3.5288    -0.4561 C.2     
  16 C16           -4.0186    -3.3850     0.1828 C.3     
  17 C17           -4.1434    -3.5815     1.6950 C.3     
  18 C18           -5.1666    -2.5914     2.2552 C.3     
  19 O19           -6.0572    -2.5465    -0.6601 O.2     
  20 N20           -5.8325    -4.7491    -0.8008 N.am    
  21 C21           -7.1953    -4.9027    -1.3159 C.3     
  22 C22           -4.6039    -5.0109     1.9873 C.3     
  23 C23           -2.7845    -3.3385     2.3548 C.3     
  24 C24           -3.2158     3.2703    -1.6748 C.ar    
  25 C25           -1.9452     3.0090    -1.1613 C.ar    
  26 C26           -1.0627     4.0764    -0.9649 C.ar    
  27 C27           -1.4927     5.3522    -1.2910 C.ar    
  28 C28           -2.7695     5.5277    -1.7958 C.ar    
  29 N29           -3.5795     4.5010    -1.9700 N.ar    
  30 Cl30          -0.4420     6.7160    -1.0685 Cl      
  31 H31            0.5474    -1.9842     0.2565 H       
  32 H32            1.3839    -1.2178    -1.1167 H       
  33 H33            3.1159     1.2542     0.7175 H       
  34 H34            3.6225    -0.1422    -0.2564 H       
  35 H35            2.8738     1.6848    -1.7151 H       
  36 H36            1.7580     0.3050    -1.8387 H       
  37 H37            0.8298     2.7823    -1.5017 H       
  38 H38            1.1850     2.4398     0.2099 H       
  39 H39           -4.0945    -1.3146    -0.2819 H       
  40 H40            3.0111    -2.0957     0.9620 H       
  41 H41            3.2361    -0.8683     2.2313 H       
  42 H42            1.7780    -1.8891     2.2289 H       
  43 H43           -3.3428    -4.1359    -0.2266 H       
  44 H44           -6.1347    -2.7645     1.7852 H       
  45 H45           -5.2555    -2.7314     3.3326 H       
  46 H46           -4.8385    -1.5731     2.0470 H       
  47 H47           -5.2587    -5.5257    -0.7079 H       
  48 H48           -7.3834    -5.9530    -1.5385 H       
  49 H49           -7.9078    -4.5567    -0.5670 H       
  50 H50           -7.3087    -4.3125    -2.2253 H       
  51 H51           -3.8386    -5.7137     1.6580 H       
  52 H52           -4.7680    -5.1280     3.0585 H       
  53 H53           -5.5333    -5.2095     1.4535 H       
  54 H54           -2.4564    -2.3202     2.1466 H       
  55 H55           -2.8734    -3.4785     3.4321 H       
  56 H56           -2.0556    -4.0439     1.9557 H       
  57 H57           -3.9059     2.4552    -1.8357 H       
  58 H58           -0.0717     3.9102    -0.5689 H       
  59 H59           -3.1083     6.5210    -2.0508 H       
@<TRIPOS>BOND
   1    1    2 1
   2    1    7 1
   3    1    8 1
   4    2    3 1
   5    2   10 2
   6    3    4 1
   7    3   31 1
   8    3   32 1
   9    4    5 1
  10    4   14 1
  11    5    6 1
  12    5   33 1
  13    5   34 1
  14    6    7 1
  15    6   35 1
  16    6   36 1
  17    7   37 1
  18    7   38 1
  19    8    9 2
  20    8   25 1
  21    9   10 1
  22   10   11 1
  23   11   12 2
  24   11   13 am
  25   13   16 1
  26   13   39 1
  27   14   40 1
  28   14   41 1
  29   14   42 1
  30   15   19 2
  31   15   20 am
  32   15   16 1
  33   16   17 1
  34   16   43 1
  35   17   18 1
  36   17   22 1
  37   17   23 1
  38   18   44 1
  39   18   45 1
  40   18   46 1
  41   20   21 1
  42   20   47 1
  43   21   48 1
  44   21   49 1
  45   21   50 1
  46   22   51 1
  47   22   52 1
  48   22   53 1
  49   23   54 1
  50   23   55 1
  51   23   56 1
  52   24   25 ar
  53   24   29 ar
  54   24   57 1
  55   25   26 ar
  56   26   27 ar
  57   26   58 1
  58   27   28 ar
  59   27   30 1
  60   28   29 ar
  61   28   59 1

#	End of record

