#	Name: ASD01881446
#	Creating user name:	WinNT
#	Creation time:	15. 06. 2019 19:42

#	Modifying user name:	WinNT
#	Modification time:	15. 06. 2019 19:42

#	Program:	/corina/corina34_cracker 3.40 0067  02.08.2006

@<TRIPOS>MOLECULE
ASD01881446
  54   57    0    0    0
SMALL
NO_CHARGES


@<TRIPOS>ATOM
   1 C1            -0.0167     1.3783     0.0096 C.ar    
   2 C2             0.0021    -0.0041     0.0020 C.ar    
   3 N3             1.1424    -0.6668    -0.0124 N.ar    
   4 C4             2.3055    -0.0475    -0.0202 C.ar    
   5 C5             2.3690     1.3410    -0.0134 C.ar    
   6 C6             1.1825     2.0714     0.0019 C.ar    
   7 C7             5.1136     0.7935    -0.0414 C.3     
   8 S8             3.9264     2.1650    -0.0232 S.3     
   9 C9             7.1708     1.5895     1.1410 C.ar    
  10 C10            6.5165     1.3436    -0.0514 C.ar    
  11 C11            8.4580     2.0942     1.1319 C.ar    
  12 C12            9.0904     2.3528    -0.0696 C.ar    
  13 C13            8.4360     2.1065    -1.2623 C.ar    
  14 C14            7.1493     1.6020    -1.2532 C.ar    
  15 O15            9.8884     1.1932     2.8321 O.3     
  16 C16            9.1713     2.3627     2.4319 C.3     
  17 C17           10.5900     1.2674     3.9912 C.ar    
  18 C18           11.3104     0.1650     4.4387 C.ar    
  19 C19           12.0228     0.2408     5.6151 C.ar    
  20 C20           12.0210     1.4330     6.3625 C.ar    
  21 C21           11.2925     2.5318     5.8999 C.ar    
  22 C22           10.5925     2.4466     4.7266 C.ar    
  23 Cl23          11.3111    -1.3053     3.5157 Cl      
  24 Cl24          12.9222    -1.1342     6.1757 Cl      
  25 C25           12.6935     1.7525     7.6281 C.2     
  26 C26           12.3580     3.1781     7.9931 C.3     
  27 C27           11.4461     3.6823     6.8663 C.3     
  28 O28           13.3971     1.0007     8.2694 O.2     
  29 C29           11.6197     3.2225     9.3324 C.3     
  30 C30           12.5631     2.7732    10.4500 C.3     
  31 C31           11.8248     2.8176    11.7893 C.3     
  32 H32           -0.9557     1.9117     0.0170 H       
  33 H33           -0.9303    -0.5491     0.0084 H       
  34 H34            3.2184    -0.6245    -0.0317 H       
  35 H35            1.1976     3.1513     0.0072 H       
  36 H36            4.9710     0.1777     0.8466 H       
  37 H37            4.9547     0.1873    -0.9333 H       
  38 H38            6.6751     1.3915     2.0798 H       
  39 H39           10.0956     2.7477    -0.0767 H       
  40 H40            8.9301     2.3086    -2.2011 H       
  41 H41            6.6380     1.4098    -2.1849 H       
  42 H42            9.8692     3.1893     2.2994 H       
  43 H43            8.4422     2.6222     3.1995 H       
  44 H44           10.0312     3.2993     4.3741 H       
  45 H45           13.2660     3.7791     8.0415 H       
  46 H46           11.9061     4.5338     6.3648 H       
  47 H47           10.4737     3.9650     7.2696 H       
  48 H48           11.2834     4.2407     9.5283 H       
  49 H49           10.7579     2.5562     9.2945 H       
  50 H50           12.8994     1.7550    10.2541 H       
  51 H51           13.4249     3.4395    10.4879 H       
  52 H52           11.4885     3.8358    11.9852 H       
  53 H53           10.9630     2.1513    11.7514 H       
  54 H54           12.4968     2.4975    12.5855 H       
@<TRIPOS>BOND
   1    1    2 ar
   2    1    6 ar
   3    1   32 1
   4    2    3 ar
   5    2   33 1
   6    3    4 ar
   7    4    5 ar
   8    4   34 1
   9    5    6 ar
  10    5    8 1
  11    6   35 1
  12    7    8 1
  13    7   10 1
  14    7   36 1
  15    7   37 1
  16    9   10 ar
  17    9   11 ar
  18    9   38 1
  19   10   14 ar
  20   11   12 ar
  21   11   16 1
  22   12   13 ar
  23   12   39 1
  24   13   14 ar
  25   13   40 1
  26   14   41 1
  27   15   17 1
  28   15   16 1
  29   16   42 1
  30   16   43 1
  31   17   18 ar
  32   17   22 ar
  33   18   19 ar
  34   18   23 1
  35   19   20 ar
  36   19   24 1
  37   20   21 ar
  38   20   25 1
  39   21   22 ar
  40   21   27 1
  41   22   44 1
  42   25   26 1
  43   25   28 2
  44   26   27 1
  45   26   29 1
  46   26   45 1
  47   27   46 1
  48   27   47 1
  49   29   30 1
  50   29   48 1
  51   29   49 1
  52   30   31 1
  53   30   50 1
  54   30   51 1
  55   31   52 1
  56   31   53 1
  57   31   54 1

#	End of record

