#	Name: ASD03090193
#	Creating user name:	WinNT
#	Creation time:	15. 06. 2019 20:28

#	Modifying user name:	WinNT
#	Modification time:	15. 06. 2019 20:28

#	Program:	/corina/corina34_cracker 3.40 0067  02.08.2006

@<TRIPOS>MOLECULE
ASD03090193
  52   55    0    0    0
SMALL
NO_CHARGES


@<TRIPOS>ATOM
   1 N1             0.4451     1.5143     1.4656 N.ar    
   2 C2             0.4075     0.1951     1.4322 C.ar    
   3 C3             1.5361    -0.5383     1.1218 C.ar    
   4 C4             2.7280     0.1377     0.8413 C.ar    
   5 C5             2.7212     1.5360     0.8886 C.ar    
   6 C6             1.5486     2.1895     1.2075 C.ar    
   7 C7             3.9626    -0.6057     0.5041 C.2     
   8 N8             5.7444    -3.4535    -0.5300 N.pl3   
   9 C9             4.8186    -4.4436    -0.8752 C.ar    
  10 C10            3.6026    -4.0904    -1.4451 C.ar    
  11 C11            2.6898    -5.0699    -1.7851 C.ar    
  12 C12            2.9865    -6.4030    -1.5576 C.ar    
  13 C13            4.1987    -6.7576    -0.9893 C.ar    
  14 C14            5.1167    -5.7822    -0.6535 C.ar    
  15 N15            4.0281    -1.8617     0.1104 N.2     
  16 C16            5.3000    -2.2001    -0.1048 C.2     
  17 N17            6.0674    -1.1645     0.1483 N.2     
  18 N18            5.2213    -0.1145     0.5402 N.pl3   
  19 C19            5.6238     1.2415     0.9217 C.3     
  20 C20            5.7290     2.1138    -0.3308 C.3     
  21 N21            6.1326     3.4734     0.0518 N.3     
  22 F22            2.0920    -7.3593    -1.8901 F       
  23 Cl23          -1.0797    -0.6286     1.7834 Cl      
  24 C24            6.2441     4.3412    -1.1282 C.3     
  25 C25            6.6589     5.7244    -0.6972 C.2     
  26 N26            5.8771     6.6800    -0.2848 N.2     
  27 O27            6.5015     7.6779    -0.0082 O.3     
  28 C28            7.8160     7.5078    -0.2075 C.2     
  29 C29            7.9750     6.2392    -0.6549 C.2     
  30 C30            8.9031     8.5251     0.0257 C.3     
  31 C31            4.5186    -8.2095    -0.7430 C.3     
  32 F32            5.7888    -8.3157    -0.1663 F       
  33 F33            3.5660    -8.7565     0.1233 F       
  34 F34            4.4982    -8.9041    -1.9572 F       
  35 H35            1.4989    -1.6174     1.0964 H       
  36 H36            3.6207     2.0957     0.6788 H       
  37 H37            1.5341     3.2687     1.2464 H       
  38 H38            6.6951    -3.6377    -0.5861 H       
  39 H39            3.3704    -3.0506    -1.6221 H       
  40 H40            1.7440    -4.7956    -2.2284 H       
  41 H41            6.0620    -6.0592    -0.2108 H       
  42 H42            4.8806     1.6644     1.5977 H       
  43 H43            6.5916     1.2060     1.4221 H       
  44 H44            6.4722     1.6908    -1.0068 H       
  45 H45            4.7613     2.1493    -0.8312 H       
  46 H46            5.4937     3.8634     0.7284 H       
  47 H47            6.9908     3.9337    -1.8097 H       
  48 H48            5.2799     4.3922    -1.6341 H       
  49 H49            8.8937     5.7390    -0.9235 H       
  50 H50            8.4610     9.4517     0.3919 H       
  51 H51            9.6072     8.1417     0.7642 H       
  52 H52            9.4273     8.7177    -0.9103 H       
@<TRIPOS>BOND
   1    1    2 ar
   2    1    6 ar
   3    2    3 ar
   4    2   23 1
   5    3    4 ar
   6    3   35 1
   7    4    5 ar
   8    4    7 1
   9    5    6 ar
  10    5   36 1
  11    6   37 1
  12    7   15 2
  13    7   18 1
  14    8    9 1
  15    8   16 1
  16    8   38 1
  17    9   10 ar
  18    9   14 ar
  19   10   11 ar
  20   10   39 1
  21   11   12 ar
  22   11   40 1
  23   12   13 ar
  24   12   22 1
  25   13   14 ar
  26   13   31 1
  27   14   41 1
  28   15   16 1
  29   16   17 2
  30   17   18 1
  31   18   19 1
  32   19   20 1
  33   19   42 1
  34   19   43 1
  35   20   21 1
  36   20   44 1
  37   20   45 1
  38   21   24 1
  39   21   46 1
  40   24   25 1
  41   24   47 1
  42   24   48 1
  43   25   26 2
  44   25   29 1
  45   26   27 1
  46   27   28 1
  47   28   29 2
  48   28   30 1
  49   29   49 1
  50   30   50 1
  51   30   51 1
  52   30   52 1
  53   31   32 1
  54   31   33 1
  55   31   34 1

#	End of record

