#	Name: ASD01811013
#	Creating user name:	WinNT
#	Creation time:	15. 06. 2019 19:25

#	Modifying user name:	WinNT
#	Modification time:	15. 06. 2019 19:25

#	Program:	/corina/corina34_cracker 3.40 0067  02.08.2006

@<TRIPOS>MOLECULE
ASD01811013
  56   59    0    0    0
SMALL
NO_CHARGES


@<TRIPOS>ATOM
   1 C1            -0.0184     1.5028     0.0103 C.2     
   2 C2             0.0021    -0.0041     0.0020 C.3     
   3 O3             1.0236     2.1234     0.0037 O.2     
   4 N4            -1.1946     2.1607     0.0195 N.am    
   5 C5             1.4295    -0.4870    -0.0142 C.ar    
   6 C6             2.0956    -0.7149     1.1754 C.ar    
   7 C7             3.4050    -1.1579     1.1606 C.ar    
   8 C8             4.0481    -1.3733    -0.0440 C.ar    
   9 C9             3.3817    -1.1463    -1.2336 C.ar    
  10 C10            2.0709    -0.7075    -1.2187 C.ar    
  11 N11           -2.4577     6.0844     0.8917 N.3     
  12 C12           -2.5730     5.6511    -0.5066 C.3     
  13 C13           -2.5321     4.1227    -0.5735 C.3     
  14 C14           -1.2145     3.6256     0.0275 C.3     
  15 C15           -1.0968     4.1310     1.4681 C.3     
  16 C16           -1.1793     5.6591     1.4757 C.3     
  17 C17           -2.6320     7.5384     1.0083 C.3     
  18 C18           -2.7549     7.9205     2.4847 C.3     
  19 C19           -2.9364     9.4348     2.6062 C.3     
  20 O20           -2.5281    10.4016     6.0658 O.3     
  21 C21           -2.0401    10.1248     4.8464 C.2     
  22 N22           -3.0541     9.8007     4.0199 N.am    
  23 C23           -4.2360     9.8778     4.7562 C.ar    
  24 C24           -3.8761    10.2601     6.0487 C.ar    
  25 C25           -4.8555    10.4195     7.0159 C.ar    
  26 C26           -6.1816    10.1995     6.6966 C.ar    
  27 C27           -6.5375     9.8198     5.4146 C.ar    
  28 C28           -5.5680     9.6584     4.4434 C.ar    
  29 O29           -0.8651    10.1613     4.5355 O.2     
  30 H30           -0.4983    -0.3791     0.8948 H       
  31 H31           -0.5153    -0.3696    -0.8850 H       
  32 H32           -2.0280     1.6644     0.0207 H       
  33 H33            1.5932    -0.5466     2.1165 H       
  34 H34            3.9256    -1.3353     2.0900 H       
  35 H35            5.0713    -1.7187    -0.0556 H       
  36 H36            3.8843    -1.3143    -2.1747 H       
  37 H37            1.5491    -0.5336    -2.1482 H       
  38 H38           -3.5162     6.0076    -0.9207 H       
  39 H39           -1.7447     6.0622    -1.0837 H       
  40 H40           -3.3682     3.7112    -0.0080 H       
  41 H41           -2.6020     3.8019    -1.6128 H       
  42 H42           -0.3794     4.0044    -0.5618 H       
  43 H43           -1.9102     3.7196     2.0657 H       
  44 H44           -0.1412     3.8161     1.8873 H       
  45 H45           -0.3575     6.0701     0.8894 H       
  46 H46           -1.1102     6.0214     2.5014 H       
  47 H47           -1.7700     8.0437     0.5728 H       
  48 H48           -3.5357     7.8397     0.4786 H       
  49 H49           -3.6169     7.4152     2.9203 H       
  50 H50           -1.8512     7.6192     3.0145 H       
  51 H51           -2.0744     9.9402     2.1707 H       
  52 H52           -3.8401     9.7361     2.0765 H       
  53 H53           -4.5826    10.7150     8.0182 H       
  54 H54           -6.9440    10.3240     7.4514 H       
  55 H55           -7.5760     9.6488     5.1723 H       
  56 H56           -5.8476     9.3626     3.4431 H       
@<TRIPOS>BOND
   1    1    2 1
   2    1    3 2
   3    1    4 am
   4    2    5 1
   5    2   30 1
   6    2   31 1
   7    4   14 1
   8    4   32 1
   9    5    6 ar
  10    5   10 ar
  11    6    7 ar
  12    6   33 1
  13    7    8 ar
  14    7   34 1
  15    8    9 ar
  16    8   35 1
  17    9   10 ar
  18    9   36 1
  19   10   37 1
  20   11   12 1
  21   11   16 1
  22   11   17 1
  23   12   13 1
  24   12   38 1
  25   12   39 1
  26   13   14 1
  27   13   40 1
  28   13   41 1
  29   14   15 1
  30   14   42 1
  31   15   16 1
  32   15   43 1
  33   15   44 1
  34   16   45 1
  35   16   46 1
  36   17   18 1
  37   17   47 1
  38   17   48 1
  39   18   19 1
  40   18   49 1
  41   18   50 1
  42   19   22 1
  43   19   51 1
  44   19   52 1
  45   20   21 1
  46   20   24 1
  47   21   22 am
  48   21   29 2
  49   22   23 1
  50   23   24 ar
  51   23   28 ar
  52   24   25 ar
  53   25   26 ar
  54   25   53 1
  55   26   27 ar
  56   26   54 1
  57   27   28 ar
  58   27   55 1
  59   28   56 1

#	End of record

