#	Name: ASD02560058
#	Creating user name:	WinNT
#	Creation time:	15. 06. 2019 20:24

#	Modifying user name:	WinNT
#	Modification time:	15. 06. 2019 20:24

#	Program:	/corina/corina34_cracker 3.40 0067  02.08.2006

@<TRIPOS>MOLECULE
ASD02560058
  42   44    0    0    0
SMALL
NO_CHARGES


@<TRIPOS>ATOM
   1 C1             0.0099     1.3237     0.0221 C.ar    
   2 C2             0.0363    -0.0587     0.0056 C.ar    
   3 C3             1.2453    -0.7291    -0.0191 C.ar    
   4 C4             2.4302    -0.0191    -0.0273 C.ar    
   5 C5             2.4064     1.3680    -0.0108 C.ar    
   6 C6             1.1920     2.0384     0.0140 C.ar    
   7 C7             3.7476    -0.7505    -0.0537 C.3     
   8 N8             3.4806     2.0607    -2.3399 N.ar    
   9 C9             4.0989     2.4105    -1.2165 C.ar    
  10 O10            3.5709     2.0689    -0.0184 O.3     
  11 C11            3.9954     2.3932    -3.5114 C.ar    
  12 N12            5.1259     3.0743    -3.5703 N.ar    
  13 C13            5.7502     3.4277    -2.4493 C.ar    
  14 N14            5.2346     3.0945    -1.2708 N.ar    
  15 N15            6.9328     4.1396    -2.5108 N.pl3   
  16 C16            7.5342     4.3868    -3.7438 C.ar    
  17 C17            7.4541     3.4375    -4.7579 C.ar    
  18 C18            8.0468     3.6783    -5.9769 C.ar    
  19 C19            8.7294     4.8785    -6.1954 C.ar    
  20 C20            8.8076     5.8303    -5.1744 C.ar    
  21 C21            8.2083     5.5848    -3.9595 C.ar    
  22 C22            1.1625     3.5450     0.0315 C.3     
  23 C23           -1.2548    -0.8359     0.0150 C.3     
  24 C24            9.3476     5.1323    -7.4619 C.1     
  25 N25            9.8380     5.3336    -8.4666 N.1     
  26 H26           -0.9358     1.8451     0.0369 H       
  27 H27            1.2633    -1.8089    -0.0316 H       
  28 H28            4.0510    -0.9151    -1.0876 H       
  29 H29            4.5043    -0.1546     0.4565 H       
  30 H30            3.6402    -1.7107     0.4507 H       
  31 H31            3.4907     2.1072    -4.4224 H       
  32 H32            7.3446     4.4673    -1.6959 H       
  33 H33            6.9266     2.5104    -4.5884 H       
  34 H34            7.9848     2.9407    -6.7634 H       
  35 H35            9.3341     6.7586    -5.3398 H       
  36 H36            8.2683     6.3196    -3.1703 H       
  37 H37            1.1409     3.9199    -0.9918 H       
  38 H38            0.2729     3.8848     0.5618 H       
  39 H39            2.0523     3.9200     0.5371 H       
  40 H40           -1.5808    -1.0112    -1.0102 H       
  41 H41           -1.0999    -1.7917     0.5156 H       
  42 H42           -2.0175    -0.2668     0.5465 H       
@<TRIPOS>BOND
   1    1    2 ar
   2    1    6 ar
   3    1   26 1
   4    2    3 ar
   5    2   23 1
   6    3    4 ar
   7    3   27 1
   8    4    5 ar
   9    4    7 1
  10    5    6 ar
  11    5   10 1
  12    6   22 1
  13    7   28 1
  14    7   29 1
  15    7   30 1
  16    8    9 ar
  17    8   11 ar
  18    9   10 1
  19    9   14 ar
  20   11   12 ar
  21   11   31 1
  22   12   13 ar
  23   13   14 ar
  24   13   15 1
  25   15   16 1
  26   15   32 1
  27   16   17 ar
  28   16   21 ar
  29   17   18 ar
  30   17   33 1
  31   18   19 ar
  32   18   34 1
  33   19   20 ar
  34   19   24 1
  35   20   21 ar
  36   20   35 1
  37   21   36 1
  38   22   37 1
  39   22   38 1
  40   22   39 1
  41   23   40 1
  42   23   41 1
  43   23   42 1
  44   24   25 3

#	End of record

