#	Name: ASD01870098
#	Creating user name:	WinNT
#	Creation time:	15. 06. 2019 19:38

#	Modifying user name:	WinNT
#	Modification time:	15. 06. 2019 19:38

#	Program:	/corina/corina34_cracker 3.40 0067  02.08.2006

@<TRIPOS>MOLECULE
ASD01870098
  29   30    0    0    0
SMALL
NO_CHARGES


@<TRIPOS>ATOM
   1 C1            -0.0181     1.4699     0.0148 C.2     
   2 C2             0.0014    -0.0045     0.0118 C.ar    
   3 C3             1.2229    -0.6932     0.0013 C.ar    
   4 C4             1.2300    -2.0792    -0.0010 C.ar    
   5 C5             0.0372    -2.7781     0.0071 C.ar    
   6 C6            -1.1724    -2.1003     0.0170 C.ar    
   7 C7            -1.1968    -0.7228     0.0252 C.ar    
   8 O8             1.0268     2.0918     0.0082 O.2     
   9 N9            -1.1941     2.1282     0.0193 N.am    
  10 C10           -1.2149     3.5220     0.1325 C.ar    
  11 C11           -2.1829     4.2603    -0.5361 C.ar    
  12 C12           -2.2005     5.6365    -0.4222 C.ar    
  13 C13           -1.2555     6.2796     0.3561 C.ar    
  14 C14           -0.2901     5.5475     1.0227 C.ar    
  15 C15           -0.2710     4.1705     0.9183 C.ar    
  16 N16           -1.2771     7.7548     0.4755 N.pl3   
  17 O17           -2.1266     8.4010    -0.1113 O.2     
  18 O18           -0.4454     8.3226     1.1607 O.2     
  19 Cl19           0.0539    -4.5141     0.0042 Cl      
  20 O20            2.3924    -0.0060    -0.0070 O.3     
  21 H21            2.1684    -2.6138    -0.0094 H       
  22 H22           -2.0993    -2.6545     0.0225 H       
  23 H23           -2.1412    -0.1989     0.0374 H       
  24 H24           -2.0262     1.6353    -0.0560 H       
  25 H25           -2.9207     3.7587    -1.1446 H       
  26 H26           -2.9530     6.2112    -0.9418 H       
  27 H27            0.4469     6.0528     1.6292 H       
  28 H28            0.4801     3.5990     1.4433 H       
  29 H29            2.7385     0.1921     0.8740 H       
@<TRIPOS>BOND
   1    1    2 1
   2    1    8 2
   3    1    9 am
   4    2    3 ar
   5    2    7 ar
   6    3    4 ar
   7    3   20 1
   8    4    5 ar
   9    4   21 1
  10    5    6 ar
  11    5   19 1
  12    6    7 ar
  13    6   22 1
  14    7   23 1
  15    9   10 1
  16    9   24 1
  17   10   11 ar
  18   10   15 ar
  19   11   12 ar
  20   11   25 1
  21   12   13 ar
  22   12   26 1
  23   13   14 ar
  24   13   16 1
  25   14   15 ar
  26   14   27 1
  27   15   28 1
  28   16   17 2
  29   16   18 2
  30   20   29 1

#	End of record

