#	Name: ASD05720242
#	Creating user name:	WinNT
#	Creation time:	15. 06. 2019 21:02

#	Modifying user name:	WinNT
#	Modification time:	15. 06. 2019 21:02

#	Program:	/corina/corina34_cracker 3.40 0067  02.08.2006

@<TRIPOS>MOLECULE
ASD05720242
  70   74    0    0    0
SMALL
NO_CHARGES


@<TRIPOS>ATOM
   1 O1            -0.5412     1.1264    -0.7088 O.3     
   2 C2            -0.4554    -0.2081    -0.7374 C.2     
   3 N3             0.8008    -0.6717    -0.6860 N.am    
   4 C4             1.7265     0.4690    -0.6115 C.3     
   5 C5             0.7967     1.6977    -0.6277 C.3     
   6 O6            -1.4277    -0.9337    -0.8034 O.2     
   7 C7             2.6589     0.4847    -1.8245 C.3     
   8 C8             1.8277     0.5780    -3.1056 C.3     
   9 C9             3.5935     1.6926    -1.7337 C.3     
  10 C10            2.8157    -3.6272    -0.7766 C.2     
  11 N11            2.4444    -2.3435    -0.7616 N.2     
  12 C12            1.1688    -2.0106    -0.7002 C.2     
  13 C13            0.1795    -3.0136    -0.6486 C.2     
  14 C14            0.5519    -4.3138    -0.6632 C.2     
  15 N15            1.8811    -4.6272    -0.7277 N.pl3   
  16 N16            2.5582    -5.8515    -0.7584 N.2     
  17 C17            3.8482    -5.6314    -0.8232 C.2     
  18 C18            4.0704    -4.2487    -0.8428 C.2     
  19 C19            5.3834    -3.5711    -0.9171 C.ar    
  20 C20            5.8295    -2.7920     0.1544 C.ar    
  21 C21            7.0519    -2.1620     0.0849 C.ar    
  22 C22            7.8455    -2.3016    -1.0563 C.ar    
  23 C23            7.3989    -3.0798    -2.1266 C.ar    
  24 C24            6.1796    -3.7144    -2.0551 C.ar    
  25 N25            9.8356    -1.3225    -2.2627 N.pl3   
  26 N26           11.0216    -0.6916    -1.8533 N.2     
  27 C27           10.9999    -0.6476    -0.5464 C.2     
  28 N28            9.8773    -1.2099    -0.1076 N.2     
  29 C29            9.1577    -1.6254    -1.1312 C.2     
  30 C30            9.4137    -1.5930    -3.6393 C.3     
  31 O31            9.9525    -2.8461    -4.0651 O.3     
  32 C32            9.5989    -3.2067    -5.4019 C.3     
  33 C33           10.2270    -4.5581    -5.7487 C.3     
  34 Si34           9.7661    -5.0282    -7.4915 Si      
  35 C35           10.3940    -3.7304    -8.6715 C.3     
  36 C36           10.5308    -6.6736    -7.9138 C.3     
  37 C37            7.9124    -5.1505    -7.6320 C.3     
  38 Cl38           4.8426    -2.6185     1.5719 Cl      
  39 H39            2.3012     0.4360     0.3141 H       
  40 H40            1.0002     2.3194    -1.4996 H       
  41 H41            0.9106     2.2752     0.2897 H       
  42 H42            3.2495    -0.4313    -1.8405 H       
  43 H43            2.4926     0.6731    -3.9640 H       
  44 H44            1.2227    -0.3223    -3.2126 H       
  45 H45            1.1755     1.4498    -3.0528 H       
  46 H46            4.2462     1.5828    -0.8677 H       
  47 H47            4.1979     1.7532    -2.6388 H       
  48 H48            3.0023     2.6025    -1.6301 H       
  49 H49           -0.8656    -2.7464    -0.5976 H       
  50 H50           -0.1923    -5.0955    -0.6239 H       
  51 H51            4.6144    -6.3917    -0.8592 H       
  52 H52            7.3968    -1.5597     0.9123 H       
  53 H53            8.0125    -3.1873    -3.0089 H       
  54 H54            5.8367    -4.3196    -2.8812 H       
  55 H55           11.7717    -0.2219     0.0779 H       
  56 H56            8.3254    -1.6311    -3.6850 H       
  57 H57            9.7773    -0.8002    -4.2931 H       
  58 H58            8.5144    -3.2783    -5.4841 H       
  59 H59            9.9663    -2.4474    -6.0923 H       
  60 H60           11.3116    -4.4865    -5.6665 H       
  61 H61            9.8597    -5.3174    -5.0583 H       
  62 H62           11.4785    -3.6588    -8.5893 H       
  63 H63           10.1242    -4.0054    -9.6911 H       
  64 H64            9.9465    -2.7677    -8.4244 H       
  65 H65           10.1635    -7.4329    -7.2234 H       
  66 H66           10.2611    -6.9487    -8.9334 H       
  67 H67           11.6154    -6.6020    -7.8316 H       
  68 H68            7.4649    -4.1878    -7.3849 H       
  69 H69            7.6427    -5.4256    -8.6517 H       
  70 H70            7.5450    -5.9098    -6.9416 H       
@<TRIPOS>BOND
   1    1    2 1
   2    1    5 1
   3    2    3 am
   4    2    6 2
   5    3    4 1
   6    3   12 1
   7    4    5 1
   8    4    7 1
   9    4   39 1
  10    5   40 1
  11    5   41 1
  12    7    8 1
  13    7    9 1
  14    7   42 1
  15    8   43 1
  16    8   44 1
  17    8   45 1
  18    9   46 1
  19    9   47 1
  20    9   48 1
  21   10   11 1
  22   10   15 1
  23   10   18 2
  24   11   12 2
  25   12   13 1
  26   13   14 2
  27   13   49 1
  28   14   15 1
  29   14   50 1
  30   15   16 1
  31   16   17 2
  32   17   18 1
  33   17   51 1
  34   18   19 1
  35   19   20 ar
  36   19   24 ar
  37   20   21 ar
  38   20   38 1
  39   21   22 ar
  40   21   52 1
  41   22   23 ar
  42   22   29 1
  43   23   24 ar
  44   23   53 1
  45   24   54 1
  46   25   26 1
  47   25   29 1
  48   25   30 1
  49   26   27 2
  50   27   28 1
  51   27   55 1
  52   28   29 2
  53   30   31 1
  54   30   56 1
  55   30   57 1
  56   31   32 1
  57   32   33 1
  58   32   58 1
  59   32   59 1
  60   33   34 1
  61   33   60 1
  62   33   61 1
  63   34   35 1
  64   34   36 1
  65   34   37 1
  66   35   62 1
  67   35   63 1
  68   35   64 1
  69   36   65 1
  70   36   66 1
  71   36   67 1
  72   37   68 1
  73   37   69 1
  74   37   70 1

#	End of record

