#	Name: ASD09116052
#	Creating user name:	WinNT
#	Creation time:	15. 06. 2019 21:20

#	Modifying user name:	WinNT
#	Modification time:	15. 06. 2019 21:20

#	Program:	/corina/corina34_cracker 3.40 0067  02.08.2006

@<TRIPOS>MOLECULE
ASD09116052
  26   27    0    0    0
SMALL
NO_CHARGES


@<TRIPOS>ATOM
   1 C1            -0.0166     1.3693     0.0096 C.ar    
   2 C2             0.0021    -0.0041     0.0020 C.ar    
   3 C3            -1.2072    -0.9009    -0.0397 C.3     
   4 C4            -2.6168    -0.3123    -0.0837 C.3     
   5 C5            -3.0226     0.2029     1.2983 C.3     
   6 C6            -1.9156     0.8081     2.1479 C.3     
   7 C7            -1.8100     2.1947     1.5098 C.3     
   8 C8            -1.3066     2.1580     0.0567 C.3     
   9 N9             1.1265     2.0450     0.0023 N.ar    
  10 C10            2.2845     1.4189     0.0069 C.ar    
  11 N11            2.3504     0.1029     0.0223 N.ar    
  12 C12            1.2524    -0.6314     0.0211 C.ar    
  13 Cl13           1.3544    -2.3645     0.0432 Cl      
  14 H14           -1.1004    -1.5427    -0.9158 H       
  15 H15           -1.1570    -1.5506     0.8354 H       
  16 H16           -2.7320     0.4192    -0.8556 H       
  17 H17           -3.3054    -1.1445    -0.3294 H       
  18 H18           -3.8025     0.9532     1.1603 H       
  19 H19           -3.4603    -0.6317     1.8497 H       
  20 H20           -2.2190     0.8833     3.2001 H       
  21 H21           -0.9813     0.2511     2.0705 H       
  22 H22           -2.7905     2.6666     1.5234 H       
  23 H23           -1.1191     2.7986     2.0968 H       
  24 H24           -1.0609     3.1967    -0.2264 H       
  25 H25           -2.0414     1.7989    -0.6236 H       
  26 H26            3.1982     1.9940    -0.0037 H       
@<TRIPOS>BOND
   1    1    2 ar
   2    1    9 ar
   3    1    8 1
   4    2    3 1
   5    2   12 ar
   6    3    4 1
   7    3   14 1
   8    3   15 1
   9    4    5 1
  10    4   16 1
  11    4   17 1
  12    5    6 1
  13    5   18 1
  14    5   19 1
  15    6    7 1
  16    6   20 1
  17    6   21 1
  18    7    8 1
  19    7   22 1
  20    7   23 1
  21    8   24 1
  22    8   25 1
  23    9   10 ar
  24   10   11 ar
  25   10   26 1
  26   11   12 ar
  27   12   13 1

#	End of record

