#	Name: ASD02032031
#	Creating user name:	WinNT
#	Creation time:	15. 06. 2019 20:16

#	Modifying user name:	WinNT
#	Modification time:	15. 06. 2019 20:16

#	Program:	/corina/corina34_cracker 3.40 0067  02.08.2006

@<TRIPOS>MOLECULE
ASD02032031
  21   22    0    0    0
SMALL
NO_CHARGES


@<TRIPOS>ATOM
   1 C1            -0.0170     1.4024     0.0098 C.ar    
   2 C2             0.0021    -0.0041     0.0020 C.ar    
   3 C3             1.2056    -0.6910    -0.0127 C.ar    
   4 C4             2.4097     0.0280    -0.0204 C.ar    
   5 C5             2.3768     1.4460    -0.0130 C.ar    
   6 C6             1.1388     2.1140     0.0025 C.ar    
   7 C7             3.6513    -0.6331    -0.0348 C.ar    
   8 C8             4.8015     0.0942    -0.0415 C.ar    
   9 C9             4.7687     1.4875    -0.0338 C.ar    
  10 C10            3.5859     2.1613    -0.0203 C.ar    
  11 C11           -1.2697    -0.7542     0.0101 C.2     
  12 O12           -2.4426    -0.0914     0.0249 O.3     
  13 O13           -1.2584    -1.9689     0.0035 O.2     
  14 H14           -0.9634     1.9227     0.0170 H       
  15 H15            1.2162    -1.7709    -0.0179 H       
  16 H16            1.1081     3.1936     0.0079 H       
  17 H17            3.6915    -1.7123    -0.0401 H       
  18 H18            5.7534    -0.4157    -0.0526 H       
  19 H19            5.6960     2.0411    -0.0387 H       
  20 H20            3.5771     3.2413    -0.0149 H       
  21 H21           -3.2486    -0.6256     0.0297 H       
@<TRIPOS>BOND
   1    1    2 ar
   2    1    6 ar
   3    1   14 1
   4    2    3 ar
   5    2   11 1
   6    3    4 ar
   7    3   15 1
   8    4    5 ar
   9    4    7 ar
  10    5    6 ar
  11    5   10 ar
  12    6   16 1
  13    7    8 ar
  14    7   17 1
  15    8    9 ar
  16    8   18 1
  17    9   10 ar
  18    9   19 1
  19   10   20 1
  20   11   12 1
  21   11   13 2
  22   12   21 1

#	End of record

