#	Name: ASD05740246
#	Creating user name:	WinNT
#	Creation time:	15. 06. 2019 21:03

#	Modifying user name:	WinNT
#	Modification time:	15. 06. 2019 21:03

#	Program:	/corina/corina34_cracker 3.40 0067  02.08.2006

@<TRIPOS>MOLECULE
ASD05740246
  63   66    0    0    0
SMALL
NO_CHARGES


@<TRIPOS>ATOM
   1 C1            -0.0174     1.3885    -0.0579 C.ar    
   2 C2             0.0012    -0.0016    -0.0582 C.ar    
   3 N3             1.1091     2.0834    -0.0597 N.ar    
   4 C4             2.2875     1.4945    -0.0617 C.ar    
   5 C5             2.3873     0.1050    -0.0621 C.ar    
   6 C6             1.2153    -0.6603    -0.0603 C.ar    
   7 C7             3.7151    -0.5534    -0.0644 C.ar    
   8 C8             4.8844     0.2063     0.0388 C.ar    
   9 N9             3.8127    -1.8776    -0.1593 N.ar    
  10 C10            4.9979    -2.4676    -0.1615 C.ar    
  11 N11            6.1222    -1.7719    -0.0705 N.ar    
  12 C12            6.1005    -0.4521     0.0323 C.ar    
  13 N13            5.0646    -3.8474    -0.2611 N.pl3   
  14 O14           -1.2058     2.0414    -0.0616 O.3     
  15 C15            6.3077    -4.4816    -0.3840 C.ar    
  16 C16            6.5150    -5.7226     0.2035 C.ar    
  17 C17            7.3307    -3.8717    -1.0979 C.ar    
  18 C18            8.5558    -4.4969    -1.2194 C.ar    
  19 C19            8.7650    -5.7355    -0.6272 C.ar    
  20 C20            7.7402    -6.3477     0.0825 C.ar    
  21 N21           10.0067    -6.3693    -0.7503 N.3     
  22 C22           11.3546    -8.3572    -0.2760 C.3     
  23 N23           12.4376    -7.4936     0.2150 N.3     
  24 C24           12.4345    -6.2010    -0.4840 C.3     
  25 C25           11.0897    -5.5057    -0.2593 C.3     
  26 C26           13.7410    -8.1589     0.0858 C.3     
  27 C27           10.0098    -7.6619    -0.0513 C.3     
  28 C28           -1.1614     3.4697    -0.0612 C.3     
  29 C29           -2.5873     4.0243    -0.0656 C.3     
  30 N30           -3.2599     3.6561     1.1874 N.3     
  31 C31           -2.6306     4.3192     2.3373 C.3     
  32 C32           -4.6953     3.9620     1.1240 C.3     
  33 H33           -0.9232    -0.5601    -0.0564 H       
  34 H34            3.1852     2.0949    -0.0634 H       
  35 H35            1.2593    -1.7394    -0.0602 H       
  36 H36            4.8389     1.2822     0.1213 H       
  37 H37            7.0230     0.1048     0.1059 H       
  38 H38            4.2505    -4.3746    -0.2459 H       
  39 H39            5.7180    -6.1987     0.7553 H       
  40 H40            7.1680    -2.9085    -1.5585 H       
  41 H41            9.3512    -4.0229    -1.7753 H       
  42 H42            7.9028    -7.3110     0.5431 H       
  43 H43           11.4935    -8.5449    -1.3407 H       
  44 H44           11.3700    -9.3031     0.2654 H       
  45 H45           13.2372    -5.5749    -0.0943 H       
  46 H46           12.5857    -6.3642    -1.5511 H       
  47 H47           11.0744    -4.5598    -0.8007 H       
  48 H48           10.9508    -5.3180     0.8054 H       
  49 H49           13.9277    -8.3918    -0.9626 H       
  50 H50           14.5246    -7.4980     0.4563 H       
  51 H51           13.7378    -9.0805     0.6677 H       
  52 H52            9.8586    -7.4987     1.0158 H       
  53 H53            9.2071    -8.2880    -0.4410 H       
  54 H54           -0.6393     3.8167     0.8306 H       
  55 H55           -0.6336     3.8171    -0.9494 H       
  56 H56           -2.5545     5.1102    -0.1548 H       
  57 H57           -3.1369     3.6069    -0.9093 H       
  58 H58           -2.6925     5.4002     2.2120 H       
  59 H59           -3.1479     4.0291     3.2518 H       
  60 H60           -1.5843     4.0202     2.4012 H       
  61 H61           -5.1500     3.4033     0.3059 H       
  62 H62           -5.1688     3.6795     2.0643 H       
  63 H63           -4.8320     5.0300     0.9548 H       
@<TRIPOS>BOND
   1    1    2 ar
   2    1    3 ar
   3    1   14 1
   4    2    6 ar
   5    2   33 1
   6    3    4 ar
   7    4    5 ar
   8    4   34 1
   9    5    6 ar
  10    5    7 1
  11    6   35 1
  12    7    8 ar
  13    7    9 ar
  14    8   12 ar
  15    8   36 1
  16    9   10 ar
  17   10   11 ar
  18   10   13 1
  19   11   12 ar
  20   12   37 1
  21   13   15 1
  22   13   38 1
  23   14   28 1
  24   15   16 ar
  25   15   17 ar
  26   16   20 ar
  27   16   39 1
  28   17   18 ar
  29   17   40 1
  30   18   19 ar
  31   18   41 1
  32   19   20 ar
  33   19   21 1
  34   20   42 1
  35   21   27 1
  36   21   25 1
  37   22   23 1
  38   22   27 1
  39   22   43 1
  40   22   44 1
  41   23   24 1
  42   23   26 1
  43   24   25 1
  44   24   45 1
  45   24   46 1
  46   25   47 1
  47   25   48 1
  48   26   49 1
  49   26   50 1
  50   26   51 1
  51   27   52 1
  52   27   53 1
  53   28   29 1
  54   28   54 1
  55   28   55 1
  56   29   30 1
  57   29   56 1
  58   29   57 1
  59   30   31 1
  60   30   32 1
  61   31   58 1
  62   31   59 1
  63   31   60 1
  64   32   61 1
  65   32   62 1
  66   32   63 1

#	End of record

