#	Name: ASD02198626
#	Creating user name:	WinNT
#	Creation time:	15. 06. 2019 20:19

#	Modifying user name:	WinNT
#	Modification time:	15. 06. 2019 20:19

#	Program:	/corina/corina34_cracker 3.40 0067  02.08.2006

@<TRIPOS>MOLECULE
ASD02198626
  49   53    0    0    0
SMALL
NO_CHARGES


@<TRIPOS>ATOM
   1 C1             0.0067     1.5060     0.1348 C.2     
   2 C2             0.0730     0.1659    -0.0930 C.2     
   3 N3            -1.0540    -0.5634    -0.2629 N.pl3   
   4 N4            -2.2317    -0.0591    -0.2221 N.2     
   5 C5            -2.4383     1.2239    -0.0090 C.2     
   6 C6            -1.2792     2.1040     0.1932 C.2     
   7 C7            -0.9275    -1.9370    -0.4951 C.ar    
   8 C8            -1.5146    -2.5102    -1.6197 C.ar    
   9 C9            -1.3882    -3.8670    -1.8478 C.ar    
  10 C10           -0.6757    -4.6575    -0.9553 C.ar    
  11 C11           -0.0906    -4.0850     0.1666 C.ar    
  12 C12           -0.2110    -2.7289     0.3931 C.ar    
  13 C13           -3.8112     1.7677     0.0309 C.2     
  14 N14           -4.3726     2.4808     1.0526 N.pl3   
  15 N15           -5.6840     2.8006     0.6795 N.2     
  16 C16           -5.9148     2.3080    -0.5114 C.2     
  17 C17           -4.7646     1.6567    -0.9572 C.2     
  18 C18           -3.7483     2.8294     2.2570 C.ar    
  19 C19           -3.9172     4.1025     2.7850 C.ar    
  20 C20           -3.3005     4.4440     3.9730 C.ar    
  21 C21           -2.5154     3.5199     4.6368 C.ar    
  22 C22           -2.3446     2.2498     4.1135 C.ar    
  23 C23           -2.9639     1.9007     2.9282 C.ar    
  24 O24           -1.4163     3.3021     0.3945 O.2     
  25 O25            1.1346     2.2464     0.3066 O.3     
  26 C26            2.3824     1.5535     0.2366 C.3     
  27 F27           -2.2078    -1.7405    -2.4870 F       
  28 N28           -0.5476    -6.0340    -1.1868 N.pl3   
  29 C29            0.1150    -6.9145    -0.4030 C.2     
  30 C30            0.0028    -8.1373    -0.9716 C.2     
  31 C31           -0.7529    -8.0009    -2.1413 C.2     
  32 N32           -1.0882    -6.7420    -2.2679 N.2     
  33 Cl33          -1.3574     1.0925     4.9500 Cl      
  34 H34            1.0360    -0.3208    -0.1392 H       
  35 H35           -1.8436    -4.3129    -2.7197 H       
  36 H36            0.4628    -4.7008     0.8601 H       
  37 H37            0.2447    -2.2847     1.2657 H       
  38 H38           -6.8412     2.3951    -1.0596 H       
  39 H39           -4.6452     1.1508    -1.9039 H       
  40 H40           -4.5301     4.8254     2.2671 H       
  41 H41           -3.4316     5.4343     4.3835 H       
  42 H42           -2.0340     3.7895     5.5652 H       
  43 H43           -2.8310     0.9097     2.5202 H       
  44 H44            3.1989     2.2591     0.3901 H       
  45 H45            2.4155     0.7857     1.0095 H       
  46 H46            2.4845     1.0872    -0.7434 H       
  47 H47            0.6397    -6.6833     0.5122 H       
  48 H48            0.4227    -9.0563    -0.5902 H       
  49 H49           -1.0178    -8.7978    -2.8203 H       
@<TRIPOS>BOND
   1    1    2 2
   2    1   25 1
   3    1    6 1
   4    2    3 1
   5    2   34 1
   6    3    4 1
   7    3    7 1
   8    4    5 2
   9    5    6 1
  10    5   13 1
  11    6   24 2
  12    7    8 ar
  13    7   12 ar
  14    8    9 ar
  15    8   27 1
  16    9   10 ar
  17    9   35 1
  18   10   11 ar
  19   10   28 1
  20   11   12 ar
  21   11   36 1
  22   12   37 1
  23   13   14 1
  24   13   17 2
  25   14   15 1
  26   14   18 1
  27   15   16 2
  28   16   17 1
  29   16   38 1
  30   17   39 1
  31   18   19 ar
  32   18   23 ar
  33   19   20 ar
  34   19   40 1
  35   20   21 ar
  36   20   41 1
  37   21   22 ar
  38   21   42 1
  39   22   23 ar
  40   22   33 1
  41   23   43 1
  42   25   26 1
  43   26   44 1
  44   26   45 1
  45   26   46 1
  46   28   29 1
  47   28   32 1
  48   29   30 2
  49   29   47 1
  50   30   31 1
  51   30   48 1
  52   31   32 2
  53   31   49 1

#	End of record

