#	Name: ASD01916289
#	Creating user name:	WinNT
#	Creation time:	15. 06. 2019 20:07

#	Modifying user name:	WinNT
#	Modification time:	15. 06. 2019 20:07

#	Program:	/corina/corina34_cracker 3.40 0067  02.08.2006

@<TRIPOS>MOLECULE
ASD01916289
  43   44    0    0    0
SMALL
NO_CHARGES


@<TRIPOS>ATOM
   1 C1            -0.0169     1.3977     0.0097 C.ar    
   2 C2             0.0021    -0.0041     0.0020 C.ar    
   3 C3             1.2369    -0.6678    -0.0133 C.ar    
   4 N4             2.3607     0.0094    -0.0200 N.ar    
   5 C5             2.3777     1.3384    -0.0130 C.ar    
   6 C6             1.1898     2.0703     0.0018 C.ar    
   7 C7            -1.2220    -0.7472     0.0102 C.1     
   8 C8            -2.2255    -1.3564     0.0169 C.1     
   9 C9            -3.4496    -2.0996     0.0250 C.ar    
  10 C10            3.6735     2.0513    -0.0206 C.2     
  11 O11            3.6987     3.2665    -0.0142 O.2     
  12 N12            4.8265     1.3535    -0.0344 N.am    
  13 C13            6.1100     2.0596    -0.0419 C.3     
  14 C14            7.1923     1.1567     0.5534 C.3     
  15 C15            6.4837     2.4233    -1.4803 C.3     
  16 C16            6.7598     0.6919     1.9454 C.3     
  17 O17            7.3815     0.0196    -0.2911 O.3     
  18 C18            8.5045     1.9362     0.6608 C.3     
  19 C19           -3.4222    -3.4972     0.0173 C.ar    
  20 C20           -4.6040    -4.2068     0.0252 C.ar    
  21 C21           -5.8178    -3.5373     0.0408 C.ar    
  22 C22           -5.8517    -2.1514     0.0485 C.ar    
  23 C23           -4.6768    -1.4304     0.0466 C.ar    
  24 F24           -6.9727    -4.2384     0.0480 F       
  25 H25           -0.9518     1.9384     0.0171 H       
  26 H26            1.2634    -1.7474    -0.0194 H       
  27 H27            1.2134     3.1500     0.0074 H       
  28 H28            4.8064     0.3837    -0.0395 H       
  29 H29            6.0278     2.9691     0.5532 H       
  30 H30            5.7126     3.0665    -1.9044 H       
  31 H31            7.4387     2.9487    -1.4859 H       
  32 H32            6.5659     1.5138    -2.0754 H       
  33 H33            5.8250     0.1366     1.8689 H       
  34 H34            7.5309     0.0487     2.3696 H       
  35 H35            6.6155     1.5593     2.5896 H       
  36 H36            7.6571     0.2398    -1.1914 H       
  37 H37            8.3602     2.8036     1.3049 H       
  38 H38            9.2755     1.2929     1.0849 H       
  39 H39            8.8126     2.2673    -0.3309 H       
  40 H40           -2.4772    -4.0199     0.0048 H       
  41 H41           -4.5842    -5.2866     0.0188 H       
  42 H42           -6.8005    -1.6356     0.0603 H       
  43 H43           -4.7044    -0.3508     0.0530 H       
@<TRIPOS>BOND
   1    1    2 ar
   2    1    6 ar
   3    1   25 1
   4    2    3 ar
   5    2    7 1
   6    3    4 ar
   7    3   26 1
   8    4    5 ar
   9    5    6 ar
  10    5   10 1
  11    6   27 1
  12    7    8 3
  13    8    9 1
  14    9   19 ar
  15    9   23 ar
  16   10   11 2
  17   10   12 am
  18   12   13 1
  19   12   28 1
  20   13   14 1
  21   13   15 1
  22   13   29 1
  23   14   16 1
  24   14   17 1
  25   14   18 1
  26   15   30 1
  27   15   31 1
  28   15   32 1
  29   16   33 1
  30   16   34 1
  31   16   35 1
  32   17   36 1
  33   18   37 1
  34   18   38 1
  35   18   39 1
  36   19   20 ar
  37   19   40 1
  38   20   21 ar
  39   20   41 1
  40   21   22 ar
  41   21   24 1
  42   22   23 ar
  43   22   42 1
  44   23   43 1

#	End of record

