#	Name: ASD01150872
#	Creating user name:	WinNT
#	Creation time:	15. 06. 2019 19:05

#	Modifying user name:	WinNT
#	Modification time:	15. 06. 2019 19:05

#	Program:	/corina/corina34_cracker 3.40 0067  02.08.2006

@<TRIPOS>MOLECULE
ASD01150872
  49   52    0    0    0
SMALL
NO_CHARGES


@<TRIPOS>ATOM
   1 C1            -0.0180     1.4732     0.0101 C.ar    
   2 C2             0.0021    -0.0041     0.0020 C.2     
   3 N3            -1.1558    -0.6938     0.0094 N.am    
   4 O4             1.0629    -0.5975    -0.0113 O.2     
   5 C5            -1.1370    -2.0834     0.0017 C.2     
   6 N6            -0.0476    -2.8553    -0.0124 N.2     
   7 C7            -0.3944    -4.1264    -0.0160 C.2     
   8 N8            -1.7513    -4.2227    -0.0042 N.pl3   
   9 C9            -2.2487    -2.9175     0.0134 C.2     
  10 C10           -3.6021    -2.5261     0.0301 C.2     
  11 O11           -4.5757    -3.4621     0.0300 O.3     
  12 O12           -3.8940    -1.3438     0.0445 O.2     
  13 C13           -5.9257    -2.9938     0.0473 C.3     
  14 C14           -6.8803    -4.1895     0.0445 C.3     
  15 S15            0.7238    -5.4880    -0.0341 S.3     
  16 C16            2.3007    -4.5995    -0.0434 C.3     
  17 C17           -2.5054    -5.4048    -0.0044 C.ar    
  18 C18            1.1799     2.1903     0.0026 C.ar    
  19 C19            1.1545     3.5703     0.0097 C.ar    
  20 C20           -0.0571     4.2433     0.0244 C.ar    
  21 C21           -1.2482     3.5363     0.0325 C.ar    
  22 C22           -1.2352     2.1576     0.0196 C.ar    
  23 Cl23          -0.0819     5.9791     0.0334 Cl      
  24 C24           -3.2974    -5.7229     1.0901 C.ar    
  25 C25           -4.0414    -6.8877     1.0915 C.ar    
  26 C26           -3.9994    -7.7405     0.0007 C.ar    
  27 C27           -3.2056    -7.4235    -1.0997 C.ar    
  28 C28           -2.4645    -6.2542    -1.1020 C.ar    
  29 O29           -4.6270    -8.9289    -0.2426 O.3     
  30 C30           -4.5289    -9.1312    -1.6647 C.3     
  31 O31           -3.3362    -8.4128    -2.0312 O.3     
  32 Cl32           2.6424     4.4644     0.0009 Cl      
  33 H33           -2.0023    -0.2203     0.0200 H       
  34 H34           -6.0922    -2.3982     0.9449 H       
  35 H35           -6.1090    -2.3805    -0.8349 H       
  36 H36           -7.9101    -3.8324     0.0577 H       
  37 H37           -6.7139    -4.7852    -0.8531 H       
  38 H38           -6.6971    -4.8028     0.9267 H       
  39 H39            2.3732    -3.9786     0.8496 H       
  40 H40            3.1217    -5.3164    -0.0550 H       
  41 H41            2.3569    -3.9684    -0.9303 H       
  42 H42            2.1242     1.6664    -0.0085 H       
  43 H43           -2.1892     4.0662     0.0443 H       
  44 H44           -2.1648     1.6079     0.0259 H       
  45 H45           -3.3319    -5.0598     1.9419 H       
  46 H46           -4.6563    -7.1335     1.9446 H       
  47 H47           -1.8489    -6.0064    -1.9541 H       
  48 H48           -4.4232   -10.1915    -1.8944 H       
  49 H49           -5.3986    -8.7134    -2.1719 H       
@<TRIPOS>BOND
   1    1    2 1
   2    1   18 ar
   3    1   22 ar
   4    2    3 am
   5    2    4 2
   6    3    5 1
   7    3   33 1
   8    5    6 1
   9    5    9 2
  10    6    7 2
  11    7    8 1
  12    7   15 1
  13    8    9 1
  14    8   17 1
  15    9   10 1
  16   10   11 1
  17   10   12 2
  18   11   13 1
  19   13   14 1
  20   13   34 1
  21   13   35 1
  22   14   36 1
  23   14   37 1
  24   14   38 1
  25   15   16 1
  26   16   39 1
  27   16   40 1
  28   16   41 1
  29   17   24 ar
  30   17   28 ar
  31   18   19 ar
  32   18   42 1
  33   19   20 ar
  34   19   32 1
  35   20   21 ar
  36   20   23 1
  37   21   22 ar
  38   21   43 1
  39   22   44 1
  40   24   25 ar
  41   24   45 1
  42   25   26 ar
  43   25   46 1
  44   26   27 ar
  45   26   29 1
  46   27   28 ar
  47   27   31 1
  48   28   47 1
  49   29   30 1
  50   30   31 1
  51   30   48 1
  52   30   49 1

#	End of record

