#	Name: ASD01918379
#	Creating user name:	WinNT
#	Creation time:	15. 06. 2019 20:11

#	Modifying user name:	WinNT
#	Modification time:	15. 06. 2019 20:11

#	Program:	/corina/corina34_cracker 3.40 0067  02.08.2006

@<TRIPOS>MOLECULE
ASD01918379
  43   45    0    0    0
SMALL
NO_CHARGES


@<TRIPOS>ATOM
   1 Cl1            0.0000     0.0000     0.0000 Cl      
   2 H2             0.0000     1.3700     0.0000 H       
   3 F3             7.2024     6.3700     7.2448 F       
   4 C4             7.1841     7.7209     7.2522 C.ar    
   5 C5             5.9741     8.3961     7.2731 C.ar    
   6 C6             5.9466     9.7795     7.2809 C.ar    
   7 C7             7.1245    10.4966     7.2678 C.ar    
   8 C8             8.3494     9.8236     7.2466 C.ar    
   9 C9             8.3717     8.4267     7.2447 C.ar    
  10 C10            9.5759    10.5626     7.2329 C.1     
  11 C11           10.5814    11.1684     7.2217 C.1     
  12 C12           11.8080    11.9074     7.2079 C.ar    
  13 C13           11.7939    13.3095     7.2214 C.ar    
  14 C14           13.0024    13.9779     7.2072 C.ar    
  15 C15           14.1867    13.2430     7.1803 C.ar    
  16 N16           14.1657    11.9158     7.1682 N.ar    
  17 C17           13.0381    11.2409     7.1868 C.ar    
  18 C18           15.4886    13.9541     7.1645 C.2     
  19 N19           15.6658    15.2499     7.1790 N.2     
  20 O20           16.8506    15.5087     7.1600 O.3     
  21 C21           17.5655    14.3795     7.1308 C.2     
  22 N22           16.7146    13.3839     7.1384 N.2     
  23 C23           19.0683    14.2722     7.1002 C.3     
  24 C24           19.6458    15.0849     5.9148 C.3     
  25 C25           21.0980    15.3706     6.3715 C.3     
  26 C26           20.9731    15.6352     7.8861 C.3     
  27 C27           19.6826    14.9369     8.3495 C.3     
  28 H28            5.0483     7.8401     7.2831 H       
  29 H29            5.0000    10.2992     7.2969 H       
  30 H30            7.1005    11.5763     7.2735 H       
  31 H31            9.3146     7.9002     7.2332 H       
  32 H32           10.8610    13.8533     7.2419 H       
  33 H33           13.0296    15.0575     7.2166 H       
  34 H34           13.0611    10.1611     7.1808 H       
  35 H35           19.3741    13.2280     7.0343 H       
  36 H36           19.6381    14.4923     5.0000 H       
  37 H37           19.0937    16.0148     5.7786 H       
  38 H38           21.7334    14.5044     6.1867 H       
  39 H39           21.4922    16.2498     5.8618 H       
  40 H40           21.8326    15.2174     8.4103 H       
  41 H41           20.9057    16.7069     8.0736 H       
  42 H42           18.9889    15.6696     8.7618 H       
  43 H43           19.9158    14.1801     9.0985 H       
@<TRIPOS>BOND
   1    1    2 1
   2    3    4 1
   3    4    9 ar
   4    4    5 ar
   5    5    6 ar
   6    5   28 1
   7    6    7 ar
   8    6   29 1
   9    7    8 ar
  10    7   30 1
  11    8    9 ar
  12    8   10 1
  13    9   31 1
  14   10   11 3
  15   11   12 1
  16   12   17 ar
  17   12   13 ar
  18   13   14 ar
  19   13   32 1
  20   14   15 ar
  21   14   33 1
  22   15   16 ar
  23   15   18 1
  24   16   17 ar
  25   17   34 1
  26   18   22 1
  27   18   19 2
  28   19   20 1
  29   20   21 1
  30   21   22 2
  31   21   23 1
  32   23   27 1
  33   23   24 1
  34   23   35 1
  35   24   25 1
  36   24   36 1
  37   24   37 1
  38   25   26 1
  39   25   38 1
  40   25   39 1
  41   26   27 1
  42   26   40 1
  43   26   41 1
  44   27   42 1
  45   27   43 1

#	End of record

