#	Name: ASD03092134
#	Creating user name:	WinNT
#	Creation time:	15. 06. 2019 20:32

#	Modifying user name:	WinNT
#	Modification time:	15. 06. 2019 20:32

#	Program:	/corina/corina34_cracker 3.40 0067  02.08.2006

@<TRIPOS>MOLECULE
ASD03092134
  46   48    0    0    0
SMALL
NO_CHARGES


@<TRIPOS>ATOM
   1 N1             0.3233     1.0023    -0.2124 N.pl3   
   2 C2             0.0458    -0.3040     0.0619 C.2     
   3 C3            -1.3128    -0.4445     0.0521 C.2     
   4 C4            -1.8706     0.8076    -0.2353 C.2     
   5 N5            -0.8942     1.6724    -0.3872 N.2     
   6 N6            -3.2381     1.0907    -0.3371 N.pl3   
   7 C7            -3.6672     2.4081    -0.5155 C.ar    
   8 C8            -4.8532     2.6684    -1.1899 C.ar    
   9 C9            -5.2747     3.9732    -1.3647 C.ar    
  10 C10           -4.5162     5.0189    -0.8683 C.ar    
  11 C11           -2.9114     3.4606    -0.0137 C.ar    
  12 C12            1.0346    -1.3731     0.3221 C.ar    
  13 C13            1.6577     1.6003    -0.3022 C.3     
  14 C14            0.7042    -2.7198     0.1327 C.ar    
  15 C15            1.6570    -3.6841     0.3868 C.ar    
  16 N16            2.8642    -3.3509     0.8025 N.ar    
  17 C17            3.2167    -2.0938     0.9937 C.ar    
  18 C18            2.3281    -1.0655     0.7588 C.ar    
  19 C19            4.6109    -1.7771     1.4702 C.3     
  20 C20           -3.3348     4.7621    -0.1969 C.ar    
  21 Cl21          -6.7565     4.3005    -2.2079 Cl      
  22 C22            1.3145    -5.1380     0.1875 C.3     
  23 O23            1.6720     2.5792    -1.3432 O.3     
  24 C24            2.0085     2.2670     1.0295 C.3     
  25 C25            3.4482     2.7824     0.9782 C.3     
  26 H26           -1.8594    -1.3581     0.2335 H       
  27 H27           -3.8874     0.3721    -0.2838 H       
  28 H28           -5.4450     1.8524    -1.5776 H       
  29 H29           -4.8474     6.0376    -1.0059 H       
  30 H30           -1.9910     3.2611     0.5150 H       
  31 H31            2.3897     0.8237    -0.5237 H       
  32 H32           -0.2820    -2.9997    -0.2070 H       
  33 H33            2.6236    -0.0388     0.9171 H       
  34 H34            5.2669    -1.6421     0.6102 H       
  35 H35            4.5936    -0.8614     2.0613 H       
  36 H36            4.9806    -2.5987     2.0837 H       
  37 H37           -2.7448     5.5805     0.1886 H       
  38 H38            1.5511    -5.4301    -0.8356 H       
  39 H39            1.8937    -5.7463     0.8822 H       
  40 H40            0.2509    -5.2893     0.3717 H       
  41 H41            1.0435     3.3023    -1.2118 H       
  42 H42            1.3301     3.1012     1.2080 H       
  43 H43            1.9112     1.5405     1.8362 H       
  44 H44            4.1266     1.9481     0.7996 H       
  45 H45            3.5455     3.5089     0.1714 H       
  46 H46            3.6981     3.2573     1.9269 H       
@<TRIPOS>BOND
   1    1    2 1
   2    1   13 1
   3    1    5 1
   4    2    3 2
   5    2   12 1
   6    3    4 1
   7    3   26 1
   8    4    5 2
   9    4    6 1
  10    6    7 1
  11    6   27 1
  12    7    8 ar
  13    7   11 ar
  14    8    9 ar
  15    8   28 1
  16    9   10 ar
  17    9   21 1
  18   10   20 ar
  19   10   29 1
  20   11   20 ar
  21   11   30 1
  22   12   14 ar
  23   12   18 ar
  24   13   23 1
  25   13   24 1
  26   13   31 1
  27   14   15 ar
  28   14   32 1
  29   15   16 ar
  30   15   22 1
  31   16   17 ar
  32   17   18 ar
  33   17   19 1
  34   18   33 1
  35   19   34 1
  36   19   35 1
  37   19   36 1
  38   20   37 1
  39   22   38 1
  40   22   39 1
  41   22   40 1
  42   23   41 1
  43   24   25 1
  44   24   42 1
  45   24   43 1
  46   25   44 1
  47   25   45 1
  48   25   46 1

#	End of record

