#	Name: ASD01815753
#	Creating user name:	WinNT
#	Creation time:	15. 06. 2019 19:33

#	Modifying user name:	WinNT
#	Modification time:	15. 06. 2019 19:33

#	Program:	/corina/corina34_cracker 3.40 0067  02.08.2006

@<TRIPOS>MOLECULE
ASD01815753
  65   70    0    0    0
SMALL
NO_CHARGES


@<TRIPOS>ATOM
   1 C1             1.0741     2.3965    -0.6457 C.ar    
   2 C2             0.7178     1.0534    -0.5792 C.ar    
   3 C3             1.6633     0.0833    -0.4279 C.ar    
   4 C4             3.0178     0.4390    -0.3373 C.ar    
   5 C5             3.3768     1.8073    -0.4055 C.ar    
   6 C6             2.3815     2.7775    -0.5610 C.ar    
   7 C7             4.0185    -0.5428    -0.1809 C.ar    
   8 C8             5.3265    -0.2022    -0.0938 C.ar    
   9 C9             5.7356     1.1390    -0.1557 C.ar    
  10 C10            4.7884     2.1675    -0.3104 C.ar    
  11 C11            7.1509     1.5198    -0.0632 C.2     
  12 N12            7.4479     2.8382    -0.1339 N.am    
  13 C13            6.4629     3.7586    -0.2840 C.2     
  14 N14            5.2032     3.4441    -0.3685 N.2     
  15 O15            8.0238     0.6814     0.0722 O.2     
  16 C16            8.8437     3.2746    -0.0472 C.3     
  17 C17            9.0158     4.2047     1.1576 C.3     
  18 C18           10.4577     4.7178     1.1944 C.3     
  19 O19           10.7555     5.3863    -0.0329 O.3     
  20 C20           10.6573     4.5533    -1.1899 C.3     
  21 C21            9.2234     4.0336    -1.3225 C.3     
  22 C22            3.6254    -1.9958    -0.1091 C.3     
  23 C23            3.4950    -2.5506    -1.5042 C.ar    
  24 C24            4.5897    -3.1199    -2.1361 C.ar    
  25 C25            4.4269    -3.6187    -3.4188 C.ar    
  26 C26            3.1758    -3.5310    -4.0252 C.ar    
  27 N27            2.1533    -2.9776    -3.3854 N.ar    
  28 C28            2.2785    -2.5017    -2.1656 C.ar    
  29 O29            8.7340     3.4857     2.3600 O.3     
  30 C30            2.9853    -4.0595    -5.3963 C.2     
  31 N31            1.7489    -4.3719    -5.8323 N.am    
  32 O32            3.9438    -4.2113    -6.1276 O.2     
  33 C33            0.5939    -4.3405    -4.9211 C.3     
  34 C34            1.5131    -4.7484    -7.2352 C.3     
  35 C35            0.3545    -3.9019    -7.7748 C.3     
  36 O36           -0.7631    -4.0153    -6.8905 O.3     
  37 C37           -0.5180    -3.5147    -5.5780 C.3     
  38 H38            0.3069     3.1464    -0.7703 H       
  39 H39           -0.3235     0.7752    -0.6481 H       
  40 H40            1.3711    -0.9552    -0.3775 H       
  41 H41            2.6465     3.8231    -0.6142 H       
  42 H42            6.0688    -0.9775     0.0260 H       
  43 H43            6.7373     4.8019    -0.3359 H       
  44 H44            9.4923     2.4061     0.0670 H       
  45 H45            8.3313     5.0481     1.0675 H       
  46 H46           10.5748     5.4137     2.0251 H       
  47 H47           11.1394     3.8773     1.3253 H       
  48 H48           10.9181     5.1307    -2.0768 H       
  49 H49           11.3416     3.7107    -1.0902 H       
  50 H50            9.1568     3.3628    -2.1790 H       
  51 H51            8.5430     4.8735    -1.4627 H       
  52 H52            4.3895    -2.5526     0.4334 H       
  53 H53            2.6711    -2.0888     0.4095 H       
  54 H54            5.5476    -3.1733    -1.6401 H       
  55 H55            5.2583    -4.0687    -3.9410 H       
  56 H56            1.4237    -2.0586    -1.6764 H       
  57 H57            8.8235     4.0145     3.1646 H       
  58 H58            0.2401    -5.3558    -4.7418 H       
  59 H59            0.8839    -3.8801    -3.9766 H       
  60 H60            2.4114    -4.5580    -7.8224 H       
  61 H61            1.2533    -5.8054    -7.2929 H       
  62 H62            0.6644    -2.8588    -7.8379 H       
  63 H63            0.0728    -4.2594    -8.7652 H       
  64 H64           -1.4268    -3.5961    -4.9818 H       
  65 H65           -0.2133    -2.4698    -5.6380 H       
@<TRIPOS>BOND
   1    1    2 ar
   2    1    6 ar
   3    1   38 1
   4    2    3 ar
   5    2   39 1
   6    3    4 ar
   7    3   40 1
   8    4    5 ar
   9    4    7 ar
  10    5    6 ar
  11    5   10 ar
  12    6   41 1
  13    7    8 ar
  14    7   22 1
  15    8    9 ar
  16    8   42 1
  17    9   10 ar
  18    9   11 1
  19   10   14 1
  20   11   12 am
  21   11   15 2
  22   12   13 1
  23   12   16 1
  24   13   14 2
  25   13   43 1
  26   16   17 1
  27   16   21 1
  28   16   44 1
  29   17   18 1
  30   17   29 1
  31   17   45 1
  32   18   19 1
  33   18   46 1
  34   18   47 1
  35   19   20 1
  36   20   21 1
  37   20   48 1
  38   20   49 1
  39   21   50 1
  40   21   51 1
  41   22   23 1
  42   22   52 1
  43   22   53 1
  44   23   24 ar
  45   23   28 ar
  46   24   25 ar
  47   24   54 1
  48   25   26 ar
  49   25   55 1
  50   26   27 ar
  51   26   30 1
  52   27   28 ar
  53   28   56 1
  54   29   57 1
  55   30   31 am
  56   30   32 2
  57   31   33 1
  58   31   34 1
  59   33   37 1
  60   33   58 1
  61   33   59 1
  62   34   35 1
  63   34   60 1
  64   34   61 1
  65   35   36 1
  66   35   62 1
  67   35   63 1
  68   36   37 1
  69   37   64 1
  70   37   65 1

#	End of record

