#	Name: ASD01910344
#	Creating user name:	WinNT
#	Creation time:	15. 06. 2019 19:55

#	Modifying user name:	WinNT
#	Modification time:	15. 06. 2019 19:55

#	Program:	/corina/corina34_cracker 3.40 0067  02.08.2006

@<TRIPOS>MOLECULE
ASD01910344
  39   41    0    0    0
SMALL
NO_CHARGES


@<TRIPOS>ATOM
   1 C1            -0.0660     1.4271    -0.0583 C.ar    
   2 C2            -0.0381    -0.0047    -0.0544 C.1     
   3 C3            -0.0153    -1.1784    -0.0512 C.1     
   4 C4             0.0125    -2.6102    -0.0473 C.ar    
   5 C5            -1.1827    -3.3338    -0.1262 C.ar    
   6 C6            -1.1554    -4.6991    -0.1224 C.ar    
   7 C7             0.0663    -5.3740    -0.0396 C.ar    
   8 C8             1.2608    -4.6517     0.0393 C.ar    
   9 C9             1.2354    -3.2864     0.0298 C.ar    
  10 C10            0.0949    -6.8499    -0.0350 C.2     
  11 O11            0.9668    -7.4429    -0.6403 O.2     
  12 N12           -0.8454    -7.5400     0.6402 N.am    
  13 C13           -0.9119    -9.0078     0.5593 C.3     
  14 C14           -0.9691    -9.5685     1.9848 C.3     
  15 O15           -2.0242    -8.9238     2.7023 O.3     
  16 C16           -1.8478    -7.5140     2.8612 C.3     
  17 C17           -1.8321    -6.8485     1.4850 C.3     
  18 C18            1.1264     2.1525     0.0204 C.ar    
  19 C19            1.0929     3.5305     0.0163 C.ar    
  20 C20           -0.1199     4.1971    -0.0654 C.ar    
  21 C21           -1.3058     3.4835    -0.1432 C.ar    
  22 C22           -1.2852     2.1051    -0.1467 C.ar    
  23 F23           -0.1462     5.5478    -0.0686 F       
  24 H24           -2.1265    -2.8126    -0.1898 H       
  25 H25           -2.0778    -5.2577    -0.1829 H       
  26 H26            2.2041    -5.1737     0.1032 H       
  27 H27            2.1582    -2.7285     0.0903 H       
  28 H28           -1.8063    -9.3052     0.0117 H       
  29 H29           -0.0260    -9.3880     0.0505 H       
  30 H30           -1.1573   -10.6415     1.9468 H       
  31 H31           -0.0201    -9.3823     2.4877 H       
  32 H32           -2.6681    -7.1089     3.4536 H       
  33 H33           -0.9020    -7.3203     3.3672 H       
  34 H34           -1.5578    -5.7986     1.5880 H       
  35 H35           -2.8184    -6.9276     1.0277 H       
  36 H36            2.0718     1.6343     0.0848 H       
  37 H37            2.0134     4.0921     0.0770 H       
  38 H38           -2.2475     4.0085    -0.2063 H       
  39 H39           -2.2098     1.5502    -0.2078 H       
@<TRIPOS>BOND
   1    1    2 1
   2    1   18 ar
   3    1   22 ar
   4    2    3 3
   5    3    4 1
   6    4    5 ar
   7    4    9 ar
   8    5    6 ar
   9    5   24 1
  10    6    7 ar
  11    6   25 1
  12    7    8 ar
  13    7   10 1
  14    8    9 ar
  15    8   26 1
  16    9   27 1
  17   10   11 2
  18   10   12 am
  19   12   13 1
  20   12   17 1
  21   13   14 1
  22   13   28 1
  23   13   29 1
  24   14   15 1
  25   14   30 1
  26   14   31 1
  27   15   16 1
  28   16   17 1
  29   16   32 1
  30   16   33 1
  31   17   34 1
  32   17   35 1
  33   18   19 ar
  34   18   36 1
  35   19   20 ar
  36   19   37 1
  37   20   21 ar
  38   20   23 1
  39   21   22 ar
  40   21   38 1
  41   22   39 1

#	End of record

