#	Name: ASD01410582
#	Creating user name:	WinNT
#	Creation time:	15. 06. 2019 19:18

#	Modifying user name:	WinNT
#	Modification time:	15. 06. 2019 19:18

#	Program:	/corina/corina34_cracker 3.40 0067  02.08.2006

@<TRIPOS>MOLECULE
ASD01410582
  84   87    0    0    0
SMALL
NO_CHARGES


@<TRIPOS>ATOM
   1 C1             5.0666     6.7663    -3.4562 C.ar    
   2 C2             5.4627     6.0070    -4.5415 C.ar    
   3 C3             6.1212     4.8068    -4.3454 C.ar    
   4 C4             6.3843     4.3634    -3.0641 C.ar    
   5 C5             5.9877     5.1237    -1.9729 C.ar    
   6 C6             5.3277     6.3277    -2.1725 C.ar    
   7 O7             6.2454     4.6898    -0.7113 O.3     
   8 C8             6.8126     3.4628    -0.5615 C.ar    
   9 C9             8.1926     3.3169    -0.6788 C.ar    
  10 C10            8.7784     2.0736    -0.5276 C.ar    
  11 C11            7.9931     0.9625    -0.2583 C.ar    
  12 C12            6.6016     1.1039    -0.1391 C.ar    
  13 C13            6.0187     2.3660    -0.2878 C.ar    
  14 N14            8.5839    -0.2911    -0.1069 N.am    
  15 C15            8.9750    -0.7088     1.1134 C.2     
  16 C16            8.7798    -1.1544    -1.2742 C.3     
  17 O17            9.5664    -1.7608     1.2335 O.2     
  18 C18            8.6773     0.1313     2.3286 C.3     
  19 C19            5.1760     6.4878    -5.9407 C.3     
  20 C20            9.8182    -0.0100     3.3382 C.3     
  21 C21            9.5159     0.8429     4.5719 C.3     
  22 C22            8.2083     0.3706     5.2106 C.3     
  23 C23            7.0674     0.5118     4.2010 C.3     
  24 C24            7.3697    -0.3411     2.9672 C.3     
  25 C25            7.9061     1.2235     6.4443 C.3     
  26 C26            8.0626    -0.5488    -2.4824 C.3     
  27 O27           10.9237    -1.9615    -0.5043 O.3     
  28 C28           10.2751    -1.2732    -1.5755 C.3     
  29 C29           12.3313    -2.1267    -0.6872 C.3     
  30 O30            6.6529    -0.5480    -2.2485 O.3     
  31 C31            5.8858     0.0001    -3.3223 C.3     
  32 F32            8.9627     4.3953    -0.9419 F       
  33 C33            6.3273     7.3291    -6.4285 C.2     
  34 C34            7.4036     6.8845    -7.0841 C.2     
  35 N35            8.2739     7.8208    -7.4042 N.2     
  36 C36            7.9917     9.0305    -7.0552 C.2     
  37 S37            6.4883     9.0737    -6.2420 S.3     
  38 C38            7.6055     5.4314    -7.4290 C.3     
  39 C39            8.8584    10.2322    -7.3304 C.3     
  40 C40            4.8961     7.1562    -0.9899 C.3     
  41 F41            4.2561     8.3154    -1.4414 F       
  42 F42            4.0129     6.4142    -0.1982 F       
  43 F43            6.0184     7.5080    -0.2324 F       
  44 C44            5.7603    -0.0706     0.1463 C.2     
  45 O45            6.2762    -1.1495     0.3624 O.2     
  46 O46            4.4183     0.0511     0.1678 O.3     
  47 H47            4.5564     7.7054    -3.6122 H       
  48 H48            6.4296     4.2155    -5.1949 H       
  49 H49            6.8979     3.4257    -2.9115 H       
  50 H50            9.8492     1.9675    -0.6198 H       
  51 H51            4.9487     2.4818    -0.1970 H       
  52 H52            8.3712    -2.1435    -1.0673 H       
  53 H53            8.5808     1.1760     2.0332 H       
  54 H54            5.0478     5.6298    -6.6006 H       
  55 H55            4.2642     7.0850    -5.9400 H       
  56 H56            9.9147    -1.0548     3.6335 H       
  57 H57           10.7497     0.3265     2.8832 H       
  58 H58           10.3287     0.7422     5.2912 H       
  59 H59            9.4194     1.8877     4.2766 H       
  60 H60            8.3048    -0.6742     5.5059 H       
  61 H61            6.1358     0.1754     4.6560 H       
  62 H62            6.9709     1.5566     3.9056 H       
  63 H63            6.5569    -0.2404     2.2480 H       
  64 H64            7.4662    -1.3858     3.2626 H       
  65 H65            7.8096     2.2682     6.1490 H       
  66 H66            6.9745     0.8870     6.8993 H       
  67 H67            8.7189     1.1228     7.1636 H       
  68 H68            8.4064     0.4744    -2.6337 H       
  69 H69            8.2832    -1.1412    -3.3704 H       
  70 H70           10.4160    -1.8289    -2.5026 H       
  71 H71           10.7049    -0.2770    -1.6803 H       
  72 H72           12.5147    -2.7001    -1.5958 H       
  73 H73           12.8037    -1.1482    -0.7735 H       
  74 H74           12.7490    -2.6577     0.1681 H       
  75 H75            6.0612    -0.5810    -4.2277 H       
  76 H76            4.8266    -0.0355    -3.0673 H       
  77 H77            6.1844     1.0347    -3.4910 H       
  78 H78            7.1693     5.2260    -8.4065 H       
  79 H79            8.6722     5.2086    -7.4530 H       
  80 H80            7.1211     4.8088    -6.6768 H       
  81 H81            8.5822    10.6671    -8.2909 H       
  82 H82            8.7154    10.9714    -6.5422 H       
  83 H83            9.9045     9.9272    -7.3570 H       
  84 H84            3.9081    -0.7477     0.3597 H       
@<TRIPOS>BOND
   1    1    2 ar
   2    1    6 ar
   3    1   47 1
   4    2    3 ar
   5    2   19 1
   6    3    4 ar
   7    3   48 1
   8    4    5 ar
   9    4   49 1
  10    5    6 ar
  11    5    7 1
  12    6   40 1
  13    7    8 1
  14    8    9 ar
  15    8   13 ar
  16    9   10 ar
  17    9   32 1
  18   10   11 ar
  19   10   50 1
  20   11   12 ar
  21   11   14 1
  22   12   13 ar
  23   12   44 1
  24   13   51 1
  25   14   15 am
  26   14   16 1
  27   15   17 2
  28   15   18 1
  29   16   26 1
  30   16   28 1
  31   16   52 1
  32   18   20 1
  33   18   24 1
  34   18   53 1
  35   19   33 1
  36   19   54 1
  37   19   55 1
  38   20   21 1
  39   20   56 1
  40   20   57 1
  41   21   22 1
  42   21   58 1
  43   21   59 1
  44   22   23 1
  45   22   25 1
  46   22   60 1
  47   23   24 1
  48   23   61 1
  49   23   62 1
  50   24   63 1
  51   24   64 1
  52   25   65 1
  53   25   66 1
  54   25   67 1
  55   26   30 1
  56   26   68 1
  57   26   69 1
  58   27   28 1
  59   27   29 1
  60   28   70 1
  61   28   71 1
  62   29   72 1
  63   29   73 1
  64   29   74 1
  65   30   31 1
  66   31   75 1
  67   31   76 1
  68   31   77 1
  69   33   34 2
  70   33   37 1
  71   34   35 1
  72   34   38 1
  73   35   36 2
  74   36   37 1
  75   36   39 1
  76   38   78 1
  77   38   79 1
  78   38   80 1
  79   39   81 1
  80   39   82 1
  81   39   83 1
  82   40   41 1
  83   40   42 1
  84   40   43 1
  85   44   45 2
  86   44   46 1
  87   46   84 1

#	End of record

