#	Name: ASD01882739
#	Creating user name:	WinNT
#	Creation time:	15. 06. 2019 19:45

#	Modifying user name:	WinNT
#	Modification time:	15. 06. 2019 19:45

#	Program:	/corina/corina34_cracker 3.40 0067  02.08.2006

@<TRIPOS>MOLECULE
ASD01882739
  31   33    0    0    0
SMALL
NO_CHARGES


@<TRIPOS>ATOM
   1 O1            -0.0173     1.4248     0.0099 O.3     
   2 C2             0.0021    -0.0041     0.0020 C.3     
   3 C3             1.2831     0.8325    -0.0057 C.3     
   4 C4            -0.3680    -0.7292     1.2974 C.3     
   5 O5            -1.5561    -1.4961     1.0913 O.3     
   6 C6            -2.9770    -3.6534     4.3122 C.ar    
   7 C7            -3.6510    -3.6936     3.0929 C.ar    
   8 C8            -3.1737    -2.9724     2.0187 C.ar    
   9 C9            -2.0237    -2.2060     2.1512 C.ar    
  10 C10           -1.3502    -2.1640     3.3646 C.ar    
  11 C11           -1.8224    -2.8835     4.4421 C.ar    
  12 C12           -3.4912    -4.4234     5.4714 C.ar    
  13 C13           -2.8183    -4.3840     6.6911 C.ar    
  14 C14           -3.3012    -5.1023     7.7661 C.ar    
  15 C15           -4.4508    -5.8603     7.6346 C.ar    
  16 C16           -5.1227    -5.9030     6.4263 C.ar    
  17 C17           -4.6521    -5.1841     5.3462 C.ar    
  18 H18           -0.2792    -0.5108    -0.9211 H       
  19 H19            1.8523     0.8812    -0.9340 H       
  20 H20            1.8699     0.8713     0.9120 H       
  21 H21            0.4467    -1.3924     1.5881 H       
  22 H22           -0.5402     0.0024     2.0869 H       
  23 H23           -4.5456    -4.2896     2.9892 H       
  24 H24           -3.6955    -3.0031     1.0736 H       
  25 H25           -0.4554    -1.5676     3.4645 H       
  26 H26           -1.2983    -2.8501     5.3858 H       
  27 H27           -1.9205    -3.7928     6.7948 H       
  28 H28           -2.7803    -5.0728     8.7118 H       
  29 H29           -4.8249    -6.4211     8.4783 H       
  30 H30           -6.0198    -6.4964     6.3291 H       
  31 H31           -5.1802    -5.2143     4.4046 H       
@<TRIPOS>BOND
   1    1    2 1
   2    1    3 1
   3    2    3 1
   4    2    4 1
   5    2   18 1
   6    3   19 1
   7    3   20 1
   8    4    5 1
   9    4   21 1
  10    4   22 1
  11    5    9 1
  12    6    7 ar
  13    6   11 ar
  14    6   12 1
  15    7    8 ar
  16    7   23 1
  17    8    9 ar
  18    8   24 1
  19    9   10 ar
  20   10   11 ar
  21   10   25 1
  22   11   26 1
  23   12   13 ar
  24   12   17 ar
  25   13   14 ar
  26   13   27 1
  27   14   15 ar
  28   14   28 1
  29   15   16 ar
  30   15   29 1
  31   16   17 ar
  32   16   30 1
  33   17   31 1

#	End of record

