#	Name: ASD06140034
#	Creating user name:	WinNT
#	Creation time:	15. 06. 2019 21:05

#	Modifying user name:	WinNT
#	Modification time:	15. 06. 2019 21:05

#	Program:	/corina/corina34_cracker 3.40 0067  02.08.2006

@<TRIPOS>MOLECULE
ASD06140034
  25   27    0    0    0
SMALL
NO_CHARGES


@<TRIPOS>ATOM
   1 C1            -0.0171     1.4104     0.0098 C.2     
   2 C2             0.0680     0.0262     0.2889 C.2     
   3 O3             1.2026    -0.6767     0.4871 O.3     
   4 C4             1.1160     2.1276    -0.2324 C.2     
   5 C5             2.4712     1.6170    -0.4318 C.2     
   6 S6             1.2735     3.8880    -0.3837 S.3     
   7 C7             3.0209     3.8547    -0.6766 C.2     
   8 N8             3.3976     2.5346    -0.6517 N.am    
   9 N9             3.7970     4.8832    -0.8805 N.2     
  10 O10            2.7295     0.4274    -0.3973 O.2     
  11 C11           -0.9949    -0.8454     0.4129 C.2     
  12 C12           -0.4461    -2.1075     0.6897 C.2     
  13 C13            0.8963    -1.9604     0.7265 C.2     
  14 C14            4.7264     2.1703    -0.8512 C.2     
  15 N15            5.6984     2.9990    -1.0708 N.2     
  16 S16            5.3147     0.5651    -0.8347 S.3     
  17 C17            6.9461     1.1487    -1.1537 C.2     
  18 C18            6.9001     2.4800    -1.2379 C.2     
  19 H19           -0.9805     1.8979    -0.0157 H       
  20 H20            3.4250     5.7790    -0.8806 H       
  21 H21           -2.0431    -0.6038     0.3160 H       
  22 H22           -0.9949    -3.0244     0.8467 H       
  23 H23            1.6083    -2.7497     0.9175 H       
  24 H24            7.8296     0.5366    -1.2589 H       
  25 H25            7.7751     3.0834    -1.4291 H       
@<TRIPOS>BOND
   1    1    2 1
   2    1    4 2
   3    1   19 1
   4    2    3 1
   5    2   11 2
   6    3   13 1
   7    4    6 1
   8    4    5 1
   9    5   10 2
  10    5    8 am
  11    6    7 1
  12    7    8 1
  13    7    9 2
  14    8   14 1
  15    9   20 1
  16   11   12 1
  17   11   21 1
  18   12   13 2
  19   12   22 1
  20   13   23 1
  21   14   15 2
  22   14   16 1
  23   15   18 1
  24   16   17 1
  25   17   18 2
  26   17   24 1
  27   18   25 1

#	End of record

