#	Name: ASD01911779
#	Creating user name:	WinNT
#	Creation time:	15. 06. 2019 19:58

#	Modifying user name:	WinNT
#	Modification time:	15. 06. 2019 19:58

#	Program:	/corina/corina34_cracker 3.40 0067  02.08.2006

@<TRIPOS>MOLECULE
ASD01911779
  25   26    0    0    0
SMALL
NO_CHARGES


@<TRIPOS>ATOM
   1 C1            -0.0184     1.5028     0.0103 C.3     
   2 C2             0.0021    -0.0041     0.0020 C.2     
   3 C3             1.2334    -0.6928    -0.0134 C.2     
   4 C4             1.3962    -2.0576    -0.0223 C.2     
   5 S5             2.8339     0.0453    -0.0325 S.3     
   6 C6             3.5702    -1.5545    -0.0436 C.2     
   7 N7             2.6301    -2.4686    -0.0371 N.2     
   8 C8             4.9779    -1.8166    -0.0615 C.1     
   9 C9             6.1320    -2.0314    -0.0761 C.1     
  10 C10            7.5397    -2.2934    -0.0940 C.ar    
  11 C11            8.0093    -3.6105    -0.1014 C.ar    
  12 C12            9.3663    -3.8547    -0.1186 C.ar    
  13 C13           10.2628    -2.8003    -0.1284 C.ar    
  14 C14            9.8057    -1.4939    -0.1212 C.ar    
  15 C15            8.4517    -1.2335    -0.1098 C.ar    
  16 O16           -1.0415    -0.6257     0.0086 O.2     
  17 H17            1.0042     1.8801     0.0026 H       
  18 H18           -0.5455     1.8639    -0.8728 H       
  19 H19           -0.5286     1.8543     0.9071 H       
  20 H20            0.5591    -2.7401    -0.0171 H       
  21 H21            7.3110    -4.4344    -0.0934 H       
  22 H22            9.7306    -4.8714    -0.1240 H       
  23 H23           11.3244    -2.9979    -0.1415 H       
  24 H24           10.5114    -0.6764    -0.1289 H       
  25 H25            8.0965    -0.2136    -0.1041 H       
@<TRIPOS>BOND
   1    1    2 1
   2    1   17 1
   3    1   18 1
   4    1   19 1
   5    2    3 1
   6    2   16 2
   7    3    4 2
   8    3    5 1
   9    4    7 1
  10    4   20 1
  11    5    6 1
  12    6    7 2
  13    6    8 1
  14    8    9 3
  15    9   10 1
  16   10   11 ar
  17   10   15 ar
  18   11   12 ar
  19   11   21 1
  20   12   13 ar
  21   12   22 1
  22   13   14 ar
  23   13   23 1
  24   14   15 ar
  25   14   24 1
  26   15   25 1

#	End of record

