#	Name: ASD01140316
#	Creating user name:	WinNT
#	Creation time:	15. 06. 2019 19:00

#	Modifying user name:	WinNT
#	Modification time:	15. 06. 2019 19:00

#	Program:	/corina/corina34_cracker 3.40 0067  02.08.2006

@<TRIPOS>MOLECULE
ASD01140316
  58   61    0    0    0
SMALL
NO_CHARGES


@<TRIPOS>ATOM
   1 C1            -0.0169     1.3931     0.0097 C.ar    
   2 C2             0.0021    -0.0041     0.0020 C.ar    
   3 C3             1.2150    -0.6813    -0.0011 C.ar    
   4 C4             2.4238     0.0272     0.0038 C.ar    
   5 C5             2.3885     1.4241    -0.0124 C.ar    
   6 C6             1.1680     2.0938     0.0022 C.ar    
   7 C7             3.6699    -0.7453     0.0574 C.2     
   8 N8             4.7611    -0.5273    -0.5864 N.2     
   9 C9             4.8893     0.5845    -1.5356 C.3     
  10 C10            4.6746     1.8658    -0.7723 C.2     
  11 N11            3.5560     2.1895    -0.0767 N.pl3   
  12 C12            3.7736     3.3975     0.5109 C.2     
  13 C13            5.5445     2.9042    -0.6402 C.2     
  14 N14            4.9538     3.8276     0.1648 N.2     
  15 C15            3.8331     0.4524    -2.6347 C.3     
  16 C16            3.6709    -1.9190     0.9639 C.ar    
  17 N17            2.5820    -2.2106     1.6641 N.ar    
  18 C18            4.8129    -2.7093     1.0691 C.ar    
  19 C19            4.7989    -3.8025     1.9201 C.ar    
  20 C20            3.6423    -4.0678     2.6372 C.ar    
  21 C21            2.5414    -3.2427     2.4794 C.ar    
  22 C22           -1.2280    -0.7373    -0.0022 C.1     
  23 C23           -2.2364    -1.3384    -0.0056 C.1     
  24 Si24          -3.8684    -2.3113    -0.0111 Si      
  25 C25           -3.5025    -4.1379    -0.0211 C.3     
  26 C26           -4.8517    -1.8833     1.5122 C.3     
  27 C27           -4.8513    -1.8665    -1.5300 C.3     
  28 C28            6.8776     3.0085    -1.2548 C.2     
  29 O29            7.2944     2.1093    -1.9584 O.2     
  30 O30            7.6363     4.1012    -1.0375 O.3     
  31 C31            8.9401     4.1359    -1.6755 C.3     
  32 C32            9.6493     5.4430    -1.3156 C.3     
  33 H33           -0.9586     1.9218     0.0170 H       
  34 H34            1.2264    -1.7613    -0.0070 H       
  35 H35            1.1507     3.1737     0.0075 H       
  36 H36            5.8858     0.5801    -1.9773 H       
  37 H37            3.0811     3.9152     1.1581 H       
  38 H38            2.8392     0.4730    -2.1878 H       
  39 H39            3.9333     1.2805    -3.3362 H       
  40 H40            3.9745    -0.4905    -3.1630 H       
  41 H41            5.6968    -2.4735     0.4950 H       
  42 H42            5.6691    -4.4340     2.0223 H       
  43 H43            3.5988    -4.9125     3.3088 H       
  44 H44            1.6390    -3.4462     3.0367 H       
  45 H45           -2.9274    -4.3982     0.8675 H       
  46 H46           -4.4387    -4.6961    -0.0243 H       
  47 H47           -2.9272    -4.3884    -0.9125 H       
  48 H48           -5.0658    -0.8145     1.5181 H       
  49 H49           -5.7880    -2.4414     1.5091 H       
  50 H50           -4.2766    -2.1435     2.4009 H       
  51 H51           -4.2760    -2.1169    -2.4213 H       
  52 H52           -5.7876    -2.4246    -1.5332 H       
  53 H53           -5.0654    -0.7978    -1.5241 H       
  54 H54            9.5365     3.2917    -1.3296 H       
  55 H55            8.8172     4.0750    -2.7569 H       
  56 H56            9.0529     6.2872    -1.6616 H       
  57 H57            9.7722     5.5039    -0.2343 H       
  58 H58           10.6281     5.4691    -1.7946 H       
@<TRIPOS>BOND
   1    1    2 ar
   2    1    6 ar
   3    1   33 1
   4    2    3 ar
   5    2   22 1
   6    3    4 ar
   7    3   34 1
   8    4    5 ar
   9    4    7 1
  10    5    6 ar
  11    5   11 1
  12    6   35 1
  13    7    8 2
  14    7   16 1
  15    8    9 1
  16    9   10 1
  17    9   15 1
  18    9   36 1
  19   10   11 1
  20   10   13 2
  21   11   12 1
  22   12   14 2
  23   12   37 1
  24   13   14 1
  25   13   28 1
  26   15   38 1
  27   15   39 1
  28   15   40 1
  29   16   17 ar
  30   16   18 ar
  31   17   21 ar
  32   18   19 ar
  33   18   41 1
  34   19   20 ar
  35   19   42 1
  36   20   21 ar
  37   20   43 1
  38   21   44 1
  39   22   23 3
  40   23   24 1
  41   24   25 1
  42   24   26 1
  43   24   27 1
  44   25   45 1
  45   25   46 1
  46   25   47 1
  47   26   48 1
  48   26   49 1
  49   26   50 1
  50   27   51 1
  51   27   52 1
  52   27   53 1
  53   28   29 2
  54   28   30 1
  55   30   31 1
  56   31   32 1
  57   31   54 1
  58   31   55 1
  59   32   56 1
  60   32   57 1
  61   32   58 1

#	End of record

