#	Name: ASD01813056
#	Creating user name:	WinNT
#	Creation time:	15. 06. 2019 19:29

#	Modifying user name:	WinNT
#	Modification time:	15. 06. 2019 19:29

#	Program:	/corina/corina34_cracker 3.40 0067  02.08.2006

@<TRIPOS>MOLECULE
ASD01813056
  49   53    0    0    0
SMALL
NO_CHARGES


@<TRIPOS>ATOM
   1 C1             0.0051     1.3826    -0.2674 C.ar    
   2 C2             0.0368     0.0090    -0.4015 C.ar    
   3 C3             1.2476    -0.6671    -0.3920 C.ar    
   4 C4             2.4242     0.0278    -0.2488 C.ar    
   5 C5             2.4112     1.4192    -0.1118 C.ar    
   6 C6             1.1849     2.0981    -0.1220 C.ar    
   7 C7             3.8724    -0.3909    -0.1993 C.3     
   8 N8             4.6495     0.8421    -0.0284 N.am    
   9 C9             3.8016     1.8839     0.0216 C.2     
  10 C10            6.1088     0.9241     0.0710 C.3     
  11 C11            6.6974     1.0923    -1.3061 C.ar    
  12 O12            1.1518     3.4477     0.0091 O.3     
  13 O13            4.1356     3.0451     0.1576 O.2     
  14 C14            6.8923     2.3599    -1.8231 C.ar    
  15 C15            7.4315     2.5172    -3.0849 C.ar    
  16 C16            7.7781     1.4010    -3.8343 C.ar    
  17 C17            7.5812     0.1296    -3.3125 C.ar    
  18 C18            7.0468    -0.0212    -2.0478 C.ar    
  19 C19           -0.0530     4.0677    -0.0810 C.ar    
  20 N20            8.5766     2.7747    -5.7615 N.2     
  21 N21            8.3252     1.5575    -5.1154 N.pl3   
  22 C22            8.7043     0.5601    -5.9461 C.2     
  23 C23            9.1796     1.1265    -7.0794 C.2     
  24 C24            9.0884     2.5155    -6.9378 C.2     
  25 C25           -0.4803     4.5775    -1.3006 C.ar    
  26 C26           -1.7017     5.2073    -1.3969 C.ar    
  27 C27           -2.5125     5.3335    -0.2657 C.ar    
  28 C28           -2.0806     4.8199     0.9602 C.ar    
  29 C29           -0.8589     4.1857     1.0473 C.ar    
  30 F30           -0.4418     3.6836     2.2301 F       
  31 C31           -3.7826     5.9880    -0.3623 C.1     
  32 N32           -4.7901     6.5072    -0.4390 N.1     
  33 H33           -0.9414     1.9027    -0.2802 H       
  34 H34           -0.8855    -0.5416    -0.5139 H       
  35 H35            1.2657    -1.7419    -0.4969 H       
  36 H36            4.0405    -1.0598     0.6447 H       
  37 H37            4.1520    -0.8840    -1.1303 H       
  38 H38            6.3834     1.7780     0.6903 H       
  39 H39            6.4943     0.0095     0.5217 H       
  40 H40            6.6222     3.2278    -1.2398 H       
  41 H41            7.5832     3.5075    -3.4883 H       
  42 H42            7.8495    -0.7405    -3.8932 H       
  43 H43            6.8979    -1.0099    -1.6395 H       
  44 H44            8.6398    -0.4984    -5.7416 H       
  45 H45            9.5622     0.5994    -7.9410 H       
  46 H46            9.3887     3.2477    -7.6728 H       
  47 H47            0.1464     4.4803    -2.1748 H       
  48 H48           -2.0322     5.6034    -2.3457 H       
  49 H49           -2.7043     4.9154     1.8367 H       
@<TRIPOS>BOND
   1    1    2 ar
   2    1    6 ar
   3    1   33 1
   4    2    3 ar
   5    2   34 1
   6    3    4 ar
   7    3   35 1
   8    4    7 1
   9    4    5 ar
  10    5    6 ar
  11    5    9 1
  12    6   12 1
  13    7    8 1
  14    7   36 1
  15    7   37 1
  16    8    9 am
  17    8   10 1
  18    9   13 2
  19   10   11 1
  20   10   38 1
  21   10   39 1
  22   11   14 ar
  23   11   18 ar
  24   12   19 1
  25   14   15 ar
  26   14   40 1
  27   15   16 ar
  28   15   41 1
  29   16   17 ar
  30   16   21 1
  31   17   18 ar
  32   17   42 1
  33   18   43 1
  34   19   25 ar
  35   19   29 ar
  36   20   21 1
  37   20   24 2
  38   21   22 1
  39   22   23 2
  40   22   44 1
  41   23   24 1
  42   23   45 1
  43   24   46 1
  44   25   26 ar
  45   25   47 1
  46   26   27 ar
  47   26   48 1
  48   27   28 ar
  49   27   31 1
  50   28   29 ar
  51   28   49 1
  52   29   30 1
  53   31   32 3

#	End of record

