#	Name: ASD01440111
#	Creating user name:	WinNT
#	Creation time:	15. 06. 2019 19:21

#	Modifying user name:	WinNT
#	Modification time:	15. 06. 2019 19:21

#	Program:	/corina/corina34_cracker 3.40 0067  02.08.2006

@<TRIPOS>MOLECULE
ASD01440111
  70   74    0    0    0
SMALL
NO_CHARGES


@<TRIPOS>ATOM
   1 C1            -0.0441     1.3267     0.2246 C.2     
   2 N2             0.0008    -0.0049     0.0212 N.am    
   3 O3             0.9520     1.9196     0.5890 O.2     
   4 O4            -1.1916     2.0010     0.0186 O.3     
   5 N5             1.7114    -1.8597     2.1948 N.am    
   6 C6             1.6907    -0.6178     1.6830 C.2     
   7 C7             1.2506    -0.7375     0.2394 C.3     
   8 C8             1.0363    -2.2211     0.0440 C.ar    
   9 C9             0.6377    -2.9705    -1.0348 C.ar    
  10 C10            0.5272    -4.3596    -0.9133 C.ar    
  11 C11            0.8248    -4.9697     0.3087 C.ar    
  12 C12            1.2232    -4.2095     1.3830 C.ar    
  13 C13            1.3339    -2.8227     1.2632 C.ar    
  14 O14            1.9719     0.4069     2.2677 O.2     
  15 C15            3.6052    -0.7728    -0.6420 C.ar    
  16 C16            2.3272    -0.2299    -0.6849 C.ar    
  17 C17            2.0558     0.7827    -1.5881 C.ar    
  18 C18            3.0776     1.2187    -2.4207 C.ar    
  19 C19            4.3242     0.6336    -2.3234 C.ar    
  20 N20            4.5527    -0.3305    -1.4518 N.ar    
  21 O21            3.8856    -1.7622     0.2429 O.3     
  22 C22            5.2180    -2.2787     0.2379 C.3     
  23 C23            5.3428    -3.3781     1.2947 C.3     
  24 S24            2.1436    -2.2065     3.7553 S.o2    
  25 O25            2.5721    -3.5613     3.7614 O.2     
  26 O26            2.9619    -1.1306     4.1936 O.2     
  27 C27            0.6764    -2.1443     4.7290 C.ar    
  28 C28           -0.0010    -0.9431     4.8863 C.ar    
  29 C29           -1.1551    -0.8948     5.6525 C.ar    
  30 C30           -1.6300    -2.0472     6.2599 C.ar    
  31 C31           -0.9493    -3.2456     6.0996 C.ar    
  32 C32            0.1981    -3.2923     5.3306 C.ar    
  33 O33           -2.7611    -2.0029     7.0120 O.3     
  34 C34           -3.1922    -3.2280     7.6080 C.3     
  35 O35            0.4672     0.1848     4.2901 O.3     
  36 C36           -0.2806     1.3852     4.4951 C.3     
  37 C37            0.1119    -5.1508    -2.0324 C.1     
  38 N38           -0.2176    -5.7784    -2.9201 N.1     
  39 C39           -1.1406     3.3547     0.1313 C.ar    
  40 C40           -0.5667     4.1148    -0.8774 C.ar    
  41 C41           -0.5160     5.4903    -0.7605 C.ar    
  42 C42           -1.0364     6.1096     0.3608 C.ar    
  43 C43           -1.6089     5.3543     1.3675 C.ar    
  44 C44           -1.6675     3.9789     1.2525 C.ar    
  45 H45           -0.7943    -0.4782    -0.2697 H       
  46 H46            0.4099    -2.4891    -1.9743 H       
  47 H47            0.7413    -6.0418     0.4095 H       
  48 H48            1.4512    -4.6874     2.3243 H       
  49 H49            1.0715     1.2235    -1.6443 H       
  50 H50            2.8991     2.0070    -3.1370 H       
  51 H51            5.1224     0.9690    -2.9690 H       
  52 H52            5.4437    -2.6923    -0.7450 H       
  53 H53            5.9197    -1.4759     0.4642 H       
  54 H54            5.1171    -2.9646     2.2776 H       
  55 H55            4.6411    -4.1809     1.0684 H       
  56 H56            6.3591    -3.7721     1.2909 H       
  57 H57           -1.6834     0.0390     5.7763 H       
  58 H58           -1.3188    -4.1434     6.5725 H       
  59 H59            0.7242    -4.2269     5.2034 H       
  60 H60           -2.4134    -3.6028     8.2721 H       
  61 H61           -4.1038    -3.0530     8.1794 H       
  62 H62           -3.3883    -3.9627     6.8270 H       
  63 H63           -1.2934     1.2517     4.1149 H       
  64 H64           -0.3194     1.6116     5.5606 H       
  65 H65            0.2006     2.2078     3.9661 H       
  66 H66           -0.1594     3.6314    -1.7532 H       
  67 H67           -0.0693     6.0824    -1.5455 H       
  68 H68           -0.9952     7.1851     0.4507 H       
  69 H69           -2.0144     5.8403     2.2426 H       
  70 H70           -2.1189     3.3897     2.0370 H       
@<TRIPOS>BOND
   1    1    2 am
   2    1    3 2
   3    1    4 1
   4    2    7 1
   5    2   45 1
   6    4   39 1
   7    5    6 am
   8    5   13 1
   9    5   24 am
  10    6    7 1
  11    6   14 2
  12    7    8 1
  13    7   16 1
  14    8    9 ar
  15    8   13 ar
  16    9   10 ar
  17    9   46 1
  18   10   11 ar
  19   10   37 1
  20   11   12 ar
  21   11   47 1
  22   12   13 ar
  23   12   48 1
  24   15   16 ar
  25   15   20 ar
  26   15   21 1
  27   16   17 ar
  28   17   18 ar
  29   17   49 1
  30   18   19 ar
  31   18   50 1
  32   19   20 ar
  33   19   51 1
  34   21   22 1
  35   22   23 1
  36   22   52 1
  37   22   53 1
  38   23   54 1
  39   23   55 1
  40   23   56 1
  41   24   25 2
  42   24   26 2
  43   24   27 1
  44   27   28 ar
  45   27   32 ar
  46   28   29 ar
  47   28   35 1
  48   29   30 ar
  49   29   57 1
  50   30   31 ar
  51   30   33 1
  52   31   32 ar
  53   31   58 1
  54   32   59 1
  55   33   34 1
  56   34   60 1
  57   34   61 1
  58   34   62 1
  59   35   36 1
  60   36   63 1
  61   36   64 1
  62   36   65 1
  63   37   38 3
  64   39   40 ar
  65   39   44 ar
  66   40   41 ar
  67   40   66 1
  68   41   42 ar
  69   41   67 1
  70   42   43 ar
  71   42   68 1
  72   43   44 ar
  73   43   69 1
  74   44   70 1

#	End of record

