#	Name: ASD01720156
#	Creating user name:	WinNT
#	Creation time:	15. 06. 2019 19:23

#	Modifying user name:	WinNT
#	Modification time:	15. 06. 2019 19:23

#	Program:	/corina/corina34_cracker 3.40 0067  02.08.2006

@<TRIPOS>MOLECULE
ASD01720156
  57   60    0    0    0
SMALL
NO_CHARGES


@<TRIPOS>ATOM
   1 C1            -0.3487     1.5855    -0.1784 C.ar    
   2 C2            -0.3746     0.2004    -0.1967 C.ar    
   3 C3             0.8099    -0.5189    -0.1996 C.ar    
   4 C4             2.0205     0.1419    -0.1849 C.ar    
   5 C5             2.0514     1.5355    -0.1670 C.ar    
   6 C6             0.8577     2.2549    -0.1636 C.ar    
   7 F7            -1.5582    -0.4509    -0.2111 F       
   8 C8             0.7752    -2.0254    -0.2185 C.3     
   9 C9             3.3506     2.2505    -0.1506 C.ar    
  10 N10            4.4893     1.5647    -0.1529 N.ar    
  11 C11            5.6438     2.2056    -0.1382 C.ar    
  12 C12            5.6702     3.5890    -0.1200 C.ar    
  13 N13            4.5406     4.2764    -0.1176 N.ar    
  14 C14            3.3819     3.6453    -0.1384 C.ar    
  15 C15            6.9909     4.3147    -0.1023 C.3     
  16 C16            7.4894     4.4313     1.3395 C.3     
  17 N17            6.8195     5.6545    -0.6696 N.pl3   
  18 C18            7.8992     6.3093    -1.2362 C.ar    
  19 N19            7.7259     7.5200    -1.7442 N.ar    
  20 C20            8.7424     8.1748    -2.2951 C.ar    
  21 C21            9.9984     7.5687    -2.3315 C.ar    
  22 C22           10.1365     6.3044    -1.7902 C.ar    
  23 N23            9.0816     5.7115    -1.2519 N.ar    
  24 N24            8.5568     9.4453    -2.8279 N.am    
  25 C25            9.5026    10.1884    -3.4186 C.2     
  26 O26            9.0665    11.3776    -3.8483 O.3     
  27 O27           10.6514     9.8159    -3.5517 O.2     
  28 C28            7.6498    11.5168    -3.5375 C.3     
  29 C29            7.2888    10.1907    -2.8408 C.3     
  30 C30            6.8105    10.4479    -1.4104 C.3     
  31 C31            7.9003    11.1895    -0.6338 C.3     
  32 C32            5.5390    11.2983    -1.4430 C.3     
  33 H33           -1.2742     2.1422    -0.1803 H       
  34 H34            2.9432    -0.4195    -0.1868 H       
  35 H35            0.8770     3.3346    -0.1501 H       
  36 H36            0.7721    -2.3759    -1.2506 H       
  37 H37            1.6540    -2.4155     0.2950 H       
  38 H38           -0.1254    -2.3745     0.2865 H       
  39 H39            6.5693     1.6489    -0.1401 H       
  40 H40            2.4595     4.2072    -0.1364 H       
  41 H41            7.7184     3.7597    -0.6945 H       
  42 H42            7.6169     3.4345     1.7616 H       
  43 H43            8.4446     4.9562     1.3523 H       
  44 H44            6.7619     4.9863     1.9318 H       
  45 H45            5.9494     6.0826    -0.6481 H       
  46 H46           10.8437     8.0758    -2.7729 H       
  47 H47           11.0951     5.8070    -1.8026 H       
  48 H48            7.4868    12.3611    -2.8676 H       
  49 H49            7.0679    11.6351    -4.4515 H       
  50 H50            6.5290     9.6541    -3.4090 H       
  51 H51            6.5991     9.4969    -0.9215 H       
  52 H52            7.5595    11.3727     0.3853 H       
  53 H53            8.8061    10.5836    -0.6106 H       
  54 H54            8.1117    12.1404    -1.1227 H       
  55 H55            4.7952    10.8157    -2.0770 H       
  56 H56            5.1439    11.4000    -0.4322 H       
  57 H57            5.7721    12.2851    -1.8429 H       
@<TRIPOS>BOND
   1    1    2 ar
   2    1    6 ar
   3    1   33 1
   4    2    3 ar
   5    2    7 1
   6    3    4 ar
   7    3    8 1
   8    4    5 ar
   9    4   34 1
  10    5    6 ar
  11    5    9 1
  12    6   35 1
  13    8   36 1
  14    8   37 1
  15    8   38 1
  16    9   10 ar
  17    9   14 ar
  18   10   11 ar
  19   11   12 ar
  20   11   39 1
  21   12   13 ar
  22   12   15 1
  23   13   14 ar
  24   14   40 1
  25   15   16 1
  26   15   17 1
  27   15   41 1
  28   16   42 1
  29   16   43 1
  30   16   44 1
  31   17   18 1
  32   17   45 1
  33   18   19 ar
  34   18   23 ar
  35   19   20 ar
  36   20   21 ar
  37   20   24 1
  38   21   22 ar
  39   21   46 1
  40   22   23 ar
  41   22   47 1
  42   24   25 am
  43   24   29 1
  44   25   26 1
  45   25   27 2
  46   26   28 1
  47   28   29 1
  48   28   48 1
  49   28   49 1
  50   29   30 1
  51   29   50 1
  52   30   31 1
  53   30   32 1
  54   30   51 1
  55   31   52 1
  56   31   53 1
  57   31   54 1
  58   32   55 1
  59   32   56 1
  60   32   57 1

#	End of record

