#	Name: ASD01912462
#	Creating user name:	WinNT
#	Creation time:	15. 06. 2019 19:59

#	Modifying user name:	WinNT
#	Modification time:	15. 06. 2019 19:59

#	Program:	/corina/corina34_cracker 3.40 0067  02.08.2006

@<TRIPOS>MOLECULE
ASD01912462
  40   41    0    0    0
SMALL
NO_CHARGES


@<TRIPOS>ATOM
   1 C1            -0.0169     1.3928     0.0241 C.ar    
   2 C2             0.0017    -0.0033     0.0130 C.ar    
   3 C3             1.2379    -0.6670    -0.0098 C.ar    
   4 C4             2.3897     0.0932    -0.0204 C.ar    
   5 C5             2.2891     1.4815    -0.0083 C.ar    
   6 N6             1.1074     2.0787     0.0133 N.ar    
   7 C7            -1.2222    -0.7467     0.0253 C.1     
   8 C8            -2.2256    -1.3561     0.0353 C.1     
   9 C9            -3.4495    -2.0994     0.0476 C.ar    
  10 C10           -3.4226    -3.4960     0.0364 C.ar    
  11 C11           -4.6074    -4.2064     0.0488 C.ar    
  12 C12           -5.8205    -3.5369     0.0719 C.ar    
  13 C13           -5.8550    -2.1539     0.0830 C.ar    
  14 C14           -4.6785    -1.4302     0.0767 C.ar    
  15 N15            3.4483     2.2538    -0.0189 N.am    
  16 C16            3.3633     3.5956    -0.1126 C.2     
  17 C17            4.6080     4.4387    -0.0069 C.3     
  18 O18            2.2852     4.1245    -0.2820 O.2     
  19 O19            4.2608     5.8188    -0.1362 O.3     
  20 C20            5.2688     4.2043     1.3530 C.3     
  21 C21            5.5824     4.0513    -1.1210 C.3     
  22 C22            5.3753     6.7090    -0.0499 C.3     
  23 F23           -4.5833    -5.5571     0.0381 F       
  24 F24           -4.7140    -0.0797     0.0881 F       
  25 H25           -0.9621     1.9151     0.0371 H       
  26 H26            1.2868    -1.7458    -0.0185 H       
  27 H27            3.3585    -0.3839    -0.0376 H       
  28 H28           -2.4779    -4.0191     0.0178 H       
  29 H29           -6.7435    -4.0975     0.0808 H       
  30 H30           -6.8041    -1.6389     0.1010 H       
  31 H31            4.3168     1.8258     0.0411 H       
  32 H32            5.5336     3.1515     1.4516 H       
  33 H33            6.1690     4.8141     1.4294 H       
  34 H34            4.5745     4.4802     2.1467 H       
  35 H35            5.1117     4.2183    -2.0898 H       
  36 H36            6.4827     4.6611    -1.0446 H       
  37 H37            5.8472     2.9986    -1.0224 H       
  38 H38            5.8620     6.5891     0.9180 H       
  39 H39            6.0855     6.4802    -0.8445 H       
  40 H40            5.0285     7.7368    -0.1574 H       
@<TRIPOS>BOND
   1    1    2 ar
   2    1    6 ar
   3    1   25 1
   4    2    3 ar
   5    2    7 1
   6    3    4 ar
   7    3   26 1
   8    4    5 ar
   9    4   27 1
  10    5    6 ar
  11    5   15 1
  12    7    8 3
  13    8    9 1
  14    9   10 ar
  15    9   14 ar
  16   10   11 ar
  17   10   28 1
  18   11   12 ar
  19   11   23 1
  20   12   13 ar
  21   12   29 1
  22   13   14 ar
  23   13   30 1
  24   14   24 1
  25   15   16 am
  26   15   31 1
  27   16   17 1
  28   16   18 2
  29   17   19 1
  30   17   20 1
  31   17   21 1
  32   19   22 1
  33   20   32 1
  34   20   33 1
  35   20   34 1
  36   21   35 1
  37   21   36 1
  38   21   37 1
  39   22   38 1
  40   22   39 1
  41   22   40 1

#	End of record

