#	Name: ASD08170624
#	Creating user name:	WinNT
#	Creation time:	15. 06. 2019 21:17

#	Modifying user name:	WinNT
#	Modification time:	15. 06. 2019 21:17

#	Program:	/corina/corina34_cracker 3.40 0067  02.08.2006

@<TRIPOS>MOLECULE
ASD08170624
 100  103    0    0    0
SMALL
NO_CHARGES


@<TRIPOS>ATOM
   1 N1            -0.5615    -4.5561    -5.0811 N.ar    
   2 C2            -0.4950    -5.1158    -3.8890 C.ar    
   3 C3            -1.7417    -5.2636    -3.0553 C.3     
   4 C4            -4.3392    -2.6794    -1.8719 C.3     
   5 C5            -5.5859    -2.8272    -1.0382 C.2     
   6 N6            -5.6575    -2.7357     0.2518 N.2     
   7 N7            -6.7998    -2.8912     0.7665 N.2     
   8 C8            -7.7949    -3.1273    -0.0342 C.2     
   9 S9            -7.2109    -3.1485    -1.6445 S.3     
  10 N10           -9.1165    -3.3246     0.3515 N.am    
  11 C11           -3.6733    -4.0465    -2.0404 C.3     
  12 C12           -2.4076    -3.8965    -2.8868 C.3     
  13 C13            0.7226    -5.5689    -3.4025 C.ar    
  14 C14            1.8434    -5.4128    -4.2037 C.ar    
  15 C15            1.6764    -4.8098    -5.4488 C.ar    
  16 N16            0.4721    -4.4087    -5.8276 N.ar    
  17 N17            2.7721    -4.6291    -6.2922 N.am    
  18 C18            2.6295    -3.9466    -7.4455 C.2     
  19 O19            1.5735    -3.4100    -7.7060 O.2     
  20 C20            3.7821    -3.8502    -8.4116 C.3     
  21 C21            3.3653    -3.0397    -9.6117 C.ar    
  22 C22            3.5472    -1.6694    -9.6174 C.ar    
  23 C23            3.1648    -0.9259   -10.7182 C.ar    
  24 C24            2.6009    -1.5528   -11.8136 C.ar    
  25 C25            2.4198    -2.9233   -11.8083 C.ar    
  26 C26            2.8062    -3.6673   -10.7092 C.ar    
  27 C27           -9.4127    -3.5632     1.6445 C.2     
  28 O28           -8.5214    -3.7188     2.4521 O.2     
  29 C29          -10.8515    -3.6366     2.0867 C.3     
  30 C30          -11.0756    -4.9120     2.8575 C.ar    
  31 C31          -11.9989    -5.8373     2.4081 C.ar    
  32 C32          -12.2056    -7.0073     3.1145 C.ar    
  33 C33          -10.5582    -6.3273     4.7182 C.ar    
  34 C34          -10.3535    -5.1582     4.0106 C.ar    
  35 C35          -11.4873    -7.2523     4.2722 C.ar    
  36 F36          -11.6885    -8.3955     4.9635 F       
  37 C37          -13.2130    -8.0155     2.6247 C.3     
  38 N38          -12.5125    -9.1547     2.0266 N.am    
  39 C39          -13.2152   -10.1861     1.5176 C.2     
  40 O40          -12.5715   -11.2330     0.9679 O.3     
  41 O41          -14.4296   -10.1710     1.5549 O.2     
  42 C42          -13.3922   -12.3080     0.4396 C.3     
  43 C43          -14.3024   -11.7606    -0.6617 C.3     
  44 C44          -12.4910   -13.4004    -0.1396 C.3     
  45 C45          -14.2482   -12.8956     1.5634 C.3     
  46 C46          -11.1720    -2.4372     2.9810 C.3     
  47 O47          -10.9801    -1.2284     2.2435 O.3     
  48 C48          -10.1866    -3.2730    -0.6477 C.3     
  49 O49          -10.7199    -1.9242    -0.7166 O.3     
  50 C50           -9.9821    -1.0096    -1.3652 C.2     
  51 C51          -10.5268     0.3778    -1.5877 C.3     
  52 O52           -8.8812    -1.2986    -1.7707 O.2     
  53 C53           -9.4945     1.2156    -2.3449 C.3     
  54 C54          -10.0475     2.6242    -2.5708 C.3     
  55 H55           -2.4321    -5.9453    -3.5519 H       
  56 H56           -1.4785    -5.6628    -2.0758 H       
  57 H57           -4.6024    -2.2802    -2.8514 H       
  58 H58           -3.6487    -1.9977    -1.3753 H       
  59 H59           -3.4101    -4.4457    -1.0608 H       
  60 H60           -4.3637    -4.7283    -2.5370 H       
  61 H61           -1.7171    -3.2147    -2.3902 H       
  62 H62           -2.6708    -3.4973    -3.8663 H       
  63 H63            0.7954    -6.0294    -2.4283 H       
  64 H64            2.8155    -5.7477    -3.8730 H       
  65 H65            3.6370    -4.9946    -6.0487 H       
  66 H66            4.6271    -3.3661    -7.9219 H       
  67 H67            4.0723    -4.8508    -8.7319 H       
  68 H68            3.9877    -1.1796    -8.7616 H       
  69 H69            3.3062     0.1448   -10.7224 H       
  70 H70            2.3015    -0.9719   -12.6734 H       
  71 H71            1.9789    -3.4130   -12.6640 H       
  72 H72            2.6647    -4.7379   -10.7051 H       
  73 H73          -11.5017    -3.6216     1.2120 H       
  74 H74          -12.5592    -5.6459     1.5048 H       
  75 H75           -9.9938    -6.5196     5.6187 H       
  76 H76           -9.6288    -4.4368     4.3581 H       
  77 H77          -13.8185    -8.3606     3.4628 H       
  78 H78          -13.8572    -7.5520     1.8776 H       
  79 H79          -11.5431    -9.1667     1.9968 H       
  80 H80          -13.6926   -11.3420    -1.4624 H       
  81 H81          -14.9186   -12.5676    -1.0583 H       
  82 H82          -14.9445   -10.9824    -0.2491 H       
  83 H83          -11.8426   -13.7903     0.6450 H       
  84 H84          -13.1072   -14.2073    -0.5362 H       
  85 H85          -11.8812   -12.9817    -0.9402 H       
  86 H86          -14.8902   -12.1174     1.9760 H       
  87 H87          -14.8643   -13.7026     1.1668 H       
  88 H88          -13.5998   -13.2856     2.3480 H       
  89 H89          -12.2080    -2.4990     3.3141 H       
  90 H90          -10.5108    -2.4431     3.8475 H       
  91 H91          -11.0944    -0.4247     2.7689 H       
  92 H92           -9.7881    -3.5563    -1.6219 H       
  93 H93          -10.9810    -3.9638    -0.3653 H       
  94 H94          -11.4453     0.3182    -2.1716 H       
  95 H95          -10.7377     0.8440    -0.6253 H       
  96 H96           -8.5760     1.2752    -1.7611 H       
  97 H97           -9.2836     0.7494    -3.3074 H       
  98 H98           -9.3121     3.2211    -3.1103 H       
  99 H99          -10.9660     2.5646    -3.1547 H       
 100 H100         -10.2584     3.0904    -1.6084 H       
@<TRIPOS>BOND
   1    1    2 ar
   2    1   16 ar
   3    2    3 1
   4    2   13 ar
   5    3   12 1
   6    3   55 1
   7    3   56 1
   8    4    5 1
   9    4   11 1
  10    4   57 1
  11    4   58 1
  12    5    6 2
  13    5    9 1
  14    6    7 1
  15    7    8 2
  16    8    9 1
  17    8   10 1
  18   10   27 am
  19   10   48 1
  20   11   12 1
  21   11   59 1
  22   11   60 1
  23   12   61 1
  24   12   62 1
  25   13   14 ar
  26   13   63 1
  27   14   15 ar
  28   14   64 1
  29   15   16 ar
  30   15   17 1
  31   17   18 am
  32   17   65 1
  33   18   19 2
  34   18   20 1
  35   20   21 1
  36   20   66 1
  37   20   67 1
  38   21   22 ar
  39   21   26 ar
  40   22   23 ar
  41   22   68 1
  42   23   24 ar
  43   23   69 1
  44   24   25 ar
  45   24   70 1
  46   25   26 ar
  47   25   71 1
  48   26   72 1
  49   27   28 2
  50   27   29 1
  51   29   30 1
  52   29   46 1
  53   29   73 1
  54   30   31 ar
  55   30   34 ar
  56   31   32 ar
  57   31   74 1
  58   32   35 ar
  59   32   37 1
  60   33   34 ar
  61   33   35 ar
  62   33   75 1
  63   34   76 1
  64   35   36 1
  65   37   38 1
  66   37   77 1
  67   37   78 1
  68   38   39 am
  69   38   79 1
  70   39   40 1
  71   39   41 2
  72   40   42 1
  73   42   43 1
  74   42   44 1
  75   42   45 1
  76   43   80 1
  77   43   81 1
  78   43   82 1
  79   44   83 1
  80   44   84 1
  81   44   85 1
  82   45   86 1
  83   45   87 1
  84   45   88 1
  85   46   47 1
  86   46   89 1
  87   46   90 1
  88   47   91 1
  89   48   49 1
  90   48   92 1
  91   48   93 1
  92   49   50 1
  93   50   51 1
  94   50   52 2
  95   51   53 1
  96   51   94 1
  97   51   95 1
  98   53   54 1
  99   53   96 1
 100   53   97 1
 101   54   98 1
 102   54   99 1
 103   54  100 1

#	End of record

