#	Name: ASD06590060
#	Creating user name:	WinNT
#	Creation time:	15. 06. 2019 21:06

#	Modifying user name:	WinNT
#	Modification time:	15. 06. 2019 21:06

#	Program:	/corina/corina34_cracker 3.40 0067  02.08.2006

@<TRIPOS>MOLECULE
ASD06590060
 378  382    0    0    0
SMALL
NO_CHARGES


@<TRIPOS>ATOM
   1 C1            -0.5880    -7.8764    -8.0531 C.2     
   2 O2            -0.8999    -9.0447    -8.1471 O.2     
   3 N3             1.7231    -8.6173    -8.1752 N.3     
   4 C4             0.8360    -7.4539    -8.3076 C.3     
   5 C5             0.9532    -6.8814    -9.7216 C.3     
   6 C6             2.3674    -6.3386    -9.9365 C.3     
   7 C7             2.4845    -5.7662   -11.3506 C.3     
   8 C8             3.8988    -5.2233   -11.5655 C.3     
   9 N9             4.0110    -4.6752   -12.9194 N.am    
  10 C10           -3.8227    -6.2015    -7.7462 C.2     
  11 O11           -3.3666    -5.1346    -8.0993 O.2     
  12 N12           -1.5161    -6.9554    -7.7265 N.am    
  13 C13           -2.9017    -7.3653    -7.4850 C.3     
  14 C14           -3.0533    -7.8196    -6.0319 C.3     
  15 C15           -2.2129    -9.0770    -5.8003 C.3     
  16 C16           -2.3645    -9.5312    -4.3471 C.3     
  17 C17           -1.5241   -10.7886    -4.1155 C.3     
  18 N18           -1.6696   -11.2247    -2.7203 N.3     
  19 C19           -7.3189    -5.3921    -7.0502 C.2     
  20 O20           -7.4623    -6.3675    -6.3438 O.2     
  21 N21           -5.1532    -6.3462    -7.5874 N.am    
  22 C22           -6.0486    -5.2148    -7.8413 C.3     
  23 C23           -6.3814    -5.1526    -9.3333 C.3     
  24 O24           -7.1261    -6.3146    -9.7041 O.3     
  25 C25          -10.6503    -3.8872    -7.0310 C.2     
  26 O26          -10.4376    -3.2683    -8.0521 O.2     
  27 N27           -8.2957    -4.4667    -7.1276 N.am    
  28 C28           -9.5307    -4.6391    -6.3586 C.3     
  29 C29           -9.3297    -4.0956    -4.9425 C.3     
  30 C30           -8.2955    -4.9266    -4.2276 C.2     
  31 C31           -8.5313    -5.9665    -3.4122 C.2     
  32 N32           -7.3480    -6.4733    -2.9482 N.pl3   
  33 C33           -6.2950    -5.7535    -3.4670 C.ar    
  34 C34           -4.9140    -5.8412    -3.3272 C.ar    
  35 C35           -4.1008    -4.9513    -3.9946 C.ar    
  36 C36           -4.6456    -3.9663    -4.8065 C.ar    
  37 C37           -5.9998    -3.8617    -4.9577 C.ar    
  38 C38           -6.8421    -4.7567    -4.2958 C.ar    
  39 C39          -14.0293    -2.8209    -6.1318 C.2     
  40 O40          -13.8847    -3.1491    -4.9732 O.2     
  41 N41          -11.8879    -3.9025    -6.4976 N.am    
  42 C42          -12.9763    -3.1716    -7.1513 C.3     
  43 C43          -13.5951    -4.0470    -8.2430 C.3     
  44 O44          -14.2121    -5.1889    -7.6452 O.3     
  45 C45          -17.4838    -1.6277    -6.2058 C.2     
  46 O46          -17.5675    -1.7742    -7.4068 O.2     
  47 N47          -15.1315    -2.1424    -6.5075 N.am    
  48 C48          -16.1551    -1.8014    -5.5164 C.3     
  49 C49          -15.7706    -0.4977    -4.8140 C.3     
  50 C50          -14.4853    -0.7104    -4.0117 C.3     
  51 C51          -14.1009     0.5934    -3.3093 C.3     
  52 N52          -12.8702     0.3897    -2.5411 N.pl3   
  53 C53          -12.3290     1.4287    -1.8217 C.2     
  54 N54          -12.9110     2.5951    -1.8230 N.2     
  55 N55          -11.1741     1.2376    -1.1008 N.pl3   
  56 C56          -20.7490    -0.2338    -5.3350 C.2     
  57 O57          -20.3366     0.2261    -4.2913 O.2     
  58 N58          -18.5791    -1.3094    -5.4878 N.am    
  59 C59          -19.8708    -1.1405    -6.1581 C.3     
  60 C60          -20.5476    -2.5040    -6.3120 C.3     
  61 C61          -19.7295    -3.3696    -7.2353 C.2     
  62 C62          -19.9146    -3.5264    -8.5555 C.2     
  63 N63          -18.9787    -4.3884    -9.0588 N.pl3   
  64 C64          -18.1474    -4.8184    -8.0489 C.ar    
  65 C65          -17.0554    -5.6788    -8.0087 C.ar    
  66 C66          -16.4132    -5.9141    -6.8124 C.ar    
  67 C67          -16.8450    -5.3007    -5.6447 C.ar    
  68 C68          -17.9161    -4.4521    -5.6614 C.ar    
  69 C69          -18.5775    -4.1946    -6.8634 C.ar    
  70 C70          -24.2937     0.6569    -5.2626 C.2     
  71 O71          -24.5833    -0.2021    -6.0684 O.2     
  72 N72          -21.9928     0.0661    -5.7587 N.am    
  73 C73          -22.8466     0.9476    -4.9586 C.3     
  74 C74          -22.5366     2.4063    -5.3009 C.3     
  75 C75          -21.0412     2.6680    -5.1107 C.3     
  76 O76          -22.8961     2.6633    -6.6599 O.3     
  77 C77          -27.4467     2.4113    -4.7400 C.2     
  78 O78          -27.0488     3.1996    -3.9086 O.2     
  79 N79          -25.2660     1.3514    -4.6392 N.am    
  80 C80          -26.6669     1.1522    -5.0186 C.3     
  81 C81          -27.2560    -0.0028    -4.2064 C.3     
  82 C82          -28.6624    -0.3210    -4.7181 C.3     
  83 C83          -28.5771    -0.8390    -6.1552 C.3     
  84 C84          -29.2994    -1.3898    -3.8277 C.3     
  85 C85          -30.8273     3.5906    -5.4777 C.2     
  86 O86          -31.1411     2.5397    -5.9953 O.2     
  87 N87          -28.5864     2.6613    -5.4146 N.am    
  88 C88          -29.3954     3.8350    -5.0764 C.3     
  89 C89          -28.8579     5.0573    -5.8233 C.3     
  90 C90          -33.8380     5.6224    -5.8906 C.2     
  91 O91          -33.2251     6.6594    -5.7490 O.2     
  92 N92          -31.7591     4.5401    -5.2615 N.am    
  93 C93          -33.1511     4.3025    -5.6516 C.3     
  94 C94          -33.8724     3.5474    -4.5334 C.3     
  95 C95          -33.2535     2.1571    -4.3753 C.3     
  96 C96          -33.8895     1.4489    -3.1775 C.3     
  97 C97          -33.5053     1.3395    -5.6438 C.3     
  98 C98          -36.5016     7.4542    -5.3880 C.2     
  99 O99          -36.4892     6.8273    -4.3498 O.2     
 100 N100         -35.1333     5.6505    -6.2617 N.am    
 101 C101         -35.7720     6.9258    -6.5961 C.3     
 102 C102         -36.7660     6.7141    -7.7398 C.3     
 103 C103         -36.0202     6.3081    -8.9848 C.2     
 104 O104         -34.8120     6.2976    -8.9889 O.2     
 105 O105         -36.6981     5.9581   -10.0892 O.3     
 106 C106         -38.9907    10.0498    -4.7316 C.2     
 107 O107         -39.1739    10.2512    -5.9135 O.2     
 108 N108         -37.1678     8.6236    -5.4611 N.am    
 109 C109         -37.8770     9.1372    -4.2866 C.3     
 110 C110         -36.9016     9.9167    -3.4023 C.3     
 111 C111         -35.8566     8.9772    -2.8578 C.ar    
 112 C112         -34.6861     8.7627    -3.5612 C.ar    
 113 C113         -33.7276     7.9009    -3.0617 C.ar    
 114 C114         -33.9394     7.2540    -1.8585 C.ar    
 115 C115         -35.1095     7.4693    -1.1547 C.ar    
 116 C116         -36.0661     8.3344    -1.6520 C.ar    
 117 C117         -41.1865    12.5049    -3.1462 C.2     
 118 O118         -40.5714    12.4634    -2.1017 O.2     
 119 N119         -39.7830    10.6420    -3.8163 N.am    
 120 C120         -40.8657    11.5291    -4.2489 C.3     
 121 C121         -42.1086    10.6972    -4.5713 C.3     
 122 C122         -41.8205     9.7945    -5.7726 C.3     
 123 C123         -43.0634     8.9626    -6.0951 C.3     
 124 C124         -42.7753     8.0599    -7.2964 C.3     
 125 N125         -43.9687     7.2611    -7.6060 N.3     
 126 C126         -43.8923    14.8453    -2.3949 C.2     
 127 O127         -44.5786    14.4309    -3.3049 O.2     
 128 N128         -42.1570    13.4237    -3.3206 N.am    
 129 C129         -42.4689    14.3722    -2.2486 C.3     
 130 C130         -41.5217    15.5705    -2.3364 C.3     
 131 C131         -40.0887    15.1088    -2.0640 C.3     
 132 C132         -39.1414    16.3071    -2.1518 C.3     
 133 N133         -37.7693    15.8650    -1.8910 N.pl3   
 134 C134         -36.7378    16.7737    -1.9160 C.2     
 135 N135         -35.5170    16.3804    -1.6840 N.2     
 136 N136         -36.9941    18.0972    -2.1857 N.pl3   
 137 C137         -45.9352    17.5412    -1.0086 C.2     
 138 O138         -44.9796    18.0690    -0.4801 O.2     
 139 N139         -44.4026    15.7289    -1.5143 N.am    
 140 C140         -45.7862    16.1888    -1.6565 C.3     
 141 C141         -46.7274    15.1916    -0.9776 C.3     
 142 C142         -46.6684    13.8519    -1.7143 C.3     
 143 C143         -47.6095    12.8548    -1.0354 C.3     
 144 C144         -47.5506    11.5151    -1.7721 C.3     
 145 N145         -48.4542    10.5577    -1.1203 N.3     
 146 C146         -48.7111    19.6852     0.0212 C.2     
 147 O147         -49.5327    18.8193    -0.1932 O.2     
 148 N148         -47.1303    18.1642    -1.0164 N.am    
 149 C149         -47.2750    19.4790    -0.3866 C.3     
 150 C150         -46.8655    20.5682    -1.3799 C.3     
 151 C151         -51.2620    21.5643    -0.1517 C.2     
 152 O152         -50.7109    21.7561    -1.2097 O.2     
 153 N153         -49.0824    20.8320     0.6241 N.am    
 154 C154         -50.4784    21.0325     1.0205 C.3     
 155 C155         -50.5420    22.0359     2.1739 C.3     
 156 C156         -49.8530    21.4427     3.4045 C.3     
 157 C157         -49.9166    22.4461     4.5578 C.3     
 158 N158         -49.2569    21.8781     5.7361 N.pl3   
 159 C159         -49.1894    22.6030     6.9023 C.2     
 160 N160         -49.7123    23.7955     6.9597 N.2     
 161 N161         -48.5702    22.0700     8.0081 N.pl3   
 162 O162         -52.5722    21.8248    -0.0204 O.3     
 163 C163           5.1753    -4.1383   -13.3347 C.2     
 164 O164           6.1302    -4.1088   -12.5876 O.2     
 165 C165          16.0104     4.2324   -26.1300 C.3     
 166 C166          15.8933     3.6600   -24.7160 C.3     
 167 C167          14.4790     3.1172   -24.5011 C.3     
 168 C168          14.3619     2.5447   -23.0870 C.3     
 169 C169          12.9476     2.0019   -22.8722 C.3     
 170 C170          12.8305     1.4295   -21.4581 C.3     
 171 C171          11.4163     0.8866   -21.2432 C.3     
 172 C172          11.2991     0.3142   -19.8292 C.3     
 173 C173           9.8849    -0.2286   -19.6143 C.3     
 174 C174           9.7677    -0.8011   -18.2003 C.3     
 175 C175           8.3535    -1.3439   -17.9854 C.3     
 176 C176           8.2363    -1.9163   -16.5713 C.3     
 177 C177           6.8221    -2.4592   -16.3564 C.3     
 178 C178           6.7049    -3.0316   -14.9424 C.3     
 179 C179           5.2907    -3.5744   -14.7275 C.3     
 180 H180           1.4761    -9.3375    -8.8373 H       
 181 H181           2.6901    -8.3481    -8.2777 H       
 182 H182           1.1242    -6.6928    -7.5825 H       
 183 H183           0.7510    -7.6672   -10.4496 H       
 184 H184           0.2312    -6.0746    -9.8480 H       
 185 H185           2.5695    -5.5529    -9.2086 H       
 186 H186           3.0893    -7.1454    -9.8102 H       
 187 H187           2.2824    -6.5519   -12.0785 H       
 188 H188           1.7626    -4.9594   -11.4769 H       
 189 H189           4.1009    -4.4376   -10.8375 H       
 190 H190           4.6207    -6.0301   -11.4391 H       
 191 H191           3.2473    -4.6988   -13.5170 H       
 192 H192          -1.2667    -6.0210    -7.6513 H       
 193 H193          -3.1584    -8.1886    -8.1517 H       
 194 H194          -2.7122    -7.0269    -5.3660 H       
 195 H195          -4.1010    -8.0401    -5.8275 H       
 196 H196          -2.5539    -9.8696    -6.4662 H       
 197 H197          -1.1652    -8.8565    -6.0046 H       
 198 H198          -2.0234    -8.7385    -3.6812 H       
 199 H199          -3.4122    -9.7517    -4.1428 H       
 200 H200          -1.8651   -11.5813    -4.7814 H       
 201 H201          -0.4764   -10.5681    -4.3199 H       
 202 H202          -1.1237   -12.0543    -2.5420 H       
 203 H203          -1.4208   -10.4839    -2.0821 H       
 204 H204          -5.5180    -7.1995    -7.3050 H       
 205 H205          -5.5588    -4.2890    -7.5394 H       
 206 H206          -6.9745    -4.2609    -9.5365 H       
 207 H207          -5.4575    -5.1138    -9.9104 H       
 208 H208          -7.3721    -6.3424   -10.6388 H       
 209 H209          -8.1811    -3.6866    -7.6925 H       
 210 H210          -9.7829    -5.6983    -6.3088 H       
 211 H211          -8.9913    -3.0608    -4.9951 H       
 212 H212         -10.2729    -4.1422    -4.3982 H       
 213 H213          -9.5101    -6.3467    -3.1594 H       
 214 H214          -7.2635    -7.2273    -2.3438 H       
 215 H215          -4.4805    -6.6040    -2.6975 H       
 216 H216          -3.0287    -5.0208    -3.8845 H       
 217 H217          -3.9941    -3.2766    -5.3226 H       
 218 H218          -6.4166    -3.0924    -5.5908 H       
 219 H219         -12.0580    -4.3975    -5.6810 H       
 220 H220         -12.5838    -2.2578    -7.5973 H       
 221 H221         -14.3443    -3.4728    -8.7880 H       
 222 H222         -12.8160    -4.3738    -8.9317 H       
 223 H223         -14.6260    -5.7897    -8.2799 H       
 224 H224         -15.2471    -1.8798    -7.4341 H       
 225 H225         -16.2295    -2.6022    -4.7806 H       
 226 H226         -15.6095     0.2822    -5.5583 H       
 227 H227         -16.5736    -0.1972    -4.1408 H       
 228 H228         -14.6465    -1.4902    -3.2674 H       
 229 H229         -13.6824    -1.0109    -4.6848 H       
 230 H230         -13.9398     1.3732    -4.0536 H       
 231 H231         -14.9038     0.8939    -2.6362 H       
 232 H232         -12.4371    -0.4783    -2.5401 H       
 233 H233         -12.5291     3.3282    -1.3154 H       
 234 H234         -10.7410     0.3696    -1.0997 H       
 235 H235         -10.7923     1.9707    -0.5931 H       
 236 H236         -18.5121    -1.1922    -4.5272 H       
 237 H237         -19.7144    -0.6994    -7.1424 H       
 238 H238         -20.6237    -2.9841    -5.3363 H       
 239 H239         -21.5455    -2.3693    -6.7294 H       
 240 H240         -20.6880    -3.0438    -9.1347 H       
 241 H241         -18.9111    -4.6567    -9.9885 H       
 242 H242         -16.7120    -6.1612    -8.9119 H       
 243 H243         -15.5657    -6.5828    -6.7832 H       
 244 H244         -16.3306    -5.4958    -4.7154 H       
 245 H245         -18.2467    -3.9787    -4.7487 H       
 246 H246         -22.3227    -0.3017    -6.5935 H       
 247 H247         -22.6560     0.7746    -3.8994 H       
 248 H248         -23.1069     3.0628    -4.6438 H       
 249 H249         -20.4709     2.0115    -5.7678 H       
 250 H250         -20.8203     3.7072    -5.3546 H       
 251 H251         -20.7670     2.4720    -4.0741 H       
 252 H252         -22.4262     2.1135    -7.3018 H       
 253 H253         -25.0382     1.9832    -3.9392 H       
 254 H254         -26.7255     0.9162    -6.0812 H       
 255 H255         -26.6223    -0.8831    -4.3142 H       
 256 H256         -27.3075     0.2813    -3.1553 H       
 257 H257         -29.2712     0.5828    -4.6932 H       
 258 H258         -29.5824    -1.0119    -6.5394 H       
 259 H259         -28.0720    -0.1008    -6.7782 H       
 260 H260         -28.0160    -1.7734    -6.1720 H       
 261 H261         -29.3602    -1.0207    -2.8039 H       
 262 H262         -30.3013    -1.6164    -4.1923 H       
 263 H263         -28.6906    -2.2935    -3.8527 H       
 264 H264         -28.8710     2.0642    -6.1241 H       
 265 H265         -29.3445     4.0140    -4.0024 H       
 266 H266         -28.9087     4.8783    -6.8973 H       
 267 H267         -29.4598     5.9305    -5.5716 H       
 268 H268         -27.8222     5.2340    -5.5330 H       
 269 H269         -31.5081     5.3806    -4.8475 H       
 270 H270         -33.1761     3.7092    -6.5656 H       
 271 H271         -33.7710     4.0986    -3.5986 H       
 272 H272         -34.9285     3.4485    -4.7843 H       
 273 H273         -32.1800     2.2536    -4.2124 H       
 274 H274         -34.9629     1.3524    -3.3404 H       
 275 H275         -33.4486     0.4585    -3.0648 H       
 276 H276         -33.7101     2.0314    -2.2738 H       
 277 H277         -33.0522     1.8440    -6.4972 H       
 278 H278         -33.0644     0.3490    -5.5312 H       
 279 H279         -34.5787     1.2429    -5.8067 H       
 280 H280         -35.6427     4.8263    -6.3075 H       
 281 H281         -35.0115     7.6434    -6.9039 H       
 282 H282         -37.4719     5.9296    -7.4671 H       
 283 H283         -37.3076     7.6413    -7.9269 H       
 284 H284         -36.1762     5.7053   -10.8630 H       
 285 H285         -37.1777     9.1250    -6.2913 H       
 286 H286         -38.2940     8.3041    -3.7208 H       
 287 H287         -36.4181    10.6949    -3.9929 H       
 288 H288         -37.4459    10.3733    -2.5757 H       
 289 H289         -34.5206     9.2681    -4.5012 H       
 290 H290         -32.8134     7.7328    -3.6116 H       
 291 H291         -33.1909     6.5802    -1.4686 H       
 292 H292         -35.2751     6.9636    -0.2148 H       
 293 H293         -36.9787     8.5054    -1.1003 H       
 294 H294         -39.6364    10.4809    -2.8710 H       
 295 H295         -40.5537    12.0760    -5.1386 H       
 296 H296         -42.3683    10.0829    -3.7092 H       
 297 H297         -42.9395    11.3619    -4.8074 H       
 298 H298         -41.5608    10.4088    -6.6347 H       
 299 H299         -40.9896     9.1297    -5.5366 H       
 300 H300         -43.3232     8.3482    -5.2330 H       
 301 H301         -43.8944     9.6273    -6.3311 H       
 302 H302         -42.5156     8.6742    -8.1585 H       
 303 H303         -41.9444     7.3951    -7.0603 H       
 304 H304         -43.8038     6.6561    -8.3964 H       
 305 H305         -44.2679     6.7311    -6.8012 H       
 306 H306         -42.6490    13.4568    -4.1559 H       
 307 H307         -42.3464    13.8822    -1.2828 H       
 308 H308         -41.5795    16.0071    -3.3335 H       
 309 H309         -41.8100    16.3166    -1.5958 H       
 310 H310         -40.0309    14.6723    -1.0669 H       
 311 H311         -39.8004    14.3628    -2.8046 H       
 312 H312         -39.1992    16.7437    -3.1489 H       
 313 H313         -39.4297    17.0532    -1.4112 H       
 314 H314         -37.5885    14.9312    -1.7007 H       
 315 H315         -34.7893    17.0215    -1.7016 H       
 316 H316         -37.9026    18.3899    -2.3584 H       
 317 H317         -36.2664    18.7383    -2.2034 H       
 318 H318         -43.8537    16.0603    -0.7865 H       
 319 H319         -46.0375    16.2631    -2.7145 H       
 320 H320         -46.4207    15.0502     0.0587 H       
 321 H321         -47.7466    15.5770    -1.0056 H       
 322 H322         -46.9751    13.9933    -2.7506 H       
 323 H323         -45.6492    13.4665    -1.6863 H       
 324 H324         -47.3028    12.7134     0.0009 H       
 325 H325         -48.6287    13.2402    -1.0634 H       
 326 H326         -47.8573    11.6565    -2.8084 H       
 327 H327         -46.5314    11.1296    -1.7441 H       
 328 H328         -49.3946    10.9207    -1.0758 H       
 329 H329         -48.4332     9.6642    -1.5886 H       
 330 H330         -47.8945    17.7421    -1.4391 H       
 331 H331         -46.6359    19.5320     0.4948 H       
 332 H332         -47.5046    20.5152    -2.2612 H       
 333 H333         -46.9732    21.5464    -0.9113 H       
 334 H334         -45.8268    20.4191    -1.6748 H       
 335 H335         -48.4252    21.5246     0.7956 H       
 336 H336         -50.9049    20.0822     1.3417 H       
 337 H337         -50.0363    22.9565     1.8828 H       
 338 H338         -51.5838    22.2525     2.4099 H       
 339 H339         -50.3587    20.5220     3.6955 H       
 340 H340         -48.8111    21.2260     3.1684 H       
 341 H341         -49.4109    23.3667     4.2667 H       
 342 H342         -50.9584    22.6627     4.7938 H       
 343 H343         -48.8677    20.9906     5.6934 H       
 344 H344         -49.6647    24.3069     7.7825 H       
 345 H345         -48.1810    21.1825     7.9655 H       
 346 H346         -48.5226    22.5814     8.8310 H       
 347 H347         -53.0325    22.1646    -0.8001 H       
 348 H348          15.8083     3.4467   -26.8580 H       
 349 H349          15.2885     5.0392   -26.2564 H       
 350 H350          17.0180     4.6192   -26.2831 H       
 351 H351          16.6152     2.8532   -24.5896 H       
 352 H352          16.0954     4.4457   -23.9880 H       
 353 H353          13.7571     3.9240   -24.6274 H       
 354 H354          14.2769     2.3315   -25.2290 H       
 355 H355          15.0838     1.7379   -22.9607 H       
 356 H356          14.5640     3.3305   -22.3591 H       
 357 H357          12.2257     2.8087   -22.9985 H       
 358 H358          12.7455     1.2162   -23.6001 H       
 359 H359          13.5524     0.6227   -21.3318 H       
 360 H360          13.0326     2.2152   -20.7302 H       
 361 H361          10.6943     1.6934   -21.3696 H       
 362 H362          11.2141     0.1009   -21.9712 H       
 363 H363          12.0210    -0.4926   -19.7029 H       
 364 H364          11.5012     1.0999   -19.1012 H       
 365 H365           9.1629     0.5782   -19.7406 H       
 366 H366           9.6828    -1.0143   -20.3422 H       
 367 H367          10.4897    -1.6079   -18.0739 H       
 368 H368           9.9698    -0.0153   -17.4723 H       
 369 H369           7.6315    -0.5371   -18.1117 H       
 370 H370           8.1514    -2.1296   -18.7133 H       
 371 H371           8.9583    -2.7231   -16.4450 H       
 372 H372           8.4384    -1.1306   -15.8434 H       
 373 H373           6.1001    -1.6524   -16.4828 H       
 374 H374           6.6200    -3.2449   -17.0844 H       
 375 H375           7.4269    -3.8384   -14.8161 H       
 376 H376           6.9070    -2.2459   -14.2144 H       
 377 H377           5.0886    -4.3601   -15.4554 H       
 378 H378           4.5687    -2.7676   -14.8538 H       
@<TRIPOS>BOND
   1    1    2 2
   2    1    4 1
   3    1   12 am
   4    3    4 1
   5    3  180 1
   6    3  181 1
   7    4    5 1
   8    4  182 1
   9    5    6 1
  10    5  183 1
  11    5  184 1
  12    6    7 1
  13    6  185 1
  14    6  186 1
  15    7    8 1
  16    7  187 1
  17    7  188 1
  18    8    9 1
  19    8  189 1
  20    8  190 1
  21    9  163 am
  22    9  191 1
  23   10   11 2
  24   10   13 1
  25   10   21 am
  26   12   13 1
  27   12  192 1
  28   13   14 1
  29   13  193 1
  30   14   15 1
  31   14  194 1
  32   14  195 1
  33   15   16 1
  34   15  196 1
  35   15  197 1
  36   16   17 1
  37   16  198 1
  38   16  199 1
  39   17   18 1
  40   17  200 1
  41   17  201 1
  42   18  202 1
  43   18  203 1
  44   19   20 2
  45   19   22 1
  46   19   27 am
  47   21   22 1
  48   21  204 1
  49   22   23 1
  50   22  205 1
  51   23   24 1
  52   23  206 1
  53   23  207 1
  54   24  208 1
  55   25   26 2
  56   25   28 1
  57   25   41 am
  58   27   28 1
  59   27  209 1
  60   28   29 1
  61   28  210 1
  62   29   30 1
  63   29  211 1
  64   29  212 1
  65   30   31 2
  66   30   38 1
  67   31   32 1
  68   31  213 1
  69   32   33 1
  70   32  214 1
  71   33   34 ar
  72   33   38 ar
  73   34   35 ar
  74   34  215 1
  75   35   36 ar
  76   35  216 1
  77   36   37 ar
  78   36  217 1
  79   37   38 ar
  80   37  218 1
  81   39   40 2
  82   39   42 1
  83   39   47 am
  84   41   42 1
  85   41  219 1
  86   42   43 1
  87   42  220 1
  88   43   44 1
  89   43  221 1
  90   43  222 1
  91   44  223 1
  92   45   46 2
  93   45   48 1
  94   45   58 am
  95   47   48 1
  96   47  224 1
  97   48   49 1
  98   48  225 1
  99   49   50 1
 100   49  226 1
 101   49  227 1
 102   50   51 1
 103   50  228 1
 104   50  229 1
 105   51   52 1
 106   51  230 1
 107   51  231 1
 108   52   53 1
 109   52  232 1
 110   53   54 2
 111   53   55 1
 112   54  233 1
 113   55  234 1
 114   55  235 1
 115   56   57 2
 116   56   59 1
 117   56   72 am
 118   58   59 1
 119   58  236 1
 120   59   60 1
 121   59  237 1
 122   60   61 1
 123   60  238 1
 124   60  239 1
 125   61   62 2
 126   61   69 1
 127   62   63 1
 128   62  240 1
 129   63   64 1
 130   63  241 1
 131   64   65 ar
 132   64   69 ar
 133   65   66 ar
 134   65  242 1
 135   66   67 ar
 136   66  243 1
 137   67   68 ar
 138   67  244 1
 139   68   69 ar
 140   68  245 1
 141   70   71 2
 142   70   73 1
 143   70   79 am
 144   72   73 1
 145   72  246 1
 146   73   74 1
 147   73  247 1
 148   74   75 1
 149   74   76 1
 150   74  248 1
 151   75  249 1
 152   75  250 1
 153   75  251 1
 154   76  252 1
 155   77   78 2
 156   77   80 1
 157   77   87 am
 158   79   80 1
 159   79  253 1
 160   80   81 1
 161   80  254 1
 162   81   82 1
 163   81  255 1
 164   81  256 1
 165   82   83 1
 166   82   84 1
 167   82  257 1
 168   83  258 1
 169   83  259 1
 170   83  260 1
 171   84  261 1
 172   84  262 1
 173   84  263 1
 174   85   86 2
 175   85   88 1
 176   85   92 am
 177   87   88 1
 178   87  264 1
 179   88   89 1
 180   88  265 1
 181   89  266 1
 182   89  267 1
 183   89  268 1
 184   90   91 2
 185   90   93 1
 186   90  100 am
 187   92   93 1
 188   92  269 1
 189   93   94 1
 190   93  270 1
 191   94   95 1
 192   94  271 1
 193   94  272 1
 194   95   96 1
 195   95   97 1
 196   95  273 1
 197   96  274 1
 198   96  275 1
 199   96  276 1
 200   97  277 1
 201   97  278 1
 202   97  279 1
 203   98   99 2
 204   98  101 1
 205   98  108 am
 206  100  101 1
 207  100  280 1
 208  101  102 1
 209  101  281 1
 210  102  103 1
 211  102  282 1
 212  102  283 1
 213  103  104 2
 214  103  105 1
 215  105  284 1
 216  106  107 2
 217  106  109 1
 218  106  119 am
 219  108  109 1
 220  108  285 1
 221  109  110 1
 222  109  286 1
 223  110  111 1
 224  110  287 1
 225  110  288 1
 226  111  112 ar
 227  111  116 ar
 228  112  113 ar
 229  112  289 1
 230  113  114 ar
 231  113  290 1
 232  114  115 ar
 233  114  291 1
 234  115  116 ar
 235  115  292 1
 236  116  293 1
 237  117  118 2
 238  117  120 1
 239  117  128 am
 240  119  120 1
 241  119  294 1
 242  120  121 1
 243  120  295 1
 244  121  122 1
 245  121  296 1
 246  121  297 1
 247  122  123 1
 248  122  298 1
 249  122  299 1
 250  123  124 1
 251  123  300 1
 252  123  301 1
 253  124  125 1
 254  124  302 1
 255  124  303 1
 256  125  304 1
 257  125  305 1
 258  126  127 2
 259  126  129 1
 260  126  139 am
 261  128  129 1
 262  128  306 1
 263  129  130 1
 264  129  307 1
 265  130  131 1
 266  130  308 1
 267  130  309 1
 268  131  132 1
 269  131  310 1
 270  131  311 1
 271  132  133 1
 272  132  312 1
 273  132  313 1
 274  133  134 1
 275  133  314 1
 276  134  135 2
 277  134  136 1
 278  135  315 1
 279  136  316 1
 280  136  317 1
 281  137  138 2
 282  137  140 1
 283  137  148 am
 284  139  140 1
 285  139  318 1
 286  140  141 1
 287  140  319 1
 288  141  142 1
 289  141  320 1
 290  141  321 1
 291  142  143 1
 292  142  322 1
 293  142  323 1
 294  143  144 1
 295  143  324 1
 296  143  325 1
 297  144  145 1
 298  144  326 1
 299  144  327 1
 300  145  328 1
 301  145  329 1
 302  146  147 2
 303  146  149 1
 304  146  153 am
 305  148  149 1
 306  148  330 1
 307  149  150 1
 308  149  331 1
 309  150  332 1
 310  150  333 1
 311  150  334 1
 312  151  152 2
 313  151  154 1
 314  151  162 1
 315  153  154 1
 316  153  335 1
 317  154  155 1
 318  154  336 1
 319  155  156 1
 320  155  337 1
 321  155  338 1
 322  156  157 1
 323  156  339 1
 324  156  340 1
 325  157  158 1
 326  157  341 1
 327  157  342 1
 328  158  159 1
 329  158  343 1
 330  159  160 2
 331  159  161 1
 332  160  344 1
 333  161  345 1
 334  161  346 1
 335  162  347 1
 336  163  164 2
 337  163  179 1
 338  165  166 1
 339  165  348 1
 340  165  349 1
 341  165  350 1
 342  166  167 1
 343  166  351 1
 344  166  352 1
 345  167  168 1
 346  167  353 1
 347  167  354 1
 348  168  169 1
 349  168  355 1
 350  168  356 1
 351  169  170 1
 352  169  357 1
 353  169  358 1
 354  170  171 1
 355  170  359 1
 356  170  360 1
 357  171  172 1
 358  171  361 1
 359  171  362 1
 360  172  173 1
 361  172  363 1
 362  172  364 1
 363  173  174 1
 364  173  365 1
 365  173  366 1
 366  174  175 1
 367  174  367 1
 368  174  368 1
 369  175  176 1
 370  175  369 1
 371  175  370 1
 372  176  177 1
 373  176  371 1
 374  176  372 1
 375  177  178 1
 376  177  373 1
 377  177  374 1
 378  178  179 1
 379  178  375 1
 380  178  376 1
 381  179  377 1
 382  179  378 1

#	End of record

