#	Name: ASD01910470
#	Creating user name:	WinNT
#	Creation time:	15. 06. 2019 19:55

#	Modifying user name:	WinNT
#	Modification time:	15. 06. 2019 19:55

#	Program:	/corina/corina34_cracker 3.40 0067  02.08.2006

@<TRIPOS>MOLECULE
ASD01910470
  47   50    0    0    0
SMALL
NO_CHARGES


@<TRIPOS>ATOM
   1 C1             1.7857     0.4002    -0.5095 C.ar    
   2 C2             1.5892    -0.9950    -0.0441 C.2     
   3 N3             0.5534    -1.8067    -0.3553 N.2     
   4 C4             0.7895    -2.9334     0.2693 C.2     
   5 O5             1.9404    -2.7825     0.9321 O.3     
   6 N6             2.3882    -1.6719     0.7394 N.2     
   7 C7            -0.0744    -4.1680     0.2456 C.3     
   8 C8             0.7273    -5.3417    -0.3217 C.3     
   9 C9            -0.1591    -6.5880    -0.3768 C.3     
  10 C10           -0.6109    -6.9515     1.0412 C.3     
  11 N11           -1.2557    -5.7786     1.6473 N.am    
  12 C12           -0.5252    -4.5041     1.6706 C.3     
  13 C13           -2.4937    -5.8702     2.1720 C.2     
  14 C14           -3.2626    -7.1201     2.0327 C.2     
  15 O15           -2.9765    -4.9217     2.7603 O.2     
  16 C16            2.9081     1.1203    -0.1048 C.ar    
  17 C17            3.0872     2.4170    -0.5403 C.ar    
  18 C18            2.1527     3.0038    -1.3784 C.ar    
  19 C19            1.0352     2.2914    -1.7832 C.ar    
  20 C20            0.8513     0.9922    -1.3571 C.ar    
  21 F21            2.3314     4.2742    -1.8018 F       
  22 C22           -4.0256    -7.7656     2.9750 C.2     
  23 O23           -4.5215    -8.8513     2.3772 O.3     
  24 N24           -4.1764    -8.9585     1.2260 N.2     
  25 C25           -3.4073    -7.9805     0.8484 C.2     
  26 C26           -4.2570    -7.3339     4.4002 C.3     
  27 O27           -5.4089    -6.4905     4.4614 O.3     
  28 C28           -5.7179    -6.0232     5.7761 C.3     
  29 H29           -0.9486    -3.9883    -0.3802 H       
  30 H30            1.0702    -5.0952    -1.3266 H       
  31 H31            1.5882    -5.5363     0.3180 H       
  32 H32           -1.0328    -6.3859    -0.9964 H       
  33 H33            0.4054    -7.4175    -0.8026 H       
  34 H34           -1.3209    -7.7773     0.9980 H       
  35 H35            0.2544    -7.2416     1.6372 H       
  36 H36            0.3470    -4.5946     2.3180 H       
  37 H37           -1.1787    -3.7151     2.0427 H       
  38 H38            3.6366     0.6639     0.5490 H       
  39 H39            3.9567     2.9758    -0.2272 H       
  40 H40            0.3091     2.7526    -2.4362 H       
  41 H41           -0.0199     0.4377    -1.6730 H       
  42 H42           -2.9628    -7.8353    -0.1251 H       
  43 H43           -4.4166    -8.2129     5.0247 H       
  44 H44           -3.3860    -6.7861     4.7598 H       
  45 H45           -6.6043    -5.3901     5.7376 H       
  46 H46           -5.9079    -6.8750     6.4291 H       
  47 H47           -4.8772    -5.4482     6.1642 H       
@<TRIPOS>BOND
   1    1    2 1
   2    1   16 ar
   3    1   20 ar
   4    2    3 1
   5    2    6 2
   6    3    4 2
   7    4    5 1
   8    4    7 1
   9    5    6 1
  10    7    8 1
  11    7   12 1
  12    7   29 1
  13    8    9 1
  14    8   30 1
  15    8   31 1
  16    9   10 1
  17    9   32 1
  18    9   33 1
  19   10   11 1
  20   10   34 1
  21   10   35 1
  22   11   12 1
  23   11   13 am
  24   12   36 1
  25   12   37 1
  26   13   14 1
  27   13   15 2
  28   14   22 2
  29   14   25 1
  30   16   17 ar
  31   16   38 1
  32   17   18 ar
  33   17   39 1
  34   18   19 ar
  35   18   21 1
  36   19   20 ar
  37   19   40 1
  38   20   41 1
  39   22   23 1
  40   22   26 1
  41   23   24 1
  42   24   25 2
  43   25   42 1
  44   26   27 1
  45   26   43 1
  46   26   44 1
  47   27   28 1
  48   28   45 1
  49   28   46 1
  50   28   47 1

#	End of record

