#	Name: ASD05430354
#	Creating user name:	WinNT
#	Creation time:	15. 06. 2019 21:00

#	Modifying user name:	WinNT
#	Modification time:	15. 06. 2019 21:00

#	Program:	/corina/corina34_cracker 3.40 0067  02.08.2006

@<TRIPOS>MOLECULE
ASD05430354
  59   63    0    0    0
SMALL
NO_CHARGES


@<TRIPOS>ATOM
   1 C1             0.0057     2.1187    -0.1428 C.ar    
   2 C2             0.1410     0.7310    -0.1755 C.ar    
   3 C3            -0.9861    -0.0807    -0.1617 C.ar    
   4 C4            -2.2432     0.4811    -0.1151 C.ar    
   5 C5            -2.3868     1.8723    -0.0816 C.ar    
   6 C6            -1.2518     2.6893    -0.0903 C.ar    
   7 C7            -4.8214     1.6851    -0.0194 C.2     
   8 C8            -3.7285     2.4743    -0.0324 C.2     
   9 C9            -7.3614     1.3955     0.0436 C.3     
  10 C10           -6.1550     2.2834     0.0296 C.2     
  11 C11           -8.2419     2.4642     2.1049 C.ar    
  12 C12           -8.1531     1.4281     3.0159 C.ar    
  13 C13           -8.0553     3.7694     2.5206 C.ar    
  14 C14           -7.7793     4.0399     3.8475 C.ar    
  15 C15           -7.6902     3.0030     4.7607 C.ar    
  16 C16           -7.8777     1.6962     4.3434 C.ar    
  17 F17           -7.4200     3.2662     6.0580 F       
  18 O18            1.1112     2.9099    -0.1569 O.3     
  19 C19            0.8983     4.3226    -0.1215 C.3     
  20 C20            1.8908    -0.8446     0.5882 C.2     
  21 N21            1.4173     0.1541    -0.2229 N.pl3   
  22 C22            3.1559    -1.0950     0.2005 C.2     
  23 N23            3.4518    -0.2747    -0.8186 N.2     
  24 C24            2.4185     0.4783    -1.0816 C.2     
  25 C25            4.0798    -2.1194     0.8072 C.3     
  26 C26           -8.5361     2.1701     0.6565 C.3     
  27 C27           -8.6782     3.4831    -0.1102 C.3     
  28 O28           -7.4990     4.2599     0.1279 O.3     
  29 N29           -6.2741     3.5696     0.0606 N.2     
  30 C30           -9.7868     1.3021     0.5605 C.3     
  31 C31           -7.1509     0.1218     0.8567 C.3     
  32 C32           -8.4501    -0.6939     0.8110 C.3     
  33 O33           -9.5463     0.0879     1.2830 O.3     
  34 H34           -0.8767    -1.1548    -0.1878 H       
  35 H35           -3.1178    -0.1525    -0.1048 H       
  36 H36           -1.3580     3.7637    -0.0642 H       
  37 H37           -4.7121     0.6109    -0.0452 H       
  38 H38           -3.8378     3.5485    -0.0066 H       
  39 H39           -7.6119     1.1146    -0.9794 H       
  40 H40           -8.2994     0.4089     2.6901 H       
  41 H41           -8.1248     4.5780     1.8080 H       
  42 H42           -7.6328     5.0595     4.1718 H       
  43 H43           -7.8088     0.8867     5.0549 H       
  44 H44            0.3609     4.5863     0.7894 H       
  45 H45            1.8600     4.8354    -0.1375 H       
  46 H46            0.3117     4.6234    -0.9895 H       
  47 H47            1.3539    -1.3334     1.3876 H       
  48 H48            2.3680     1.2323    -1.8532 H       
  49 H49            3.9592    -3.0701     0.2880 H       
  50 H50            5.1113    -1.7808     0.7106 H       
  51 H51            3.8369    -2.2482     1.8620 H       
  52 H52           -8.7766     3.2790    -1.1764 H       
  53 H53           -9.5549     4.0248     0.2450 H       
  54 H54          -10.6345     1.8289     0.9986 H       
  55 H55           -9.9959     1.0729    -0.4845 H       
  56 H56           -6.3360    -0.4597     0.4254 H       
  57 H57           -6.9141     0.3791     1.8890 H       
  58 H58           -8.6446    -1.0046    -0.2155 H       
  59 H59           -8.3423    -1.5789     1.4380 H       
@<TRIPOS>BOND
   1    1    2 ar
   2    1   18 1
   3    1    6 ar
   4    2    3 ar
   5    2   21 1
   6    3    4 ar
   7    3   34 1
   8    4    5 ar
   9    4   35 1
  10    5    6 ar
  11    5    8 1
  12    6   36 1
  13    7    8 2
  14    7   10 1
  15    7   37 1
  16    8   38 1
  17    9   10 1
  18    9   26 1
  19    9   31 1
  20    9   39 1
  21   10   29 2
  22   11   12 ar
  23   11   13 ar
  24   11   26 1
  25   12   16 ar
  26   12   40 1
  27   13   14 ar
  28   13   41 1
  29   14   15 ar
  30   14   42 1
  31   15   16 ar
  32   15   17 1
  33   16   43 1
  34   18   19 1
  35   19   44 1
  36   19   45 1
  37   19   46 1
  38   20   21 1
  39   20   22 2
  40   20   47 1
  41   21   24 1
  42   22   23 1
  43   22   25 1
  44   23   24 2
  45   24   48 1
  46   25   49 1
  47   25   50 1
  48   25   51 1
  49   26   27 1
  50   26   30 1
  51   27   28 1
  52   27   52 1
  53   27   53 1
  54   28   29 1
  55   30   33 1
  56   30   54 1
  57   30   55 1
  58   31   32 1
  59   31   56 1
  60   31   57 1
  61   32   33 1
  62   32   58 1
  63   32   59 1

#	End of record

