#	Name: ASD07930424
#	Creating user name:	WinNT
#	Creation time:	15. 06. 2019 21:12

#	Modifying user name:	WinNT
#	Modification time:	15. 06. 2019 21:12

#	Program:	/corina/corina34_cracker 3.40 0067  02.08.2006

@<TRIPOS>MOLECULE
ASD07930424
  44   46    0    0    0
SMALL
NO_CHARGES


@<TRIPOS>ATOM
   1 N1            -0.0202     1.3052    -0.0069 N.2     
   2 N2            -1.1711    -0.7286     0.0032 N.pl3   
   3 C3            -1.3933    -1.7678    -1.0076 C.3     
   4 C4            -0.2700    -2.8100    -0.9173 C.3     
   5 S5             1.3233    -1.9506    -1.1099 S.o2    
   6 N6             1.1982    -0.6969    -0.0193 N.am    
   7 C7            -0.0006     0.0020    -0.0075 C.2     
   8 C8             2.2991    -0.3500     0.8827 C.3     
   9 C9            -1.3918    -1.1345    -2.4004 C.3     
  10 C10           -2.7209    -2.4361    -0.7590 C.ar    
  11 C11           -2.9224    -3.7651    -1.1052 C.ar    
  12 C12           -4.1512    -4.3478    -0.8640 C.ar    
  13 N13           -5.1302    -3.6579    -0.3114 N.ar    
  14 C14           -4.9771    -2.3887     0.0327 C.ar    
  15 C15           -3.7651    -1.7402    -0.1752 C.ar    
  16 O16            2.3899    -2.7490    -0.6159 O.2     
  17 O17            1.4032    -1.3146    -2.3781 O.2     
  18 N18           -6.0386    -1.6982     0.6134 N.am    
  19 C19           -7.2461    -2.2867     0.7228 C.2     
  20 O20           -7.4349    -3.3822     0.2315 O.2     
  21 C21           -8.3422    -1.5990     1.4412 C.ar    
  22 N22           -8.1293    -0.4025     1.9756 N.ar    
  23 C23           -9.0749     0.2429     2.6217 C.ar    
  24 C24          -10.3407    -0.3090     2.7698 C.ar    
  25 C25          -10.6051    -1.5593     2.2255 C.ar    
  26 C26           -9.5903    -2.2112     1.5455 C.ar    
  27 F27          -11.3046     0.3629     3.4366 F       
  28 H28            0.8124     1.8029    -0.0149 H       
  29 H29           -1.8476    -0.5525     0.6756 H       
  30 H30           -0.3054    -3.3053     0.0530 H       
  31 H31           -0.3881    -3.5473    -1.7114 H       
  32 H32            2.9443     0.3856     0.4025 H       
  33 H33            1.8953     0.0679     1.8049 H       
  34 H34            2.8769    -1.2455     1.1120 H       
  35 H35           -0.4304    -0.6533    -2.5797 H       
  36 H36           -1.5570    -1.9073    -3.1511 H       
  37 H37           -2.1871    -0.3917    -2.4626 H       
  38 H38           -2.1267    -4.3374    -1.5588 H       
  39 H39           -4.3126    -5.3816    -1.1317 H       
  40 H40           -3.6428    -0.7049     0.1068 H       
  41 H41           -5.9086    -0.7937     0.9391 H       
  42 H42           -8.8646     1.2148     3.0431 H       
  43 H43          -11.5810    -2.0107     2.3267 H       
  44 H44           -9.7607    -3.1845     1.1097 H       
@<TRIPOS>BOND
   1    1    7 2
   2    1   28 1
   3    2    3 1
   4    2    7 1
   5    2   29 1
   6    3    4 1
   7    3    9 1
   8    3   10 1
   9    4    5 1
  10    4   30 1
  11    4   31 1
  12    5    6 am
  13    5   16 2
  14    5   17 2
  15    6    7 1
  16    6    8 1
  17    8   32 1
  18    8   33 1
  19    8   34 1
  20    9   35 1
  21    9   36 1
  22    9   37 1
  23   10   11 ar
  24   10   15 ar
  25   11   12 ar
  26   11   38 1
  27   12   13 ar
  28   12   39 1
  29   13   14 ar
  30   14   15 ar
  31   14   18 1
  32   15   40 1
  33   18   19 am
  34   18   41 1
  35   19   20 2
  36   19   21 1
  37   21   22 ar
  38   21   26 ar
  39   22   23 ar
  40   23   24 ar
  41   23   42 1
  42   24   25 ar
  43   24   27 1
  44   25   26 ar
  45   25   43 1
  46   26   44 1

#	End of record

