#	Name: ASD08070684
#	Creating user name:	WinNT
#	Creation time:	15. 06. 2019 21:15

#	Modifying user name:	WinNT
#	Modification time:	15. 06. 2019 21:15

#	Program:	/corina/corina34_cracker 3.40 0067  02.08.2006

@<TRIPOS>MOLECULE
ASD08070684
  40   40    0    0    0
SMALL
NO_CHARGES


@<TRIPOS>ATOM
   1 C1            -0.0179     1.4719     0.0101 C.2     
   2 C2             0.0021    -0.0041     0.0020 C.ar    
   3 C3             1.2203    -0.6995    -0.0133 C.ar    
   4 C4             1.1875    -2.0786    -0.0205 C.ar    
   5 C5            -0.0424    -2.7299    -0.0123 C.ar    
   6 N6            -1.1755    -2.0450     0.0022 N.ar    
   7 C7            -1.1903    -0.7285     0.0153 C.ar    
   8 O8             1.0266     2.0941     0.0035 O.2     
   9 N9            -1.1942     2.1299     0.0193 N.am    
  10 O10           -0.0809    -4.0843    -0.0197 O.3     
  11 C11           -1.3719    -4.6967    -0.0107 C.3     
  12 C12           -3.9170     4.1881    -2.6499 C.3     
  13 C13           -2.6000     3.6926    -2.0492 C.3     
  14 C14           -2.5311     4.0902    -0.5734 C.3     
  15 C15           -1.2140     3.5947     0.0273 C.3     
  16 C16           -1.0884     4.0986     1.4665 C.3     
  17 C17            0.2816     3.7093     2.0254 C.3     
  18 C18            0.4072     4.2131     3.4646 C.3     
  19 H19            2.1607    -0.1683    -0.0198 H       
  20 H20            2.1060    -2.6466    -0.0327 H       
  21 H21           -2.1344    -0.2043     0.0317 H       
  22 H22           -2.0275     1.6335     0.0205 H       
  23 H23           -1.2599    -5.7809    -0.0180 H       
  24 H24           -1.9117    -4.3933     0.8863 H       
  25 H25           -1.9290    -4.3831    -0.8935 H       
  26 H26           -3.9661     3.9048    -3.7013 H       
  27 H27           -4.7528     3.7391    -2.1132 H       
  28 H28           -3.9704     5.2733    -2.5631 H       
  29 H29           -2.5466     2.6074    -2.1360 H       
  30 H30           -1.7642     4.1416    -2.5858 H       
  31 H31           -2.5844     5.1754    -0.4866 H       
  32 H32           -3.3668     3.6413    -0.0367 H       
  33 H33           -0.3800     3.9727    -0.5640 H       
  34 H34           -1.1922     5.1835     1.4820 H       
  35 H35           -1.8712     3.6499     2.0782 H       
  36 H36            0.3854     2.6243     2.0099 H       
  37 H37            1.0644     4.1579     1.4138 H       
  38 H38            0.3034     5.2981     3.4801 H       
  39 H39           -0.3755     3.7645     4.0763 H       
  40 H40            1.3832     3.9358     3.8628 H       
@<TRIPOS>BOND
   1    1    2 1
   2    1    8 2
   3    1    9 am
   4    2    3 ar
   5    2    7 ar
   6    3    4 ar
   7    3   19 1
   8    4    5 ar
   9    4   20 1
  10    5    6 ar
  11    5   10 1
  12    6    7 ar
  13    7   21 1
  14    9   15 1
  15    9   22 1
  16   10   11 1
  17   11   23 1
  18   11   24 1
  19   11   25 1
  20   12   13 1
  21   12   26 1
  22   12   27 1
  23   12   28 1
  24   13   14 1
  25   13   29 1
  26   13   30 1
  27   14   15 1
  28   14   31 1
  29   14   32 1
  30   15   16 1
  31   15   33 1
  32   16   17 1
  33   16   34 1
  34   16   35 1
  35   17   18 1
  36   17   36 1
  37   17   37 1
  38   18   38 1
  39   18   39 1
  40   18   40 1

#	End of record

