#	Name: ASD07100003
#	Creating user name:	WinNT
#	Creation time:	15. 06. 2019 21:08

#	Modifying user name:	WinNT
#	Modification time:	15. 06. 2019 21:08

#	Program:	/corina/corina34_cracker 3.40 0067  02.08.2006

@<TRIPOS>MOLECULE
ASD07100003
  34   33    0    0    0
SMALL
NO_CHARGES


@<TRIPOS>ATOM
   1 C1            -0.0996     1.5430     0.2921 C.3     
   2 C2            -0.1299     0.0207     0.4422 C.3     
   3 C3             1.3456     2.0081     0.1018 C.3     
   4 O4            -1.4796    -0.4136     0.6199 O.3     
   5 C5             1.3813     3.5344     0.0020 C.3     
   6 C6             2.1885     1.5552     1.2957 C.3     
   7 O7             1.8748     1.4398    -1.0978 O.3     
   8 P8            -1.8854    -1.9600     0.8101 P.3     
   9 O9            -3.4894    -2.0929     0.8507 O.3     
  10 O10           -1.3298    -2.7872    -0.3706 O.co2   
  11 O11           -1.2911    -2.4892     2.1344 O.co2   
  12 P12           -4.5132    -3.3276     0.7115 P.3     
  13 O13           -3.8813    -4.6057     1.3609 O.co2   
  14 O14           -5.8542    -2.9790     1.4425 O.co2   
  15 O15           -4.8002    -3.5997    -0.8044 O.co2   
  16 C16            3.6272     2.0450     1.1193 C.3     
  17 C17            1.6047     2.1403     2.5833 C.3     
  18 C18            0.5943     3.9774    -1.2045 C.2     
  19 O19            0.0114     3.1534    -1.8883 O.co2   
  20 O20            0.5406     5.1599    -1.4967 O.co2   
  21 H21           -0.6922     1.8345    -0.5751 H       
  22 H22           -0.5149     2.0048     1.1878 H       
  23 H23            0.2854    -0.4410    -0.4536 H       
  24 H24            0.4627    -0.2707     1.3093 H       
  25 H25            0.9428     3.9676     0.9009 H       
  26 H26            2.4143     3.8681    -0.0955 H       
  27 H27            2.1798     0.4668     1.3546 H       
  28 H28            1.3886     1.6849    -1.8969 H       
  29 H29            4.0043     1.7227     0.1487 H       
  30 H30            3.6499     3.1333     1.1749 H       
  31 H31            4.2523     1.6278     1.9088 H       
  32 H32            0.5798     1.7914     2.7089 H       
  33 H33            2.2052     1.8177     3.4338 H       
  34 H34            1.6134     3.2287     2.5244 H       
@<TRIPOS>BOND
   1    1    2 1
   2    1    3 1
   3    1   21 1
   4    1   22 1
   5    2    4 1
   6    2   23 1
   7    2   24 1
   8    3    5 1
   9    3    6 1
  10    3    7 1
  11    4    8 1
  12    5   18 1
  13    5   25 1
  14    5   26 1
  15    6   16 1
  16    6   17 1
  17    6   27 1
  18    7   28 1
  19    8    9 1
  20    8   10 ar
  21    8   11 ar
  22    9   12 1
  23   12   13 ar
  24   12   14 ar
  25   12   15 ar
  26   16   29 1
  27   16   30 1
  28   16   31 1
  29   17   32 1
  30   17   33 1
  31   17   34 1
  32   18   19 ar
  33   18   20 ar

#	End of record

