#	Name: ASD03430495
#	Creating user name:	WinNT
#	Creation time:	15. 06. 2019 20:41

#	Modifying user name:	WinNT
#	Modification time:	15. 06. 2019 20:41

#	Program:	/corina/corina34_cracker 3.40 0067  02.08.2006

@<TRIPOS>MOLECULE
ASD03430495
  65   70    0    0    0
SMALL
NO_CHARGES


@<TRIPOS>ATOM
   1 N1            -0.0157     1.4932     0.4902 N.am    
   2 C2             0.0409     0.2263     0.9344 C.2     
   3 C3             1.4804    -0.0488     1.3139 C.3     
   4 C4             2.1944     1.2486     1.0120 C.ar    
   5 C5             3.5067     1.6460     1.1357 C.ar    
   6 C6             3.8770     2.9284     0.7700 C.ar    
   7 C7             2.9262     3.8060     0.2815 C.ar    
   8 C8             1.6106     3.4104     0.1566 C.ar    
   9 C9             1.2302     2.1206     0.5228 C.ar    
  10 O10           -0.8869    -0.5506     1.0164 O.2     
  11 C11           -1.2434     2.1395     0.0197 C.3     
  12 C12           -0.9991     2.7578    -1.3327 C.ar    
  13 C13           -1.5150     4.0065    -1.6251 C.ar    
  14 C14           -1.2909     4.5737    -2.8657 C.ar    
  15 C15           -0.5505     3.8925    -3.8136 C.ar    
  16 C16           -0.0338     2.6442    -3.5208 C.ar    
  17 C17           -0.2542     2.0788    -2.2788 C.ar    
  18 C18           -2.3417     1.1132    -0.0882 C.ar    
  19 C19           -3.4804     1.2356     0.6859 C.ar    
  20 C20           -4.4879     0.2942     0.5870 C.ar    
  21 C21           -4.3568    -0.7692    -0.2864 C.ar    
  22 C22           -3.2185    -0.8911    -1.0612 C.ar    
  23 C23           -2.2129     0.0527    -0.9654 C.ar    
  24 C24            1.5858    -0.3807     2.7801 C.ar    
  25 C25            2.1216    -1.5973     3.1789 C.ar    
  26 C26            2.2183    -1.9020     4.5277 C.ar    
  27 C27            1.7792    -0.9900     5.4753 C.ar    
  28 C28            1.2443     0.2249     5.0715 C.ar    
  29 C29            1.1542     0.5287     3.7263 C.ar    
  30 O30            2.5508    -2.4894     2.2478 O.3     
  31 O31            1.8722    -1.2860     6.7983 O.3     
  32 C32            1.4005    -0.2997     7.7185 C.3     
  33 C33            1.5828    -0.8000     9.1283 C.ar    
  34 C34            2.7577    -0.5384     9.8080 C.ar    
  35 C35            2.9250    -0.9974    11.1012 C.ar    
  36 C36            1.9171    -1.7175    11.7148 C.ar    
  37 C37            0.7418    -1.9783    11.0354 C.ar    
  38 C38            0.5729    -1.5156     9.7438 C.ar    
  39 H39            1.8871    -0.8585     0.7079 H       
  40 H40            4.2463     0.9579     1.5179 H       
  41 H41            4.9056     3.2431     0.8662 H       
  42 H42            3.2153     4.8068    -0.0034 H       
  43 H43            0.8740     4.1015    -0.2257 H       
  44 H44           -1.5392     2.9153     0.7259 H       
  45 H45           -2.0935     4.5388    -0.8845 H       
  46 H46           -1.6946     5.5490    -3.0944 H       
  47 H47           -0.3760     4.3353    -4.7831 H       
  48 H48            0.5444     2.1118    -4.2615 H       
  49 H49            0.1526     1.1052    -2.0487 H       
  50 H50           -3.5828     2.0664     1.3683 H       
  51 H51           -5.3772     0.3894     1.1923 H       
  52 H52           -5.1436    -1.5051    -0.3632 H       
  53 H53           -3.1159    -1.7221    -1.7433 H       
  54 H54           -1.3252    -0.0405    -1.5734 H       
  55 H55            2.6346    -2.8483     4.8400 H       
  56 H56            0.9018     0.9355     5.8092 H       
  57 H57            0.7419     1.4768     3.4142 H       
  58 H58            3.4802    -2.3851     2.0022 H       
  59 H59            1.9659     0.6224     7.5843 H       
  60 H60            0.3433    -0.1077     7.5350 H       
  61 H61            3.5451     0.0242     9.3286 H       
  62 H62            3.8432    -0.7936    11.6320 H       
  63 H63            2.0481    -2.0767    12.7249 H       
  64 H64           -0.0455    -2.5412    11.5147 H       
  65 H65           -0.3468    -1.7162     9.2143 H       
@<TRIPOS>BOND
   1    1    2 am
   2    1    9 1
   3    1   11 1
   4    2    3 1
   5    2   10 2
   6    3    4 1
   7    3   24 1
   8    3   39 1
   9    4    5 ar
  10    4    9 ar
  11    5    6 ar
  12    5   40 1
  13    6    7 ar
  14    6   41 1
  15    7    8 ar
  16    7   42 1
  17    8    9 ar
  18    8   43 1
  19   11   12 1
  20   11   18 1
  21   11   44 1
  22   12   13 ar
  23   12   17 ar
  24   13   14 ar
  25   13   45 1
  26   14   15 ar
  27   14   46 1
  28   15   16 ar
  29   15   47 1
  30   16   17 ar
  31   16   48 1
  32   17   49 1
  33   18   19 ar
  34   18   23 ar
  35   19   20 ar
  36   19   50 1
  37   20   21 ar
  38   20   51 1
  39   21   22 ar
  40   21   52 1
  41   22   23 ar
  42   22   53 1
  43   23   54 1
  44   24   25 ar
  45   24   29 ar
  46   25   26 ar
  47   25   30 1
  48   26   27 ar
  49   26   55 1
  50   27   28 ar
  51   27   31 1
  52   28   29 ar
  53   28   56 1
  54   29   57 1
  55   30   58 1
  56   31   32 1
  57   32   33 1
  58   32   59 1
  59   32   60 1
  60   33   34 ar
  61   33   38 ar
  62   34   35 ar
  63   34   61 1
  64   35   36 ar
  65   35   62 1
  66   36   37 ar
  67   36   63 1
  68   37   38 ar
  69   37   64 1
  70   38   65 1

#	End of record

