#	Name: ASD09116226
#	Creating user name:	WinNT
#	Creation time:	15. 06. 2019 21:21

#	Modifying user name:	WinNT
#	Modification time:	15. 06. 2019 21:21

#	Program:	/corina/corina34_cracker 3.40 0067  02.08.2006

@<TRIPOS>MOLECULE
ASD09116226
  78   85    0    0    0
SMALL
NO_CHARGES


@<TRIPOS>ATOM
   1 N1            -0.0591     1.5277    -0.5285 N.2     
   2 N2            -0.0822     0.2489    -1.1080 N.pl3   
   3 C3             1.1948     1.9114    -0.4978 C.2     
   4 N4             1.9589     0.9472    -1.0246 N.2     
   5 C5             1.2029    -0.0630    -1.3976 C.2     
   6 N6             1.6572     3.1282     0.0030 N.pl3   
   7 C7             3.0334     3.3745     0.0839 C.ar    
   8 C8             3.5139     4.6731    -0.0230 C.ar    
   9 C9             5.7550     3.8616     0.2438 C.ar    
  10 C10            5.2741     2.5636     0.3564 C.ar    
  11 C11            3.9172     2.3208     0.2767 C.ar    
  12 C12           -1.2077    -0.5441    -1.3393 C.ar    
  13 N13           -1.1866    -1.4616    -2.2945 N.ar    
  14 N14           -2.1986    -2.2104    -2.5546 N.ar    
  15 C15           -3.3309    -2.1063    -1.8777 C.ar    
  16 C16           -3.4385    -1.1797    -0.8367 C.ar    
  17 C17           -2.3544    -0.3740    -0.5594 C.ar    
  18 C18           -4.5161    -2.9300    -2.2108 C.ar    
  19 C19           -5.7520    -2.3010    -2.3689 C.ar    
  20 C20           -5.8380    -0.8038    -2.2530 C.3     
  21 C21           -5.7907    -0.3545    -0.7951 C.3     
  22 C22           -4.7037    -1.1070    -0.0322 C.3     
  23 C23           -4.4127    -4.3084    -2.3617 C.ar    
  24 C24           -5.5413    -5.0513    -2.6496 C.ar    
  25 C25           -6.7679    -4.4266    -2.7846 C.ar    
  26 C26           -6.8735    -3.0536    -2.6440 C.ar    
  27 N27            1.6429    -1.2353    -1.9823 N.pl3   
  28 C28            4.8708     4.9159     0.0567 C.ar    
  29 N29            7.1305     4.1077     0.3246 N.3     
  30 C30            7.4183     5.5417     0.1808 C.3     
  31 C31            8.9205     5.7777     0.3539 C.3     
  32 N32            9.6557     4.9929    -0.6477 N.3     
  33 C33            9.3680     3.5590    -0.5039 C.3     
  34 C34            7.8657     3.3230    -0.6771 C.3     
  35 C35           11.0993     5.2513    -0.5629 C.3     
  36 C36           11.8766     4.3205    -1.5431 C.3     
  37 C37           11.4198     6.6838    -1.0474 C.3     
  38 C38           12.3605     6.4836    -2.2747 C.3     
  39 C39           13.6976     5.9665    -1.6615 C.3     
  40 C40           13.3771     4.5340    -1.1769 C.3     
  41 C41           11.7807     5.1524    -2.8706 C.3     
  42 H42            1.0256     3.8039     0.2953 H       
  43 H43            2.8262     5.4931    -0.1688 H       
  44 H44            5.9615     1.7442     0.5060 H       
  45 H45            3.5432     1.3114     0.3646 H       
  46 H46           -2.3933     0.3669     0.2255 H       
  47 H47           -5.0027    -0.3559    -2.7914 H       
  48 H48           -6.7721    -0.4645    -2.7005 H       
  49 H49           -5.5821     0.7146    -0.7556 H       
  50 H50           -6.7564    -0.5485    -0.3283 H       
  51 H51           -5.0506    -2.1178     0.1822 H       
  52 H52           -4.5023    -0.5912     0.9067 H       
  53 H53           -3.4549    -4.7958    -2.2547 H       
  54 H54           -5.4657    -6.1219    -2.7700 H       
  55 H55           -7.6483    -5.0134    -3.0012 H       
  56 H56           -7.8345    -2.5722    -2.7495 H       
  57 H57            2.5888    -1.3673    -2.1519 H       
  58 H58            1.0060    -1.9260    -2.2232 H       
  59 H59            5.2445     5.9258    -0.0267 H       
  60 H60            7.1092     5.8771    -0.8092 H       
  61 H61            6.8724     6.1001     0.9412 H       
  62 H62            9.1402     6.8367     0.2190 H       
  63 H63            9.2245     5.4674     1.3537 H       
  64 H64            9.9139     3.0005    -1.2643 H       
  65 H65            9.6771     3.2235     0.4861 H       
  66 H66            7.6461     2.2639    -0.5421 H       
  67 H67            7.5617     3.6332    -1.6768 H       
  68 H68           11.4512     5.1060     0.4585 H       
  69 H69           11.5391     3.2849    -1.5853 H       
  70 H70           10.5062     7.1963    -1.3485 H       
  71 H71           11.9306     7.2443    -0.2645 H       
  72 H72           12.4445     7.3319    -2.9541 H       
  73 H73           14.4802     5.9450    -2.4198 H       
  74 H74           13.9980     6.5933    -0.8218 H       
  75 H75           13.5200     4.4565    -0.0991 H       
  76 H76           14.0022     3.8082    -1.6971 H       
  77 H77           12.4175     4.7444    -3.6555 H       
  78 H78           10.7503     5.2694    -3.2061 H       
@<TRIPOS>BOND
   1    1    2 1
   2    1    3 2
   3    2   12 1
   4    2    5 1
   5    3    4 1
   6    3    6 1
   7    4    5 2
   8    5   27 1
   9    6    7 1
  10    6   42 1
  11    7    8 ar
  12    7   11 ar
  13    8   28 ar
  14    8   43 1
  15    9   10 ar
  16    9   29 1
  17    9   28 ar
  18   10   11 ar
  19   10   44 1
  20   11   45 1
  21   12   13 ar
  22   12   17 ar
  23   13   14 ar
  24   14   15 ar
  25   15   16 ar
  26   15   18 1
  27   16   17 ar
  28   16   22 1
  29   17   46 1
  30   18   19 ar
  31   18   23 ar
  32   19   20 1
  33   19   26 ar
  34   20   21 1
  35   20   47 1
  36   20   48 1
  37   21   22 1
  38   21   49 1
  39   21   50 1
  40   22   51 1
  41   22   52 1
  42   23   24 ar
  43   23   53 1
  44   24   25 ar
  45   24   54 1
  46   25   26 ar
  47   25   55 1
  48   26   56 1
  49   27   57 1
  50   27   58 1
  51   28   59 1
  52   29   30 1
  53   29   34 1
  54   30   31 1
  55   30   60 1
  56   30   61 1
  57   31   32 1
  58   31   62 1
  59   31   63 1
  60   32   33 1
  61   32   35 1
  62   33   34 1
  63   33   64 1
  64   33   65 1
  65   34   66 1
  66   34   67 1
  67   35   36 1
  68   35   37 1
  69   35   68 1
  70   36   40 1
  71   36   41 1
  72   36   69 1
  73   37   38 1
  74   37   70 1
  75   37   71 1
  76   38   39 1
  77   38   41 1
  78   38   72 1
  79   39   40 1
  80   39   73 1
  81   39   74 1
  82   40   75 1
  83   40   76 1
  84   41   77 1
  85   41   78 1

#	End of record

