#	Name: ASD02198390
#	Creating user name:	WinNT
#	Creation time:	15. 06. 2019 20:19

#	Modifying user name:	WinNT
#	Modification time:	15. 06. 2019 20:19

#	Program:	/corina/corina34_cracker 3.40 0067  02.08.2006

@<TRIPOS>MOLECULE
ASD02198390
  41   44    0    0    0
SMALL
NO_CHARGES


@<TRIPOS>ATOM
   1 C1            -0.2139     1.0712    -0.3400 C.2     
   2 C2            -0.1176    -0.2750    -0.3553 C.2     
   3 S3             1.3946     1.7721    -0.2167 S.3     
   4 C4             2.1236     0.1719    -0.1923 C.2     
   5 C5             1.1685    -0.7614    -0.2739 C.2     
   6 S6             3.8516    -0.1533    -0.0781 S.o2    
   7 N7             4.4415    -0.2175    -1.6241 N.am    
   8 C8             4.3250     0.8913    -2.4613 C.ar    
   9 C9             4.0852     0.7181    -3.8423 C.ar    
  10 C10            3.9707     1.8623    -4.6691 C.ar    
  11 C11            4.0969     3.1430    -4.1076 C.ar    
  12 C12            4.3285     3.2796    -2.7724 C.ar    
  13 C13            4.4371     2.1647    -1.9468 C.ar    
  14 N14            3.9666    -0.5016    -4.3734 N.ar    
  15 C15            3.7444    -0.6688    -5.6544 C.ar    
  16 C16            3.6216     0.4130    -6.5240 C.ar    
  17 C17            3.7316     1.6874    -6.0457 C.ar    
  18 O18            4.4362     0.9917     0.5273 O.2     
  19 O19            3.9788    -1.4645     0.4547 O.2     
  20 C20           -1.4728     1.8362    -0.4205 C.ar    
  21 C21           -1.4573     3.2372    -0.3959 C.ar    
  22 N22           -2.6433     1.2058    -0.5233 N.ar    
  23 C23           -3.7735     1.8920    -0.5955 C.ar    
  24 N24           -3.7867     3.2175    -0.5689 N.ar    
  25 C25           -2.6614     3.9100    -0.4739 C.ar    
  26 S26           -5.2992     1.0211    -0.7312 S.3     
  27 C27           -6.4525     2.4148    -0.7902 C.3     
  28 H28           -0.9809    -0.9201    -0.4255 H       
  29 H29            1.3896    -1.8185    -0.2755 H       
  30 H30            4.8682    -1.0265    -1.9472 H       
  31 H31            4.0108     4.0187    -4.7338 H       
  32 H32            4.4248     4.2678    -2.3475 H       
  33 H33            4.6206     2.2990    -0.8910 H       
  34 H34            3.6546    -1.6712    -6.0462 H       
  35 H35            3.4392     0.2438    -7.5749 H       
  36 H36            3.6387     2.5376    -6.7052 H       
  37 H37           -0.5259     3.7783    -0.3175 H       
  38 H38           -2.6854     4.9895    -0.4531 H       
  39 H39           -6.3581     3.0034     0.1223 H       
  40 H40           -6.2218     3.0411    -1.6520 H       
  41 H41           -7.4721     2.0393    -0.8765 H       
@<TRIPOS>BOND
   1    1    2 2
   2    1    3 1
   3    1   20 1
   4    2    5 1
   5    2   28 1
   6    3    4 1
   7    4    5 2
   8    4    6 1
   9    5   29 1
  10    6    7 am
  11    6   18 2
  12    6   19 2
  13    7    8 1
  14    7   30 1
  15    8    9 ar
  16    8   13 ar
  17    9   10 ar
  18    9   14 ar
  19   10   11 ar
  20   10   17 ar
  21   11   12 ar
  22   11   31 1
  23   12   13 ar
  24   12   32 1
  25   13   33 1
  26   14   15 ar
  27   15   16 ar
  28   15   34 1
  29   16   17 ar
  30   16   35 1
  31   17   36 1
  32   20   21 ar
  33   20   22 ar
  34   21   25 ar
  35   21   37 1
  36   22   23 ar
  37   23   24 ar
  38   23   26 1
  39   24   25 ar
  40   25   38 1
  41   26   27 1
  42   27   39 1
  43   27   40 1
  44   27   41 1

#	End of record

