#	Name: ASD03740100
#	Creating user name:	WinNT
#	Creation time:	15. 06. 2019 20:46

#	Modifying user name:	WinNT
#	Modification time:	15. 06. 2019 20:46

#	Program:	/corina/corina34_cracker 3.40 0067  02.08.2006

@<TRIPOS>MOLECULE
ASD03740100
  53   56    0    0    0
SMALL
NO_CHARGES


@<TRIPOS>ATOM
   1 C1            -0.0168     1.3849     0.0097 C.ar    
   2 C2             0.0021    -0.0041     0.0020 C.ar    
   3 C3             1.1850    -0.6877    -0.0125 C.ar    
   4 C4             2.3894     0.0113    -0.0203 C.ar    
   5 C5             2.3718     1.4195    -0.0131 C.ar    
   6 C6             1.1486     2.0963     0.0023 C.ar    
   7 N7             3.7063    -0.3680    -0.0346 N.pl3   
   8 N8             4.5133     0.7743    -0.0364 N.2     
   9 C9             3.7704     1.8474    -0.0241 C.2     
  10 O10            4.2163     3.1315    -0.0222 O.3     
  11 C11            4.1915    -1.7503    -0.0454 C.3     
  12 C12            5.6318     3.3268    -0.0344 C.3     
  13 C13            5.9400     4.8254    -0.0302 C.3     
  14 C14            7.4490     5.0362    -0.1690 C.3     
  15 N15            7.7342     6.4725    -0.2853 N.3     
  16 C16            4.3443    -2.2179    -1.4698 C.ar    
  17 C17            5.5441    -2.0357    -2.1320 C.ar    
  18 C18            5.6848    -2.4644    -3.4384 C.ar    
  19 C19            4.6247    -3.0760    -4.0834 C.ar    
  20 C20            3.4242    -3.2581    -3.4203 C.ar    
  21 C21            3.2865    -2.8340    -2.1120 C.ar    
  22 Cl22           4.8005    -3.6142    -5.7245 Cl      
  23 C23            9.1816     6.7339    -0.1819 C.3     
  24 C24            9.6030     7.4860    -1.4618 C.3     
  25 C25            8.2706     8.1082    -1.9563 C.3     
  26 C26            7.2506     7.0058    -1.5766 C.3     
  27 C27            5.4578     5.4416     1.2846 C.3     
  28 H28           -0.9621     1.9071     0.0170 H       
  29 H29           -0.9296    -0.5502     0.0080 H       
  30 H30            1.1859    -1.7677    -0.0176 H       
  31 H31            1.1256     3.1760     0.0077 H       
  32 H32            5.1565    -1.8005     0.4590 H       
  33 H33            3.4771    -2.3902     0.4724 H       
  34 H34            6.0702     2.8632     0.8494 H       
  35 H35            6.0537     2.8716    -0.9305 H       
  36 H36            5.4280     5.3039    -0.8651 H       
  37 H37            7.9542     4.6355     0.7098 H       
  38 H38            7.8074     4.5212    -1.0604 H       
  39 H39            6.3715    -1.5579    -1.6284 H       
  40 H40            6.6221    -2.3216    -3.9557 H       
  41 H41            2.5963    -3.7355    -3.9233 H       
  42 H42            2.3494    -2.9761    -1.5942 H       
  43 H43            9.3855     7.3497     0.6941 H       
  44 H44            9.7244     5.7915    -0.1098 H       
  45 H45           10.3293     8.2648    -1.2298 H       
  46 H46           10.0027     6.7929    -2.2021 H       
  47 H47            8.0547     9.0379    -1.4298 H       
  48 H48            8.2903     8.2673    -3.0344 H       
  49 H49            7.2420     6.2203    -2.3323 H       
  50 H50            6.2547     7.4337    -1.4614 H       
  51 H51            5.6773     6.5092     1.2875 H       
  52 H52            4.3827     5.2914     1.3834 H       
  53 H53            5.9697     4.9630     2.1194 H       
@<TRIPOS>BOND
   1    1    2 ar
   2    1    6 ar
   3    1   28 1
   4    2    3 ar
   5    2   29 1
   6    3    4 ar
   7    3   30 1
   8    4    5 ar
   9    4    7 1
  10    5    6 ar
  11    5    9 1
  12    6   31 1
  13    7    8 1
  14    7   11 1
  15    8    9 2
  16    9   10 1
  17   10   12 1
  18   11   16 1
  19   11   32 1
  20   11   33 1
  21   12   13 1
  22   12   34 1
  23   12   35 1
  24   13   27 1
  25   13   14 1
  26   13   36 1
  27   14   15 1
  28   14   37 1
  29   14   38 1
  30   15   23 1
  31   15   26 1
  32   16   17 ar
  33   16   21 ar
  34   17   18 ar
  35   17   39 1
  36   18   19 ar
  37   18   40 1
  38   19   20 ar
  39   19   22 1
  40   20   21 ar
  41   20   41 1
  42   21   42 1
  43   23   24 1
  44   23   43 1
  45   23   44 1
  46   24   25 1
  47   24   45 1
  48   24   46 1
  49   25   26 1
  50   25   47 1
  51   25   48 1
  52   26   49 1
  53   26   50 1
  54   27   51 1
  55   27   52 1
  56   27   53 1

#	End of record

