#	Name: ASD01913815
#	Creating user name:	WinNT
#	Creation time:	15. 06. 2019 20:02

#	Modifying user name:	WinNT
#	Modification time:	15. 06. 2019 20:02

#	Program:	/corina/corina34_cracker 3.40 0067  02.08.2006

@<TRIPOS>MOLECULE
ASD01913815
  43   45    0    0    0
SMALL
NO_CHARGES


@<TRIPOS>ATOM
   1 C1             0.2825     1.3706     0.7414 C.ar    
   2 C2             0.2222    -0.0458     0.5397 C.1     
   3 C3             0.1727    -1.2071     0.3743 C.1     
   4 C4             0.1123    -2.6235     0.1726 C.ar    
   5 C5            -1.1101    -3.3050     0.2686 C.ar    
   6 C6             0.0780    -5.3214    -0.2247 C.ar    
   7 N7             1.2158    -4.6491    -0.3144 N.ar    
   8 C8             1.2687    -3.3466    -0.1285 C.ar    
   9 C9            -1.1172    -4.6705     0.0659 C.ar    
  10 N10            0.0768    -6.6989    -0.4309 N.am    
  11 C11            0.2955    -7.6103     0.5326 C.2     
  12 C12            0.2305    -9.0061    -0.0470 C.3     
  13 C13            0.3538    -8.7891    -1.5730 C.3     
  14 C14           -0.1698    -7.3420    -1.7269 C.3     
  15 O15            0.5136    -7.3512     1.6972 O.2     
  16 C16            1.5041     2.0423     0.6440 C.ar    
  17 C17            1.5544     3.4066     0.8391 C.ar    
  18 C18            0.3992     4.1103     1.1311 C.ar    
  19 C19           -0.8140     3.4520     1.2292 C.ar    
  20 C20           -0.8808     2.0888     1.0310 C.ar    
  21 C21            1.8109    -8.9013    -2.0261 C.3     
  22 C22           -0.5329    -9.7726    -2.3394 C.3     
  23 C23           -2.4049    -5.4478     0.1588 C.3     
  24 H24           -2.0230    -2.7746     0.4959 H       
  25 H25            2.2151    -2.8327    -0.2100 H       
  26 H26            1.0596    -9.6108     0.3205 H       
  27 H27           -0.7226    -9.4760     0.1957 H       
  28 H28           -1.2356    -7.3487    -1.9548 H       
  29 H29            0.3811    -6.8230    -2.5113 H       
  30 H30            2.4066     1.4943     0.4169 H       
  31 H31            2.4978     3.9271     0.7641 H       
  32 H32            0.4448     5.1785     1.2836 H       
  33 H33           -1.7115     4.0077     1.4575 H       
  34 H34           -1.8284     1.5763     1.1075 H       
  35 H35            2.1841    -9.9013    -1.8052 H       
  36 H36            1.8728    -8.7190    -3.0990 H       
  37 H37            2.4138    -8.1634    -1.4968 H       
  38 H38           -1.5700    -9.6444    -2.0293 H       
  39 H39           -0.4473    -9.5816    -3.4091 H       
  40 H40           -0.2132   -10.7926    -2.1257 H       
  41 H41           -2.8312    -5.5650    -0.8375 H       
  42 H42           -2.2061    -6.4303     0.5868 H       
  43 H43           -3.1087    -4.9103     0.7942 H       
@<TRIPOS>BOND
   1    1    2 1
   2    1   16 ar
   3    1   20 ar
   4    2    3 3
   5    3    4 1
   6    4    5 ar
   7    4    8 ar
   8    5    9 ar
   9    5   24 1
  10    6    7 ar
  11    6   10 1
  12    6    9 ar
  13    7    8 ar
  14    8   25 1
  15    9   23 1
  16   10   11 am
  17   10   14 1
  18   11   12 1
  19   11   15 2
  20   12   13 1
  21   12   26 1
  22   12   27 1
  23   13   14 1
  24   13   21 1
  25   13   22 1
  26   14   28 1
  27   14   29 1
  28   16   17 ar
  29   16   30 1
  30   17   18 ar
  31   17   31 1
  32   18   19 ar
  33   18   32 1
  34   19   20 ar
  35   19   33 1
  36   20   34 1
  37   21   35 1
  38   21   36 1
  39   21   37 1
  40   22   38 1
  41   22   39 1
  42   22   40 1
  43   23   41 1
  44   23   42 1
  45   23   43 1

#	End of record

