#	Name: ASD01230278
#	Creating user name:	WinNT
#	Creation time:	15. 06. 2019 19:12

#	Modifying user name:	WinNT
#	Modification time:	15. 06. 2019 19:12

#	Program:	/corina/corina34_cracker 3.40 0067  02.08.2006

@<TRIPOS>MOLECULE
ASD01230278
  23   24    0    0    0
SMALL
NO_CHARGES


@<TRIPOS>ATOM
   1 C1             0.0097     1.3636     0.0907 C.ar    
   2 C2             0.0448    -0.0128     0.1275 C.ar    
   3 C3             1.2565    -0.6816     0.1203 C.ar    
   4 C4             2.4359     0.0416     0.0894 C.ar    
   5 C5             2.4019     1.4205     0.0663 C.ar    
   6 C6             1.1954     2.1036     0.0458 C.ar    
   7 N7             1.0895     3.4843    -0.0546 N.3     
   8 S8             3.9205     2.3286     0.0943 S.o2    
   9 N9             3.4438     3.9151    -0.1250 N.am    
  10 C10            2.1675     4.2734     0.5273 C.3     
  11 Cl11           1.2966    -2.4169     0.1506 Cl      
  12 O12            4.4364     2.2308     1.4147 O.2     
  13 O13            4.6490     1.9517    -1.0662 O.2     
  14 C14           -0.2197     3.9481     0.4237 C.3     
  15 H15           -0.9414     1.8753     0.0921 H       
  16 H16           -0.8779    -0.5731     0.1624 H       
  17 H17            3.3847    -0.4745     0.0836 H       
  18 H18            3.9637     4.5509    -0.6411 H       
  19 H19            1.9656     5.3336     0.3746 H       
  20 H20            2.2349     4.0656     1.5952 H       
  21 H21           -0.4006     3.5562     1.4246 H       
  22 H22           -0.2309     5.0377     0.4526 H       
  23 H23           -0.9992     3.5945    -0.2513 H       
@<TRIPOS>BOND
   1    1    2 ar
   2    1    6 ar
   3    1   15 1
   4    2    3 ar
   5    2   16 1
   6    3    4 ar
   7    3   11 1
   8    4    5 ar
   9    4   17 1
  10    5    6 ar
  11    5    8 1
  12    6    7 1
  13    7   10 1
  14    7   14 1
  15    8    9 am
  16    8   12 2
  17    8   13 2
  18    9   10 1
  19    9   18 1
  20   10   19 1
  21   10   20 1
  22   14   21 1
  23   14   22 1
  24   14   23 1

#	End of record

